MODEL 1
REMARK VINA RESULT:      -5.9      0.000      0.000
REMARK  Name = 45783388
REMARK  11 active torsions:
REMARK  status: ('A' for Active; 'I' for Inactive)
REMARK    1  A    between atoms: O_2  and  C_25
REMARK    2  A    between atoms: O_2  and  C_26
REMARK    3  A    between atoms: N_3  and  C_11
REMARK    4  A    between atoms: N_6  and  C_23
REMARK    5  A    between atoms: C_8  and  C_14
REMARK    6  A    between atoms: C_11  and  C_13
REMARK    7  A    between atoms: C_13  and  C_15
REMARK    8  A    between atoms: C_13  and  C_16
REMARK    9  A    between atoms: C_13  and  C_17
REMARK   10  A    between atoms: C_18  and  C_19
REMARK   11  A    between atoms: C_23  and  C_25
REMARK                            x       y       z     vdW  Elec       q    Type
REMARK                         _______ _______ _______ _____ _____    ______ ____
ROOT
ATOM      1  O   UNL     1      11.380   3.261   2.812  0.00  0.00    -0.336 OA
ATOM      4  N   UNL     1      11.897   5.376   2.285  0.00  0.00    -0.190 NA
ATOM      5  N   UNL     1      10.548   4.072   3.595  0.00  0.00    -0.056 NA
ATOM     14  C   UNL     1      12.143   4.108   2.072  0.00  0.00    +0.245 A 
ATOM     18  C   UNL     1      10.912   5.304   3.227  0.00  0.00    +0.205 A 
ENDROOT
BRANCH  18  19
ATOM      6  N   UNL     1      11.369   6.100   5.916  0.00  0.00    -0.326 N 
ATOM      7  N   UNL     1       9.976   7.992   5.641  0.00  0.00    -0.240 NA
ATOM     19  C   UNL     1      10.314   6.483   3.782  0.00  0.00    +0.062 A 
ATOM     20  C   UNL     1      10.526   6.886   5.091  0.00  0.00    +0.130 A 
ATOM     21  C   UNL     1       9.484   7.266   2.987  0.00  0.00    +0.016 A 
ATOM     22  C   UNL     1       8.900   8.411   3.517  0.00  0.00    +0.020 A 
ATOM     24  C   UNL     1       9.175   8.728   4.838  0.00  0.00    +0.113 A 
ATOM     27  H   UNL     1      12.039   5.507   5.436  0.00  0.00    +0.148 HD
BRANCH   6  23
ATOM     23  C   UNL     1      11.646   6.434   7.274  0.00  0.00    +0.131 C 
BRANCH  23  25
ATOM     25  C   UNL     1      10.460   6.069   8.152  0.00  0.00    +0.178 C 
BRANCH  25   2
ATOM      2  O   UNL     1      10.520   4.685   8.476  0.00  0.00    -0.381 OA
ATOM     26  C   UNL     1       9.399   4.283   9.251  0.00  0.00    +0.194 C 
ENDBRANCH  25   2
ENDBRANCH  23  25
ENDBRANCH   6  23
ENDBRANCH  18  19
BRANCH  14   8
ATOM      3  N   UNL     1      13.236   4.178  -0.163  0.00  0.00    -0.291 NA
ATOM      8  C   UNL     1      13.140   3.468   1.128  0.00  0.00    +0.146 C 
ATOM      9  C   UNL     1      14.574   3.475   1.686  0.00  0.00    +0.030 C 
ATOM     10  C   UNL     1      14.599   3.968  -0.649  0.00  0.00    +0.085 C 
ATOM     12  C   UNL     1      15.415   4.154   0.614  0.00  0.00    +0.017 C 
BRANCH   3  11
ATOM     11  C   UNL     1      12.236   3.747  -1.131  0.00  0.00    +0.091 C 
BRANCH  11  13
ATOM     13  C   UNL     1      11.312   4.885  -1.635  0.00  0.00    -0.025 C 
ATOM     15  C   UNL     1      12.083   6.215  -1.529  0.00  0.00    +0.012 C 
ATOM     16  C   UNL     1      10.037   4.991  -0.780  0.00  0.00    +0.012 C 
ATOM     17  C   UNL     1      10.919   4.661  -3.105  0.00  0.00    +0.012 C 
ENDBRANCH  11  13
ENDBRANCH   3  11
ENDBRANCH  14   8
TORSDOF 7
ENDMDL
MODEL 2
REMARK VINA RESULT:      -5.7     22.367     25.965
REMARK  Name = 45783388
REMARK  11 active torsions:
REMARK  status: ('A' for Active; 'I' for Inactive)
REMARK    1  A    between atoms: O_2  and  C_25
REMARK    2  A    between atoms: O_2  and  C_26
REMARK    3  A    between atoms: N_3  and  C_11
REMARK    4  A    between atoms: N_6  and  C_23
REMARK    5  A    between atoms: C_8  and  C_14
REMARK    6  A    between atoms: C_11  and  C_13
REMARK    7  A    between atoms: C_13  and  C_15
REMARK    8  A    between atoms: C_13  and  C_16
REMARK    9  A    between atoms: C_13  and  C_17
REMARK   10  A    between atoms: C_18  and  C_19
REMARK   11  A    between atoms: C_23  and  C_25
REMARK                            x       y       z     vdW  Elec       q    Type
REMARK                         _______ _______ _______ _____ _____    ______ ____
ROOT
ATOM      1  O   UNL     1      -1.894 -10.282  14.553  0.00  0.00    -0.336 OA
ATOM      4  N   UNL     1      -3.962 -11.131  14.695  0.00  0.00    -0.190 NA
ATOM      5  N   UNL     1      -2.215 -10.299  15.917  0.00  0.00    -0.056 NA
ATOM     14  C   UNL     1      -2.976 -10.787  13.905  0.00  0.00    +0.245 A 
ATOM     18  C   UNL     1      -3.449 -10.814  15.919  0.00  0.00    +0.205 A 
ENDROOT
BRANCH  18  19
ATOM      6  N   UNL     1      -6.056  -9.742  16.276  0.00  0.00    -0.326 N 
ATOM      7  N   UNL     1      -6.197 -10.684  18.441  0.00  0.00    -0.240 NA
ATOM     19  C   UNL     1      -4.197 -11.020  17.125  0.00  0.00    +0.062 A 
ATOM     20  C   UNL     1      -5.468 -10.506  17.316  0.00  0.00    +0.130 A 
ATOM     21  C   UNL     1      -3.635 -11.767  18.155  0.00  0.00    +0.016 A 
ATOM     22  C   UNL     1      -4.353 -11.972  19.329  0.00  0.00    +0.020 A 
ATOM     24  C   UNL     1      -5.618 -11.415  19.421  0.00  0.00    +0.113 A 
ATOM     27  H   UNL     1      -5.691  -9.901  15.342  0.00  0.00    +0.148 HD
BRANCH   6  23
ATOM     23  C   UNL     1      -7.359  -9.172  16.381  0.00  0.00    +0.131 C 
BRANCH  23  25
ATOM     25  C   UNL     1      -8.368 -10.045  15.653  0.00  0.00    +0.178 C 
BRANCH  25   2
ATOM      2  O   UNL     1      -9.562 -10.129  16.422  0.00  0.00    -0.381 OA
ATOM     26  C   UNL     1      -9.580  -9.163  17.463  0.00  0.00    +0.194 C 
ENDBRANCH  25   2
ENDBRANCH  23  25
ENDBRANCH   6  23
ENDBRANCH  18  19
BRANCH  14   8
ATOM      3  N   UNL     1      -4.024 -10.241  11.715  0.00  0.00    -0.291 NA
ATOM      8  C   UNL     1      -2.879 -10.875  12.396  0.00  0.00    +0.146 C 
ATOM      9  C   UNL     1      -1.641 -10.151  11.838  0.00  0.00    +0.030 C 
ATOM     10  C   UNL     1      -3.526  -9.764  10.425  0.00  0.00    +0.085 C 
ATOM     12  C   UNL     1      -2.185  -9.172  10.807  0.00  0.00    +0.017 C 
BRANCH   3  11
ATOM     11  C   UNL     1      -5.169 -11.131  11.566  0.00  0.00    +0.091 C 
BRANCH  11  13
ATOM     13  C   UNL     1      -6.541 -10.424  11.707  0.00  0.00    -0.025 C 
ATOM     15  C   UNL     1      -6.352  -9.172  12.586  0.00  0.00    +0.012 C 
ATOM     16  C   UNL     1      -7.576 -11.342  12.382  0.00  0.00    +0.012 C 
ATOM     17  C   UNL     1      -7.075  -9.984  10.333  0.00  0.00    +0.012 C 
ENDBRANCH  11  13
ENDBRANCH   3  11
ENDBRANCH  14   8
TORSDOF 7
ENDMDL
MODEL 3
REMARK VINA RESULT:      -5.7     22.433     26.563
REMARK  Name = 45783388
REMARK  11 active torsions:
REMARK  status: ('A' for Active; 'I' for Inactive)
REMARK    1  A    between atoms: O_2  and  C_25
REMARK    2  A    between atoms: O_2  and  C_26
REMARK    3  A    between atoms: N_3  and  C_11
REMARK    4  A    between atoms: N_6  and  C_23
REMARK    5  A    between atoms: C_8  and  C_14
REMARK    6  A    between atoms: C_11  and  C_13
REMARK    7  A    between atoms: C_13  and  C_15
REMARK    8  A    between atoms: C_13  and  C_16
REMARK    9  A    between atoms: C_13  and  C_17
REMARK   10  A    between atoms: C_18  and  C_19
REMARK   11  A    between atoms: C_23  and  C_25
REMARK                            x       y       z     vdW  Elec       q    Type
REMARK                         _______ _______ _______ _____ _____    ______ ____
ROOT
ATOM      1  O   UNL     1      -7.908 -11.575  13.408  0.00  0.00    -0.336 OA
ATOM      4  N   UNL     1      -6.472  -9.908  13.828  0.00  0.00    -0.190 NA
ATOM      5  N   UNL     1      -7.085 -11.476  12.278  0.00  0.00    -0.056 NA
ATOM     14  C   UNL     1      -7.481 -10.616  14.270  0.00  0.00    +0.245 A 
ATOM     18  C   UNL     1      -6.265 -10.472  12.603  0.00  0.00    +0.205 A 
ENDROOT
BRANCH  18  19
ATOM      6  N   UNL     1      -3.629 -11.529  12.691  0.00  0.00    -0.326 N 
ATOM      7  N   UNL     1      -2.945 -10.092  10.941  0.00  0.00    -0.240 NA
ATOM     19  C   UNL     1      -5.230 -10.007  11.725  0.00  0.00    +0.062 A 
ATOM     20  C   UNL     1      -3.940 -10.511  11.755  0.00  0.00    +0.130 A 
ATOM     21  C   UNL     1      -5.518  -9.009  10.801  0.00  0.00    +0.016 A 
ATOM     22  C   UNL     1      -4.521  -8.552   9.946  0.00  0.00    +0.020 A 
ATOM     24  C   UNL     1      -3.262  -9.121  10.055  0.00  0.00    +0.113 A 
ATOM     27  H   UNL     1      -4.412 -12.076  13.035  0.00  0.00    +0.148 HD
BRANCH   6  23
ATOM     23  C   UNL     1      -2.330 -12.108  12.795  0.00  0.00    +0.131 C 
BRANCH  23  25
ATOM     25  C   UNL     1      -1.791 -11.926  14.205  0.00  0.00    +0.178 C 
BRANCH  25   2
ATOM      2  O   UNL     1      -1.673 -10.538  14.492  0.00  0.00    -0.381 OA
ATOM     26  C   UNL     1      -1.047 -10.317  15.747  0.00  0.00    +0.194 C 
ENDBRANCH  25   2
ENDBRANCH  23  25
ENDBRANCH   6  23
ENDBRANCH  18  19
BRANCH  14   8
ATOM      3  N   UNL     1      -7.318 -10.253  16.727  0.00  0.00    -0.291 NA
ATOM      8  C   UNL     1      -8.220 -10.516  15.588  0.00  0.00    +0.146 C 
ATOM      9  C   UNL     1      -9.232  -9.356  15.615  0.00  0.00    +0.030 C 
ATOM     10  C   UNL     1      -8.101  -9.508  17.712  0.00  0.00    +0.085 C 
ATOM     12  C   UNL     1      -8.856  -8.529  16.837  0.00  0.00    +0.017 C 
BRANCH   3  11
ATOM     11  C   UNL     1      -6.737 -11.465  17.291  0.00  0.00    +0.091 C 
BRANCH  11  13
ATOM     13  C   UNL     1      -5.187 -11.473  17.311  0.00  0.00    -0.025 C 
ATOM     15  C   UNL     1      -4.697 -12.560  16.335  0.00  0.00    +0.012 C 
ATOM     16  C   UNL     1      -4.648 -11.798  18.715  0.00  0.00    +0.012 C 
ATOM     17  C   UNL     1      -4.627 -10.114  16.856  0.00  0.00    +0.012 C 
ENDBRANCH  11  13
ENDBRANCH   3  11
ENDBRANCH  14   8
TORSDOF 7
ENDMDL
MODEL 4
REMARK VINA RESULT:      -5.6      2.044      3.664
REMARK  Name = 45783388
REMARK  11 active torsions:
REMARK  status: ('A' for Active; 'I' for Inactive)
REMARK    1  A    between atoms: O_2  and  C_25
REMARK    2  A    between atoms: O_2  and  C_26
REMARK    3  A    between atoms: N_3  and  C_11
REMARK    4  A    between atoms: N_6  and  C_23
REMARK    5  A    between atoms: C_8  and  C_14
REMARK    6  A    between atoms: C_11  and  C_13
REMARK    7  A    between atoms: C_13  and  C_15
REMARK    8  A    between atoms: C_13  and  C_16
REMARK    9  A    between atoms: C_13  and  C_17
REMARK   10  A    between atoms: C_18  and  C_19
REMARK   11  A    between atoms: C_23  and  C_25
REMARK                            x       y       z     vdW  Elec       q    Type
REMARK                         _______ _______ _______ _____ _____    ______ ____
ROOT
ATOM      1  O   UNL     1      10.877   4.381   2.535  0.00  0.00    -0.336 OA
ATOM      4  N   UNL     1      10.380   6.534   2.905  0.00  0.00    -0.190 NA
ATOM      5  N   UNL     1      10.564   4.480   3.897  0.00  0.00    -0.056 NA
ATOM     14  C   UNL     1      10.744   5.634   2.026  0.00  0.00    +0.245 A 
ATOM     18  C   UNL     1      10.281   5.779   4.038  0.00  0.00    +0.205 A 
ENDROOT
BRANCH  18  19
ATOM      6  N   UNL     1      12.186   6.365   6.063  0.00  0.00    -0.326 N 
ATOM      7  N   UNL     1      10.486   7.188   7.487  0.00  0.00    -0.240 NA
ATOM     19  C   UNL     1       9.901   6.354   5.295  0.00  0.00    +0.062 A 
ATOM     20  C   UNL     1      10.815   6.646   6.293  0.00  0.00    +0.130 A 
ATOM     21  C   UNL     1       8.561   6.636   5.537  0.00  0.00    +0.016 A 
ATOM     22  C   UNL     1       8.182   7.195   6.754  0.00  0.00    +0.020 A 
ATOM     24  C   UNL     1       9.174   7.449   7.687  0.00  0.00    +0.113 A 
ATOM     27  H   UNL     1      12.474   6.304   5.091  0.00  0.00    +0.148 HD
BRANCH   6  23
ATOM     23  C   UNL     1      13.199   6.631   7.030  0.00  0.00    +0.131 C 
BRANCH  23  25
ATOM     25  C   UNL     1      14.030   7.827   6.598  0.00  0.00    +0.178 C 
BRANCH  25   2
ATOM      2  O   UNL     1      13.408   9.024   7.049  0.00  0.00    -0.381 OA
ATOM     26  C   UNL     1      13.201   9.938   5.982  0.00  0.00    +0.194 C 
ENDBRANCH  25   2
ENDBRANCH  23  25
ENDBRANCH   6  23
ENDBRANCH  18  19
BRANCH  14   8
ATOM      3  N   UNL     1      12.260   5.094   0.128  0.00  0.00    -0.291 NA
ATOM      8  C   UNL     1      11.031   5.796   0.548  0.00  0.00    +0.146 C 
ATOM      9  C   UNL     1       9.920   5.209  -0.341  0.00  0.00    +0.030 C 
ATOM     10  C   UNL     1      12.063   4.719  -1.272  0.00  0.00    +0.085 C 
ATOM     12  C   UNL     1      10.629   4.231  -1.268  0.00  0.00    +0.017 C 
BRANCH   3  11
ATOM     11  C   UNL     1      13.468   5.885   0.319  0.00  0.00    +0.091 C 
BRANCH  11  13
ATOM     13  C   UNL     1      14.607   5.132   1.053  0.00  0.00    -0.025 C 
ATOM     15  C   UNL     1      14.992   5.942   2.307  0.00  0.00    +0.012 C 
ATOM     16  C   UNL     1      15.852   4.994   0.160  0.00  0.00    +0.012 C 
ATOM     17  C   UNL     1      14.143   3.733   1.495  0.00  0.00    +0.012 C 
ENDBRANCH  11  13
ENDBRANCH   3  11
ENDBRANCH  14   8
TORSDOF 7
ENDMDL
MODEL 5
REMARK VINA RESULT:      -5.6     23.871     28.413
REMARK  Name = 45783388
REMARK  11 active torsions:
REMARK  status: ('A' for Active; 'I' for Inactive)
REMARK    1  A    between atoms: O_2  and  C_25
REMARK    2  A    between atoms: O_2  and  C_26
REMARK    3  A    between atoms: N_3  and  C_11
REMARK    4  A    between atoms: N_6  and  C_23
REMARK    5  A    between atoms: C_8  and  C_14
REMARK    6  A    between atoms: C_11  and  C_13
REMARK    7  A    between atoms: C_13  and  C_15
REMARK    8  A    between atoms: C_13  and  C_16
REMARK    9  A    between atoms: C_13  and  C_17
REMARK   10  A    between atoms: C_18  and  C_19
REMARK   11  A    between atoms: C_23  and  C_25
REMARK                            x       y       z     vdW  Elec       q    Type
REMARK                         _______ _______ _______ _____ _____    ______ ____
ROOT
ATOM      1  O   UNL     1      -7.238  -9.537  17.389  0.00  0.00    -0.336 OA
ATOM      4  N   UNL     1      -5.744 -11.183  17.666  0.00  0.00    -0.190 NA
ATOM      5  N   UNL     1      -6.252  -9.336  16.414  0.00  0.00    -0.056 NA
ATOM     14  C   UNL     1      -6.862 -10.643  18.083  0.00  0.00    +0.245 A 
ATOM     18  C   UNL     1      -5.407 -10.346  16.642  0.00  0.00    +0.205 A 
ENDROOT
BRANCH  18  19
ATOM      6  N   UNL     1      -5.440 -10.319  13.801  0.00  0.00    -0.326 N 
ATOM      7  N   UNL     1      -3.110 -10.723  13.725  0.00  0.00    -0.240 NA
ATOM     19  C   UNL     1      -4.218 -10.547  15.867  0.00  0.00    +0.062 A 
ATOM     20  C   UNL     1      -4.215 -10.537  14.482  0.00  0.00    +0.130 A 
ATOM     21  C   UNL     1      -3.008 -10.761  16.518  0.00  0.00    +0.016 A 
ATOM     22  C   UNL     1      -1.849 -10.957  15.774  0.00  0.00    +0.020 A 
ATOM     24  C   UNL     1      -1.953 -10.928  14.392  0.00  0.00    +0.113 A 
ATOM     27  H   UNL     1      -6.166  -9.841  14.326  0.00  0.00    +0.148 HD
BRANCH   6  23
ATOM     23  C   UNL     1      -5.536 -10.292  12.379  0.00  0.00    +0.131 C 
BRANCH  23  25
ATOM     25  C   UNL     1      -6.172  -8.988  11.925  0.00  0.00    +0.178 C 
BRANCH  25   2
ATOM      2  O   UNL     1      -5.280  -8.304  11.054  0.00  0.00    -0.381 OA
ATOM     26  C   UNL     1      -4.278  -9.174  10.547  0.00  0.00    +0.194 C 
ENDBRANCH  25   2
ENDBRANCH  23  25
ENDBRANCH   6  23
ENDBRANCH  18  19
BRANCH  14   8
ATOM      3  N   UNL     1      -9.193 -11.141  18.798  0.00  0.00    -0.291 NA
ATOM      8  C   UNL     1      -7.777 -11.077  19.209  0.00  0.00    +0.146 C 
ATOM      9  C   UNL     1      -7.454 -12.490  19.726  0.00  0.00    +0.030 C 
ATOM     10  C   UNL     1      -9.817 -12.171  19.628  0.00  0.00    +0.085 C 
ATOM     12  C   UNL     1      -8.764 -13.260  19.623  0.00  0.00    +0.017 C 
BRANCH   3  11
ATOM     11  C   UNL     1      -9.881  -9.861  18.903  0.00  0.00    +0.091 C 
BRANCH  11  13
ATOM     13  C   UNL     1     -10.763  -9.515  17.677  0.00  0.00    -0.025 C 
ATOM     15  C   UNL     1     -10.447 -10.523  16.555  0.00  0.00    +0.012 C 
ATOM     16  C   UNL     1     -10.466  -8.097  17.157  0.00  0.00    +0.012 C 
ATOM     17  C   UNL     1     -12.257  -9.623  18.029  0.00  0.00    +0.012 C 
ENDBRANCH  11  13
ENDBRANCH   3  11
ENDBRANCH  14   8
TORSDOF 7
ENDMDL
MODEL 6
REMARK VINA RESULT:      -5.5     22.605     26.215
REMARK  Name = 45783388
REMARK  11 active torsions:
REMARK  status: ('A' for Active; 'I' for Inactive)
REMARK    1  A    between atoms: O_2  and  C_25
REMARK    2  A    between atoms: O_2  and  C_26
REMARK    3  A    between atoms: N_3  and  C_11
REMARK    4  A    between atoms: N_6  and  C_23
REMARK    5  A    between atoms: C_8  and  C_14
REMARK    6  A    between atoms: C_11  and  C_13
REMARK    7  A    between atoms: C_13  and  C_15
REMARK    8  A    between atoms: C_13  and  C_16
REMARK    9  A    between atoms: C_13  and  C_17
REMARK   10  A    between atoms: C_18  and  C_19
REMARK   11  A    between atoms: C_23  and  C_25
REMARK                            x       y       z     vdW  Elec       q    Type
REMARK                         _______ _______ _______ _____ _____    ______ ____
ROOT
ATOM      1  O   UNL     1      -2.022 -10.410  14.379  0.00  0.00    -0.336 OA
ATOM      4  N   UNL     1      -4.056 -11.351  14.357  0.00  0.00    -0.190 NA
ATOM      5  N   UNL     1      -2.409 -10.534  15.720  0.00  0.00    -0.056 NA
ATOM     14  C   UNL     1      -3.048 -10.914  13.643  0.00  0.00    +0.245 A 
ATOM     18  C   UNL     1      -3.618 -11.097  15.624  0.00  0.00    +0.205 A 
ENDROOT
BRANCH  18  19
ATOM      6  N   UNL     1      -4.343 -13.769  16.258  0.00  0.00    -0.326 N 
ATOM      7  N   UNL     1      -5.525 -13.043  18.174  0.00  0.00    -0.240 NA
ATOM     19  C   UNL     1      -4.413 -11.415  16.773  0.00  0.00    +0.062 A 
ATOM     20  C   UNL     1      -4.776 -12.712  17.097  0.00  0.00    +0.130 A 
ATOM     21  C   UNL     1      -4.847 -10.391  17.607  0.00  0.00    +0.016 A 
ATOM     22  C   UNL     1      -5.620 -10.691  18.724  0.00  0.00    +0.020 A 
ATOM     24  C   UNL     1      -5.929 -12.020  18.961  0.00  0.00    +0.113 A 
ATOM     27  H   UNL     1      -3.523 -13.582  15.688  0.00  0.00    +0.148 HD
BRANCH   6  23
ATOM     23  C   UNL     1      -4.666 -15.135  16.510  0.00  0.00    +0.131 C 
BRANCH  23  25
ATOM     25  C   UNL     1      -4.260 -15.994  15.324  0.00  0.00    +0.178 C 
BRANCH  25   2
ATOM      2  O   UNL     1      -2.882 -15.788  15.041  0.00  0.00    -0.381 OA
ATOM     26  C   UNL     1      -2.078 -16.827  15.582  0.00  0.00    +0.194 C 
ENDBRANCH  25   2
ENDBRANCH  23  25
ENDBRANCH   6  23
ENDBRANCH  18  19
BRANCH  14   8
ATOM      3  N   UNL     1      -3.982 -10.210  11.446  0.00  0.00    -0.291 NA
ATOM      8  C   UNL     1      -2.873 -10.895  12.139  0.00  0.00    +0.146 C 
ATOM      9  C   UNL     1      -1.608 -10.138  11.697  0.00  0.00    +0.030 C 
ATOM     10  C   UNL     1      -3.418  -9.645  10.221  0.00  0.00    +0.085 C 
ATOM     12  C   UNL     1      -2.098  -9.086  10.712  0.00  0.00    +0.017 C 
BRANCH   3  11
ATOM     11  C   UNL     1      -5.117 -11.082  11.176  0.00  0.00    +0.091 C 
BRANCH  11  13
ATOM     13  C   UNL     1      -6.486 -10.485  11.591  0.00  0.00    -0.025 C 
ATOM     15  C   UNL     1      -7.235 -11.535  12.436  0.00  0.00    +0.012 C 
ATOM     16  C   UNL     1      -7.345 -10.147  10.360  0.00  0.00    +0.012 C 
ATOM     17  C   UNL     1      -6.295  -9.216  12.439  0.00  0.00    +0.012 C 
ENDBRANCH  11  13
ENDBRANCH   3  11
ENDBRANCH  14   8
TORSDOF 7
ENDMDL
MODEL 7
REMARK VINA RESULT:      -5.5      2.125      2.860
REMARK  Name = 45783388
REMARK  11 active torsions:
REMARK  status: ('A' for Active; 'I' for Inactive)
REMARK    1  A    between atoms: O_2  and  C_25
REMARK    2  A    between atoms: O_2  and  C_26
REMARK    3  A    between atoms: N_3  and  C_11
REMARK    4  A    between atoms: N_6  and  C_23
REMARK    5  A    between atoms: C_8  and  C_14
REMARK    6  A    between atoms: C_11  and  C_13
REMARK    7  A    between atoms: C_13  and  C_15
REMARK    8  A    between atoms: C_13  and  C_16
REMARK    9  A    between atoms: C_13  and  C_17
REMARK   10  A    between atoms: C_18  and  C_19
REMARK   11  A    between atoms: C_23  and  C_25
REMARK                            x       y       z     vdW  Elec       q    Type
REMARK                         _______ _______ _______ _____ _____    ______ ____
ROOT
ATOM      1  O   UNL     1      11.598   6.077   1.669  0.00  0.00    -0.336 OA
ATOM      4  N   UNL     1      11.204   4.652   3.353  0.00  0.00    -0.190 NA
ATOM      5  N   UNL     1      11.015   6.835   2.694  0.00  0.00    -0.056 NA
ATOM     14  C   UNL     1      11.672   4.804   2.139  0.00  0.00    +0.245 A 
ATOM     18  C   UNL     1      10.813   5.925   3.651  0.00  0.00    +0.205 A 
ENDROOT
BRANCH  18  19
ATOM      6  N   UNL     1      12.385   6.499   5.946  0.00  0.00    -0.326 N 
ATOM      7  N   UNL     1      10.441   6.849   7.248  0.00  0.00    -0.240 NA
ATOM     19  C   UNL     1      10.220   6.254   4.915  0.00  0.00    +0.062 A 
ATOM     20  C   UNL     1      10.971   6.536   6.044  0.00  0.00    +0.130 A 
ATOM     21  C   UNL     1       8.835   6.295   5.028  0.00  0.00    +0.016 A 
ATOM     22  C   UNL     1       8.252   6.613   6.250  0.00  0.00    +0.020 A 
ATOM     24  C   UNL     1       9.091   6.879   7.320  0.00  0.00    +0.113 A 
ATOM     27  H   UNL     1      12.774   6.619   5.016  0.00  0.00    +0.148 HD
BRANCH   6  23
ATOM     23  C   UNL     1      13.241   6.774   7.054  0.00  0.00    +0.131 C 
BRANCH  23  25
ATOM     25  C   UNL     1      14.036   8.043   6.794  0.00  0.00    +0.178 C 
BRANCH  25   2
ATOM      2  O   UNL     1      14.998   7.798   5.775  0.00  0.00    -0.381 OA
ATOM     26  C   UNL     1      16.233   8.439   6.061  0.00  0.00    +0.194 C 
ENDBRANCH  25   2
ENDBRANCH  23  25
ENDBRANCH   6  23
ENDBRANCH  18  19
BRANCH  14   8
ATOM      3  N   UNL     1      12.308   4.230  -0.198  0.00  0.00    -0.291 NA
ATOM      8  C   UNL     1      12.274   3.774   1.206  0.00  0.00    +0.146 C 
ATOM      9  C   UNL     1      13.739   3.448   1.548  0.00  0.00    +0.030 C 
ATOM     10  C   UNL     1      13.454   3.568  -0.819  0.00  0.00    +0.085 C 
ATOM     12  C   UNL     1      14.511   3.693   0.258  0.00  0.00    +0.017 C 
BRANCH   3  11
ATOM     11  C   UNL     1      11.067   3.970  -0.916  0.00  0.00    +0.091 C 
BRANCH  11  13
ATOM     13  C   UNL     1      10.679   5.077  -1.928  0.00  0.00    -0.025 C 
ATOM     15  C   UNL     1      10.928   4.541  -3.351  0.00  0.00    +0.012 C 
ATOM     16  C   UNL     1      11.531   6.343  -1.727  0.00  0.00    +0.012 C 
ATOM     17  C   UNL     1       9.190   5.443  -1.795  0.00  0.00    +0.012 C 
ENDBRANCH  11  13
ENDBRANCH   3  11
ENDBRANCH  14   8
TORSDOF 7
ENDMDL
MODEL 8
REMARK VINA RESULT:      -5.3     24.264     27.433
REMARK  Name = 45783388
REMARK  11 active torsions:
REMARK  status: ('A' for Active; 'I' for Inactive)
REMARK    1  A    between atoms: O_2  and  C_25
REMARK    2  A    between atoms: O_2  and  C_26
REMARK    3  A    between atoms: N_3  and  C_11
REMARK    4  A    between atoms: N_6  and  C_23
REMARK    5  A    between atoms: C_8  and  C_14
REMARK    6  A    between atoms: C_11  and  C_13
REMARK    7  A    between atoms: C_13  and  C_15
REMARK    8  A    between atoms: C_13  and  C_16
REMARK    9  A    between atoms: C_13  and  C_17
REMARK   10  A    between atoms: C_18  and  C_19
REMARK   11  A    between atoms: C_23  and  C_25
REMARK                            x       y       z     vdW  Elec       q    Type
REMARK                         _______ _______ _______ _____ _____    ______ ____
ROOT
ATOM      1  O   UNL     1      -4.987  -9.580  16.267  0.00  0.00    -0.336 OA
ATOM      4  N   UNL     1      -5.576 -11.586  17.070  0.00  0.00    -0.190 NA
ATOM      5  N   UNL     1      -6.183  -9.382  16.969  0.00  0.00    -0.056 NA
ATOM     14  C   UNL     1      -4.701 -10.904  16.375  0.00  0.00    +0.245 A 
ATOM     18  C   UNL     1      -6.467 -10.611  17.413  0.00  0.00    +0.205 A 
ENDROOT
BRANCH  18  19
ATOM      6  N   UNL     1      -8.756  -8.929  17.379  0.00  0.00    -0.326 N 
ATOM      7  N   UNL     1      -9.868 -10.333  18.925  0.00  0.00    -0.240 NA
ATOM     19  C   UNL     1      -7.631 -10.897  18.199  0.00  0.00    +0.062 A 
ATOM     20  C   UNL     1      -8.756 -10.088  18.195  0.00  0.00    +0.130 A 
ATOM     21  C   UNL     1      -7.648 -12.030  19.005  0.00  0.00    +0.016 A 
ATOM     22  C   UNL     1      -8.773 -12.316  19.770  0.00  0.00    +0.020 A 
ATOM     24  C   UNL     1      -9.847 -11.444  19.696  0.00  0.00    +0.113 A 
ATOM     27  H   UNL     1      -8.111  -8.932  16.595  0.00  0.00    +0.148 HD
BRANCH   6  23
ATOM     23  C   UNL     1      -9.866  -8.037  17.310  0.00  0.00    +0.131 C 
BRANCH  23  25
ATOM     25  C   UNL     1     -10.074  -7.575  15.876  0.00  0.00    +0.178 C 
BRANCH  25   2
ATOM      2  O   UNL     1     -10.427  -6.198  15.869  0.00  0.00    -0.381 OA
ATOM     26  C   UNL     1     -11.590  -5.963  15.089  0.00  0.00    +0.194 C 
ENDBRANCH  25   2
ENDBRANCH  23  25
ENDBRANCH   6  23
ENDBRANCH  18  19
BRANCH  14   8
ATOM      3  N   UNL     1      -3.380 -10.991  14.268  0.00  0.00    -0.291 NA
ATOM      8  C   UNL     1      -3.436 -11.380  15.691  0.00  0.00    +0.146 C 
ATOM      9  C   UNL     1      -2.163 -10.778  16.312  0.00  0.00    +0.030 C 
ATOM     10  C   UNL     1      -1.964 -10.849  13.934  0.00  0.00    +0.085 C 
ATOM     12  C   UNL     1      -1.426 -10.125  15.151  0.00  0.00    +0.017 C 
BRANCH   3  11
ATOM     11  C   UNL     1      -4.059 -11.934  13.388  0.00  0.00    +0.091 C 
BRANCH  11  13
ATOM     13  C   UNL     1      -4.935 -11.263  12.299  0.00  0.00    -0.025 C 
ATOM     15  C   UNL     1      -6.102 -12.213  11.964  0.00  0.00    +0.012 C 
ATOM     16  C   UNL     1      -4.129 -11.007  11.013  0.00  0.00    +0.012 C 
ATOM     17  C   UNL     1      -5.515  -9.931  12.806  0.00  0.00    +0.012 C 
ENDBRANCH  11  13
ENDBRANCH   3  11
ENDBRANCH  14   8
TORSDOF 7
ENDMDL
MODEL 9
REMARK VINA RESULT:      -5.3     22.888     26.173
REMARK  Name = 45783388
REMARK  11 active torsions:
REMARK  status: ('A' for Active; 'I' for Inactive)
REMARK    1  A    between atoms: O_2  and  C_25
REMARK    2  A    between atoms: O_2  and  C_26
REMARK    3  A    between atoms: N_3  and  C_11
REMARK    4  A    between atoms: N_6  and  C_23
REMARK    5  A    between atoms: C_8  and  C_14
REMARK    6  A    between atoms: C_11  and  C_13
REMARK    7  A    between atoms: C_13  and  C_15
REMARK    8  A    between atoms: C_13  and  C_16
REMARK    9  A    between atoms: C_13  and  C_17
REMARK   10  A    between atoms: C_18  and  C_19
REMARK   11  A    between atoms: C_23  and  C_25
REMARK                            x       y       z     vdW  Elec       q    Type
REMARK                         _______ _______ _______ _____ _____    ______ ____
ROOT
ATOM      1  O   UNL     1      -5.389 -12.298  13.319  0.00  0.00    -0.336 OA
ATOM      4  N   UNL     1      -4.026 -11.099  14.633  0.00  0.00    -0.190 NA
ATOM      5  N   UNL     1      -5.954 -12.332  14.600  0.00  0.00    -0.056 NA
ATOM     14  C   UNL     1      -4.257 -11.553  13.426  0.00  0.00    +0.245 A 
ATOM     18  C   UNL     1      -5.094 -11.603  15.318  0.00  0.00    +0.205 A 
ENDROOT
BRANCH  18  19
ATOM      6  N   UNL     1      -7.167  -9.933  16.308  0.00  0.00    -0.326 N 
ATOM      7  N   UNL     1      -6.465 -10.304  18.536  0.00  0.00    -0.240 NA
ATOM     19  C   UNL     1      -5.270 -11.361  16.720  0.00  0.00    +0.062 A 
ATOM     20  C   UNL     1      -6.275 -10.550  17.220  0.00  0.00    +0.130 A 
ATOM     21  C   UNL     1      -4.403 -11.959  17.629  0.00  0.00    +0.016 A 
ATOM     22  C   UNL     1      -4.567 -11.730  18.991  0.00  0.00    +0.020 A 
ATOM     24  C   UNL     1      -5.604 -10.902  19.390  0.00  0.00    +0.113 A 
ATOM     27  H   UNL     1      -7.257 -10.376  15.399  0.00  0.00    +0.148 HD
BRANCH   6  23
ATOM     23  C   UNL     1      -8.231  -9.082  16.729  0.00  0.00    +0.131 C 
BRANCH  23  25
ATOM     25  C   UNL     1      -9.567  -9.779  16.524  0.00  0.00    +0.178 C 
BRANCH  25   2
ATOM      2  O   UNL     1     -10.567  -8.810  16.236  0.00  0.00    -0.381 OA
ATOM     26  C   UNL     1     -10.434  -7.663  17.063  0.00  0.00    +0.194 C 
ENDBRANCH  25   2
ENDBRANCH  23  25
ENDBRANCH   6  23
ENDBRANCH  18  19
BRANCH  14   8
ATOM      3  N   UNL     1      -3.892 -10.190  11.376  0.00  0.00    -0.291 NA
ATOM      8  C   UNL     1      -3.451 -11.362  12.158  0.00  0.00    +0.146 C 
ATOM      9  C   UNL     1      -1.959 -11.110  12.435  0.00  0.00    +0.030 C 
ATOM     10  C   UNL     1      -2.713  -9.706  10.658  0.00  0.00    +0.085 C 
ATOM     12  C   UNL     1      -1.637  -9.805  11.719  0.00  0.00    +0.017 C 
BRANCH   3  11
ATOM     11  C   UNL     1      -5.000 -10.484  10.476  0.00  0.00    +0.091 C 
BRANCH  11  13
ATOM     13  C   UNL     1      -6.217  -9.538  10.643  0.00  0.00    -0.025 C 
ATOM     15  C   UNL     1      -6.105  -8.417   9.591  0.00  0.00    +0.012 C 
ATOM     16  C   UNL     1      -6.238  -8.895  12.041  0.00  0.00    +0.012 C 
ATOM     17  C   UNL     1      -7.536 -10.297  10.415  0.00  0.00    +0.012 C 
ENDBRANCH  11  13
ENDBRANCH   3  11
ENDBRANCH  14   8
TORSDOF 7
ENDMDL
MODEL 10
REMARK VINA RESULT:      -5.3     26.278     29.454
REMARK  Name = 45783388
REMARK  11 active torsions:
REMARK  status: ('A' for Active; 'I' for Inactive)
REMARK    1  A    between atoms: O_2  and  C_25
REMARK    2  A    between atoms: O_2  and  C_26
REMARK    3  A    between atoms: N_3  and  C_11
REMARK    4  A    between atoms: N_6  and  C_23
REMARK    5  A    between atoms: C_8  and  C_14
REMARK    6  A    between atoms: C_11  and  C_13
REMARK    7  A    between atoms: C_13  and  C_15
REMARK    8  A    between atoms: C_13  and  C_16
REMARK    9  A    between atoms: C_13  and  C_17
REMARK   10  A    between atoms: C_18  and  C_19
REMARK   11  A    between atoms: C_23  and  C_25
REMARK                            x       y       z     vdW  Elec       q    Type
REMARK                         _______ _______ _______ _____ _____    ______ ____
ROOT
ATOM      1  O   UNL     1      -8.280 -10.819  15.373  0.00  0.00    -0.336 OA
ATOM      4  N   UNL     1      -8.123  -9.755  17.338  0.00  0.00    -0.190 NA
ATOM      5  N   UNL     1      -9.537 -10.937  15.981  0.00  0.00    -0.056 NA
ATOM     14  C   UNL     1      -7.508 -10.110  16.238  0.00  0.00    +0.245 A 
ATOM     18  C   UNL     1      -9.364 -10.285  17.135  0.00  0.00    +0.205 A 
ENDROOT
BRANCH  18  19
ATOM      6  N   UNL     1     -11.943  -9.316  16.443  0.00  0.00    -0.326 N 
ATOM      7  N   UNL     1     -12.677  -9.534  18.681  0.00  0.00    -0.240 NA
ATOM     19  C   UNL     1     -10.409 -10.146  18.107  0.00  0.00    +0.062 A 
ATOM     20  C   UNL     1     -11.672  -9.676  17.787  0.00  0.00    +0.130 A 
ATOM     21  C   UNL     1     -10.161 -10.495  19.430  0.00  0.00    +0.016 A 
ATOM     22  C   UNL     1     -11.169 -10.364  20.379  0.00  0.00    +0.020 A 
ATOM     24  C   UNL     1     -12.398  -9.883  19.957  0.00  0.00    +0.113 A 
ATOM     27  H   UNL     1     -11.349  -9.738  15.736  0.00  0.00    +0.148 HD
BRANCH   6  23
ATOM     23  C   UNL     1     -13.212  -8.821  16.019  0.00  0.00    +0.131 C 
BRANCH  23  25
ATOM     25  C   UNL     1     -13.055  -7.435  15.416  0.00  0.00    +0.178 C 
BRANCH  25   2
ATOM      2  O   UNL     1     -11.980  -6.759  16.056  0.00  0.00    -0.381 OA
ATOM     26  C   UNL     1     -11.336  -5.852  15.174  0.00  0.00    +0.194 C 
ENDBRANCH  25   2
ENDBRANCH  23  25
ENDBRANCH   6  23
ENDBRANCH  18  19
BRANCH  14   8
ATOM      3  N   UNL     1      -5.134 -10.852  16.319  0.00  0.00    -0.291 NA
ATOM      8  C   UNL     1      -6.081  -9.843  15.805  0.00  0.00    +0.146 C 
ATOM      9  C   UNL     1      -5.907  -9.883  14.277  0.00  0.00    +0.030 C 
ATOM     10  C   UNL     1      -4.046 -10.930  15.345  0.00  0.00    +0.085 C 
ATOM     12  C   UNL     1      -4.799 -10.898  14.030  0.00  0.00    +0.017 C 
BRANCH   3  11
ATOM     11  C   UNL     1      -4.649 -10.554  17.660  0.00  0.00    +0.091 C 
BRANCH  11  13
ATOM     13  C   UNL     1      -4.978 -11.648  18.708  0.00  0.00    -0.025 C 
ATOM     15  C   UNL     1      -5.654 -12.826  17.980  0.00  0.00    +0.012 C 
ATOM     16  C   UNL     1      -5.942 -11.119  19.784  0.00  0.00    +0.012 C 
ATOM     17  C   UNL     1      -3.695 -12.160  19.386  0.00  0.00    +0.012 C 
ENDBRANCH  11  13
ENDBRANCH   3  11
ENDBRANCH  14   8
TORSDOF 7
ENDMDL
