MODEL 1
REMARK VINA RESULT:      -6.5      0.000      0.000
REMARK  Name = 38027656
REMARK  13 active torsions:
REMARK  status: ('A' for Active; 'I' for Inactive)
REMARK    1  A    between atoms: O_3  and  C_23
REMARK    2  A    between atoms: O_3  and  C_28
REMARK    3  A    between atoms: N_4  and  C_14
REMARK    4  A    between atoms: N_5  and  C_21
REMARK    5  A    between atoms: C_7  and  C_11
REMARK    6  A    between atoms: C_8  and  C_14
REMARK    7  A    between atoms: C_10  and  C_15
REMARK    8  A    between atoms: C_11  and  C_16
REMARK    9  A    between atoms: C_11  and  C_17
REMARK   10  A    between atoms: C_12  and  C_18
REMARK   11  A    between atoms: C_15  and  C_19
REMARK   12  A    between atoms: C_20  and  C_22
REMARK   13  A    between atoms: C_21  and  C_23
REMARK                            x       y       z     vdW  Elec       q    Type
REMARK                         _______ _______ _______ _____ _____    ______ ____
ROOT
ATOM      7  C   UNL     1      12.292   8.509  20.593  0.00  0.00    +0.000 C 
ATOM      8  C   UNL     1      12.858   8.152  19.197  0.00  0.00    +0.032 C 
ATOM      9  C   UNL     1      11.831   9.975  20.625  0.00  0.00    +0.012 C 
ATOM     10  C   UNL     1      12.973  10.953  20.296  0.00  0.00    +0.023 C 
ATOM     12  C   UNL     1      13.754  10.517  19.074  0.00  0.00    -0.073 C 
ATOM     13  C   UNL     1      13.680   9.265  18.588  0.00  0.00    -0.022 C 
ATOM     18  C   UNL     1      14.588  11.566  18.393  0.00  0.00    +0.039 C 
ENDROOT
BRANCH   7  11
ATOM     11  C   UNL     1      11.133   7.591  20.990  0.00  0.00    -0.013 C 
ATOM     16  C   UNL     1      11.659   6.225  21.421  0.00  0.00    +0.007 C 
ATOM     17  C   UNL     1      10.307   8.228  22.103  0.00  0.00    +0.007 C 
ENDBRANCH   7  11
BRANCH   8  14
ATOM     14  C   UNL     1      13.697   6.869  19.251  0.00  0.00    +0.112 C 
BRANCH  14   4
ATOM      2  O   UNL     1      16.246   5.767  18.524  0.00  0.00    -0.270 OA
ATOM      4  N   UNL     1      14.947   7.108  19.902  0.00  0.00    -0.311 N 
ATOM     20  C   UNL     1      16.144   6.528  19.481  0.00  0.00    +0.244 C 
ATOM     29  H   UNL     1      14.958   7.797  20.646  0.00  0.00    +0.149 HD
BRANCH  20  22
ATOM      6  N   UNL     1      19.629   7.477  21.779  0.00  0.00    -0.263 NA
ATOM     22  C   UNL     1      17.353   6.856  20.279  0.00  0.00    +0.040 A 
ATOM     24  C   UNL     1      17.375   7.996  21.075  0.00  0.00    +0.033 A 
ATOM     25  C   UNL     1      18.467   6.026  20.232  0.00  0.00    +0.033 A 
ATOM     26  C   UNL     1      18.527   8.260  21.798  0.00  0.00    +0.111 A 
ATOM     27  C   UNL     1      19.570   6.378  20.994  0.00  0.00    +0.111 A 
ENDBRANCH  20  22
ENDBRANCH  14   4
ENDBRANCH   8  14
BRANCH  10  15
ATOM     15  C   UNL     1      13.902  11.143  21.501  0.00  0.00    +0.103 C 
BRANCH  15  19
ATOM      1  O   UNL     1      12.896  13.139  22.429  0.00  0.00    -0.276 OA
ATOM      5  N   UNL     1      13.147  11.255  23.767  0.00  0.00    -0.313 N 
ATOM     19  C   UNL     1      13.260  11.976  22.587  0.00  0.00    +0.214 C 
ATOM     30  H   UNL     1      13.479  10.296  23.802  0.00  0.00    +0.149 HD
BRANCH   5  21
ATOM     21  C   UNL     1      12.572  11.801  24.974  0.00  0.00    +0.132 C 
BRANCH  21  23
ATOM     23  C   UNL     1      11.122  11.384  25.140  0.00  0.00    +0.178 C 
BRANCH  23   3
ATOM      3  O   UNL     1      10.274  12.421  24.665  0.00  0.00    -0.381 OA
ATOM     28  C   UNL     1      10.494  13.637  25.366  0.00  0.00    +0.194 C 
ENDBRANCH  23   3
ENDBRANCH  21  23
ENDBRANCH   5  21
ENDBRANCH  15  19
ENDBRANCH  10  15
TORSDOF 9
ENDMDL
MODEL 2
REMARK VINA RESULT:      -6.2     26.698     29.217
REMARK  Name = 38027656
REMARK  13 active torsions:
REMARK  status: ('A' for Active; 'I' for Inactive)
REMARK    1  A    between atoms: O_3  and  C_23
REMARK    2  A    between atoms: O_3  and  C_28
REMARK    3  A    between atoms: N_4  and  C_14
REMARK    4  A    between atoms: N_5  and  C_21
REMARK    5  A    between atoms: C_7  and  C_11
REMARK    6  A    between atoms: C_8  and  C_14
REMARK    7  A    between atoms: C_10  and  C_15
REMARK    8  A    between atoms: C_11  and  C_16
REMARK    9  A    between atoms: C_11  and  C_17
REMARK   10  A    between atoms: C_12  and  C_18
REMARK   11  A    between atoms: C_15  and  C_19
REMARK   12  A    between atoms: C_20  and  C_22
REMARK   13  A    between atoms: C_21  and  C_23
REMARK                            x       y       z     vdW  Elec       q    Type
REMARK                         _______ _______ _______ _____ _____    ______ ____
ROOT
ATOM      7  C   UNL     1      -3.168 -12.199  12.556  0.00  0.00    +0.000 C 
ATOM      8  C   UNL     1      -2.070 -11.113  12.440  0.00  0.00    +0.032 C 
ATOM      9  C   UNL     1      -3.745 -12.528  11.171  0.00  0.00    +0.012 C 
ATOM     10  C   UNL     1      -4.352 -11.291  10.482  0.00  0.00    +0.023 C 
ATOM     12  C   UNL     1      -3.429 -10.093  10.563  0.00  0.00    -0.073 C 
ATOM     13  C   UNL     1      -2.406 -10.036  11.435  0.00  0.00    -0.022 C 
ATOM     18  C   UNL     1      -3.680  -8.977   9.587  0.00  0.00    +0.039 C 
ENDROOT
BRANCH   7  11
ATOM     11  C   UNL     1      -2.640 -13.476  13.216  0.00  0.00    -0.013 C 
ATOM     16  C   UNL     1      -3.577 -13.927  14.331  0.00  0.00    +0.007 C 
ATOM     17  C   UNL     1      -2.466 -14.579  12.176  0.00  0.00    +0.007 C 
ENDBRANCH   7  11
BRANCH   8  14
ATOM     14  C   UNL     1      -1.783 -10.469  13.802  0.00  0.00    +0.112 C 
BRANCH  14   4
ATOM      2  O   UNL     1      -2.120 -10.977  16.607  0.00  0.00    -0.270 OA
ATOM      4  N   UNL     1      -2.987 -10.320  14.557  0.00  0.00    -0.311 N 
ATOM     20  C   UNL     1      -3.063 -10.590  15.924  0.00  0.00    +0.244 C 
ATOM     29  H   UNL     1      -3.786  -9.918  14.080  0.00  0.00    +0.149 HD
BRANCH  20  22
ATOM      6  N   UNL     1      -6.901 -10.080  17.750  0.00  0.00    -0.263 NA
ATOM     22  C   UNL     1      -4.394 -10.411  16.558  0.00  0.00    +0.040 A 
ATOM     24  C   UNL     1      -4.609 -10.842  17.862  0.00  0.00    +0.033 A 
ATOM     25  C   UNL     1      -5.431  -9.816  15.848  0.00  0.00    +0.033 A 
ATOM     26  C   UNL     1      -5.869 -10.655  18.407  0.00  0.00    +0.111 A 
ATOM     27  C   UNL     1      -6.655  -9.675  16.484  0.00  0.00    +0.111 A 
ENDBRANCH  20  22
ENDBRANCH  14   4
ENDBRANCH   8  14
BRANCH  10  15
ATOM     15  C   UNL     1      -5.733 -10.961  11.059  0.00  0.00    +0.103 C 
BRANCH  15  19
ATOM      1  O   UNL     1      -6.962 -11.161   8.984  0.00  0.00    -0.276 OA
ATOM      5  N   UNL     1      -7.238  -9.265  10.301  0.00  0.00    -0.313 N 
ATOM     19  C   UNL     1      -6.701 -10.506   9.990  0.00  0.00    +0.214 C 
ATOM     30  H   UNL     1      -6.959  -8.798  11.158  0.00  0.00    +0.149 HD
BRANCH   5  21
ATOM     21  C   UNL     1      -8.193  -8.584   9.456  0.00  0.00    +0.132 C 
BRANCH  21  23
ATOM     23  C   UNL     1      -7.505  -7.837   8.328  0.00  0.00    +0.178 C 
BRANCH  23   3
ATOM      3  O   UNL     1      -7.951  -6.487   8.315  0.00  0.00    -0.381 OA
ATOM     28  C   UNL     1      -9.219  -6.363   7.688  0.00  0.00    +0.194 C 
ENDBRANCH  23   3
ENDBRANCH  21  23
ENDBRANCH   5  21
ENDBRANCH  15  19
ENDBRANCH  10  15
TORSDOF 9
ENDMDL
MODEL 3
REMARK VINA RESULT:      -6.0      3.022      5.566
REMARK  Name = 38027656
REMARK  13 active torsions:
REMARK  status: ('A' for Active; 'I' for Inactive)
REMARK    1  A    between atoms: O_3  and  C_23
REMARK    2  A    between atoms: O_3  and  C_28
REMARK    3  A    between atoms: N_4  and  C_14
REMARK    4  A    between atoms: N_5  and  C_21
REMARK    5  A    between atoms: C_7  and  C_11
REMARK    6  A    between atoms: C_8  and  C_14
REMARK    7  A    between atoms: C_10  and  C_15
REMARK    8  A    between atoms: C_11  and  C_16
REMARK    9  A    between atoms: C_11  and  C_17
REMARK   10  A    between atoms: C_12  and  C_18
REMARK   11  A    between atoms: C_15  and  C_19
REMARK   12  A    between atoms: C_20  and  C_22
REMARK   13  A    between atoms: C_21  and  C_23
REMARK                            x       y       z     vdW  Elec       q    Type
REMARK                         _______ _______ _______ _____ _____    ______ ____
ROOT
ATOM      7  C   UNL     1      13.445   9.141  20.433  0.00  0.00    +0.000 C 
ATOM      8  C   UNL     1      12.658   7.952  19.827  0.00  0.00    +0.032 C 
ATOM      9  C   UNL     1      12.989  10.464  19.799  0.00  0.00    +0.012 C 
ATOM     10  C   UNL     1      13.184  10.477  18.272  0.00  0.00    +0.023 C 
ATOM     12  C   UNL     1      12.669   9.206  17.627  0.00  0.00    -0.073 C 
ATOM     13  C   UNL     1      12.427   8.092  18.340  0.00  0.00    -0.022 C 
ATOM     18  C   UNL     1      12.395   9.259  16.150  0.00  0.00    +0.039 C 
ENDROOT
BRANCH   7  11
ATOM     11  C   UNL     1      13.288   9.211  21.954  0.00  0.00    -0.013 C 
ATOM     16  C   UNL     1      14.454   9.973  22.576  0.00  0.00    +0.007 C 
ATOM     17  C   UNL     1      11.959   9.865  22.321  0.00  0.00    +0.007 C 
ENDBRANCH   7  11
BRANCH   8  14
ATOM     14  C   UNL     1      13.362   6.620  20.111  0.00  0.00    +0.112 C 
BRANCH  14   4
ATOM      2  O   UNL     1      15.717   6.217  18.519  0.00  0.00    -0.270 OA
ATOM      4  N   UNL     1      14.715   6.838  20.518  0.00  0.00    -0.311 N 
ATOM     20  C   UNL     1      15.805   6.616  19.676  0.00  0.00    +0.244 C 
ATOM     29  H   UNL     1      14.863   7.253  21.431  0.00  0.00    +0.149 HD
BRANCH  20  22
ATOM      6  N   UNL     1      19.679   7.336  21.349  0.00  0.00    -0.263 NA
ATOM     22  C   UNL     1      17.149   6.864  20.258  0.00  0.00    +0.040 A 
ATOM     24  C   UNL     1      17.352   7.945  21.109  0.00  0.00    +0.033 A 
ATOM     25  C   UNL     1      18.210   6.019  19.951  0.00  0.00    +0.033 A 
ATOM     26  C   UNL     1      18.624   8.135  21.624  0.00  0.00    +0.111 A 
ATOM     27  C   UNL     1      19.444   6.297  20.518  0.00  0.00    +0.111 A 
ENDBRANCH  20  22
ENDBRANCH  14   4
ENDBRANCH   8  14
BRANCH  10  15
ATOM     15  C   UNL     1      14.651  10.724  17.904  0.00  0.00    +0.103 C 
BRANCH  15  19
ATOM      1  O   UNL     1      14.484  12.986  17.063  0.00  0.00    -0.276 OA
ATOM      5  N   UNL     1      15.341  11.315  15.693  0.00  0.00    -0.313 N 
ATOM     19  C   UNL     1      14.803  11.815  16.870  0.00  0.00    +0.214 C 
ATOM     30  H   UNL     1      15.572  10.328  15.627  0.00  0.00    +0.149 HD
BRANCH   5  21
ATOM     21  C   UNL     1      15.595  12.134  14.530  0.00  0.00    +0.132 C 
BRANCH  21  23
ATOM     23  C   UNL     1      14.373  12.226  13.635  0.00  0.00    +0.178 C 
BRANCH  23   3
ATOM      3  O   UNL     1      14.722  11.829  12.315  0.00  0.00    -0.381 OA
ATOM     28  C   UNL     1      16.113  11.983  12.076  0.00  0.00    +0.194 C 
ENDBRANCH  23   3
ENDBRANCH  21  23
ENDBRANCH   5  21
ENDBRANCH  15  19
ENDBRANCH  10  15
TORSDOF 9
ENDMDL
MODEL 4
REMARK VINA RESULT:      -6.0     26.682     29.622
REMARK  Name = 38027656
REMARK  13 active torsions:
REMARK  status: ('A' for Active; 'I' for Inactive)
REMARK    1  A    between atoms: O_3  and  C_23
REMARK    2  A    between atoms: O_3  and  C_28
REMARK    3  A    between atoms: N_4  and  C_14
REMARK    4  A    between atoms: N_5  and  C_21
REMARK    5  A    between atoms: C_7  and  C_11
REMARK    6  A    between atoms: C_8  and  C_14
REMARK    7  A    between atoms: C_10  and  C_15
REMARK    8  A    between atoms: C_11  and  C_16
REMARK    9  A    between atoms: C_11  and  C_17
REMARK   10  A    between atoms: C_12  and  C_18
REMARK   11  A    between atoms: C_15  and  C_19
REMARK   12  A    between atoms: C_20  and  C_22
REMARK   13  A    between atoms: C_21  and  C_23
REMARK                            x       y       z     vdW  Elec       q    Type
REMARK                         _______ _______ _______ _____ _____    ______ ____
ROOT
ATOM      7  C   UNL     1      -3.101 -12.208  12.710  0.00  0.00    +0.000 C 
ATOM      8  C   UNL     1      -2.005 -11.114  12.656  0.00  0.00    +0.032 C 
ATOM      9  C   UNL     1      -3.583 -12.552  11.292  0.00  0.00    +0.012 C 
ATOM     10  C   UNL     1      -4.153 -11.325  10.556  0.00  0.00    +0.023 C 
ATOM     12  C   UNL     1      -3.246 -10.119  10.687  0.00  0.00    -0.073 C 
ATOM     13  C   UNL     1      -2.283 -10.048  11.622  0.00  0.00    -0.022 C 
ATOM     18  C   UNL     1      -3.441  -9.013   9.687  0.00  0.00    +0.039 C 
ENDROOT
BRANCH   7  11
ATOM     11  C   UNL     1      -2.606 -13.475  13.413  0.00  0.00    -0.013 C 
ATOM     16  C   UNL     1      -3.613 -13.926  14.466  0.00  0.00    +0.007 C 
ATOM     17  C   UNL     1      -2.355 -14.584  12.395  0.00  0.00    +0.007 C 
ENDBRANCH   7  11
BRANCH   8  14
ATOM     14  C   UNL     1      -1.811 -10.457  14.028  0.00  0.00    +0.112 C 
BRANCH  14   4
ATOM      2  O   UNL     1      -2.387 -11.048  16.778  0.00  0.00    -0.270 OA
ATOM      4  N   UNL     1      -3.066 -10.290  14.692  0.00  0.00    -0.311 N 
ATOM     20  C   UNL     1      -3.260 -10.603  16.038  0.00  0.00    +0.244 C 
ATOM     29  H   UNL     1      -3.811  -9.843  14.169  0.00  0.00    +0.149 HD
BRANCH  20  22
ATOM      6  N   UNL     1      -7.208 -10.004  17.579  0.00  0.00    -0.263 NA
ATOM     22  C   UNL     1      -4.630 -10.397  16.572  0.00  0.00    +0.040 A 
ATOM     24  C   UNL     1      -5.621  -9.855  15.762  0.00  0.00    +0.033 A 
ATOM     25  C   UNL     1      -4.926 -10.743  17.887  0.00  0.00    +0.033 A 
ATOM     26  C   UNL     1      -6.882  -9.679  16.309  0.00  0.00    +0.111 A 
ATOM     27  C   UNL     1      -6.219 -10.528  18.337  0.00  0.00    +0.111 A 
ENDBRANCH  20  22
ENDBRANCH  14   4
ENDBRANCH   8  14
BRANCH  10  15
ATOM     15  C   UNL     1      -5.571 -11.001  11.038  0.00  0.00    +0.103 C 
BRANCH  15  19
ATOM      1  O   UNL     1      -7.353  -9.707  10.036  0.00  0.00    -0.276 OA
ATOM      5  N   UNL     1      -6.150 -11.205   8.728  0.00  0.00    -0.313 N 
ATOM     19  C   UNL     1      -6.466 -10.547   9.908  0.00  0.00    +0.214 C 
ATOM     30  H   UNL     1      -5.399 -11.888   8.720  0.00  0.00    +0.149 HD
BRANCH   5  21
ATOM     21  C   UNL     1      -6.846 -10.971   7.483  0.00  0.00    +0.132 C 
BRANCH  21  23
ATOM     23  C   UNL     1      -5.915 -10.415   6.421  0.00  0.00    +0.178 C 
BRANCH  23   3
ATOM      3  O   UNL     1      -5.757 -11.373   5.382  0.00  0.00    -0.381 OA
ATOM     28  C   UNL     1      -4.406 -11.794   5.263  0.00  0.00    +0.194 C 
ENDBRANCH  23   3
ENDBRANCH  21  23
ENDBRANCH   5  21
ENDBRANCH  15  19
ENDBRANCH  10  15
TORSDOF 9
ENDMDL
MODEL 5
REMARK VINA RESULT:      -5.9      3.072      5.686
REMARK  Name = 38027656
REMARK  13 active torsions:
REMARK  status: ('A' for Active; 'I' for Inactive)
REMARK    1  A    between atoms: O_3  and  C_23
REMARK    2  A    between atoms: O_3  and  C_28
REMARK    3  A    between atoms: N_4  and  C_14
REMARK    4  A    between atoms: N_5  and  C_21
REMARK    5  A    between atoms: C_7  and  C_11
REMARK    6  A    between atoms: C_8  and  C_14
REMARK    7  A    between atoms: C_10  and  C_15
REMARK    8  A    between atoms: C_11  and  C_16
REMARK    9  A    between atoms: C_11  and  C_17
REMARK   10  A    between atoms: C_12  and  C_18
REMARK   11  A    between atoms: C_15  and  C_19
REMARK   12  A    between atoms: C_20  and  C_22
REMARK   13  A    between atoms: C_21  and  C_23
REMARK                            x       y       z     vdW  Elec       q    Type
REMARK                         _______ _______ _______ _____ _____    ______ ____
ROOT
ATOM      7  C   UNL     1      12.875   9.981  20.584  0.00  0.00    +0.000 C 
ATOM      8  C   UNL     1      11.972   8.833  20.068  0.00  0.00    +0.032 C 
ATOM      9  C   UNL     1      12.814  11.182  19.629  0.00  0.00    +0.012 C 
ATOM     10  C   UNL     1      13.259  10.815  18.201  0.00  0.00    +0.023 C 
ATOM     12  C   UNL     1      12.608   9.534  17.720  0.00  0.00    -0.073 C 
ATOM     13  C   UNL     1      12.026   8.667  18.567  0.00  0.00    -0.022 C 
ATOM     18  C   UNL     1      12.601   9.294  16.236  0.00  0.00    +0.039 C 
ENDROOT
BRANCH   7  11
ATOM     11  C   UNL     1      12.485  10.421  21.998  0.00  0.00    -0.013 C 
ATOM     16  C   UNL     1      13.689  11.012  22.724  0.00  0.00    +0.007 C 
ATOM     17  C   UNL     1      11.338  11.426  21.944  0.00  0.00    +0.007 C 
ENDBRANCH   7  11
BRANCH   8  14
ATOM     14  C   UNL     1      12.329   7.502  20.742  0.00  0.00    +0.112 C 
BRANCH  14   4
ATOM      2  O   UNL     1      14.743   7.629  22.290  0.00  0.00    -0.270 OA
ATOM      4  N   UNL     1      13.626   7.060  20.337  0.00  0.00    -0.311 N 
ATOM     20  C   UNL     1      14.751   7.160  21.156  0.00  0.00    +0.244 C 
ATOM     29  H   UNL     1      13.695   6.579  19.447  0.00  0.00    +0.149 HD
BRANCH  20  22
ATOM      6  N   UNL     1      18.442   5.770  19.492  0.00  0.00    -0.263 NA
ATOM     22  C   UNL     1      16.032   6.679  20.579  0.00  0.00    +0.040 A 
ATOM     24  C   UNL     1      16.084   6.248  19.258  0.00  0.00    +0.033 A 
ATOM     25  C   UNL     1      17.184   6.656  21.358  0.00  0.00    +0.033 A 
ATOM     26  C   UNL     1      17.302   5.806  18.767  0.00  0.00    +0.111 A 
ATOM     27  C   UNL     1      18.353   6.195  20.772  0.00  0.00    +0.111 A 
ENDBRANCH  20  22
ENDBRANCH  14   4
ENDBRANCH   8  14
BRANCH  10  15
ATOM     15  C   UNL     1      14.786  10.724  18.105  0.00  0.00    +0.103 C 
BRANCH  15  19
ATOM      1  O   UNL     1      15.574  12.995  17.832  0.00  0.00    -0.276 OA
ATOM      5  N   UNL     1      15.661  11.529  16.031  0.00  0.00    -0.313 N 
ATOM     19  C   UNL     1      15.378  11.886  17.341  0.00  0.00    +0.214 C 
ATOM     30  H   UNL     1      15.462  10.585  15.714  0.00  0.00    +0.149 HD
BRANCH   5  21
ATOM     21  C   UNL     1      16.233  12.443  15.069  0.00  0.00    +0.132 C 
BRANCH  21  23
ATOM     23  C   UNL     1      17.598  11.975  14.597  0.00  0.00    +0.178 C 
BRANCH  23   3
ATOM      3  O   UNL     1      18.577  12.313  15.571  0.00  0.00    -0.381 OA
ATOM     28  C   UNL     1      19.680  12.991  14.987  0.00  0.00    +0.194 C 
ENDBRANCH  23   3
ENDBRANCH  21  23
ENDBRANCH   5  21
ENDBRANCH  15  19
ENDBRANCH  10  15
TORSDOF 9
ENDMDL
MODEL 6
REMARK VINA RESULT:      -5.9      2.738      6.052
REMARK  Name = 38027656
REMARK  13 active torsions:
REMARK  status: ('A' for Active; 'I' for Inactive)
REMARK    1  A    between atoms: O_3  and  C_23
REMARK    2  A    between atoms: O_3  and  C_28
REMARK    3  A    between atoms: N_4  and  C_14
REMARK    4  A    between atoms: N_5  and  C_21
REMARK    5  A    between atoms: C_7  and  C_11
REMARK    6  A    between atoms: C_8  and  C_14
REMARK    7  A    between atoms: C_10  and  C_15
REMARK    8  A    between atoms: C_11  and  C_16
REMARK    9  A    between atoms: C_11  and  C_17
REMARK   10  A    between atoms: C_12  and  C_18
REMARK   11  A    between atoms: C_15  and  C_19
REMARK   12  A    between atoms: C_20  and  C_22
REMARK   13  A    between atoms: C_21  and  C_23
REMARK                            x       y       z     vdW  Elec       q    Type
REMARK                         _______ _______ _______ _____ _____    ______ ____
ROOT
ATOM      7  C   UNL     1      14.852  10.039  21.040  0.00  0.00    +0.000 C 
ATOM      8  C   UNL     1      16.363  10.338  21.195  0.00  0.00    +0.032 C 
ATOM      9  C   UNL     1      14.471   8.778  21.830  0.00  0.00    +0.012 C 
ATOM     10  C   UNL     1      15.263   7.540  21.370  0.00  0.00    +0.023 C 
ATOM     12  C   UNL     1      16.743   7.835  21.240  0.00  0.00    -0.073 C 
ATOM     13  C   UNL     1      17.218   9.092  21.177  0.00  0.00    -0.022 C 
ATOM     18  C   UNL     1      17.672   6.653  21.230  0.00  0.00    +0.039 C 
ENDROOT
BRANCH   7  11
ATOM     11  C   UNL     1      13.988  11.219  21.496  0.00  0.00    -0.013 C 
ATOM     16  C   UNL     1      12.725  11.314  20.647  0.00  0.00    +0.007 C 
ATOM     17  C   UNL     1      13.637  11.080  22.974  0.00  0.00    +0.007 C 
ENDBRANCH   7  11
BRANCH   8  14
ATOM     14  C   UNL     1      16.850  11.307  20.110  0.00  0.00    +0.112 C 
BRANCH  14   4
ATOM      2  O   UNL     1      15.491  13.295  18.547  0.00  0.00    -0.270 OA
ATOM      4  N   UNL     1      16.145  11.093  18.885  0.00  0.00    -0.311 N 
ATOM     20  C   UNL     1      15.509  12.121  18.187  0.00  0.00    +0.244 C 
ATOM     29  H   UNL     1      16.192  10.166  18.479  0.00  0.00    +0.149 HD
BRANCH  20  22
ATOM      6  N   UNL     1      13.459  10.994  14.603  0.00  0.00    -0.263 NA
ATOM     22  C   UNL     1      14.796  11.731  16.944  0.00  0.00    +0.040 A 
ATOM     24  C   UNL     1      14.150  10.503  16.867  0.00  0.00    +0.033 A 
ATOM     25  C   UNL     1      14.776  12.592  15.852  0.00  0.00    +0.033 A 
ATOM     26  C   UNL     1      13.502  10.185  15.684  0.00  0.00    +0.111 A 
ATOM     27  C   UNL     1      14.100  12.179  14.715  0.00  0.00    +0.111 A 
ENDBRANCH  20  22
ENDBRANCH  14   4
ENDBRANCH   8  14
BRANCH  10  15
ATOM     15  C   UNL     1      14.698   6.978  20.061  0.00  0.00    +0.103 C 
BRANCH  15  19
ATOM      1  O   UNL     1      12.465   7.346  19.206  0.00  0.00    -0.276 OA
ATOM      5  N   UNL     1      12.749   6.225  21.223  0.00  0.00    -0.313 N 
ATOM     19  C   UNL     1      13.190   6.887  20.085  0.00  0.00    +0.214 C 
ATOM     30  H   UNL     1      13.427   5.882  21.897  0.00  0.00    +0.149 HD
BRANCH   5  21
ATOM     21  C   UNL     1      11.352   5.994  21.510  0.00  0.00    +0.132 C 
BRANCH  21  23
ATOM     23  C   UNL     1      10.574   7.296  21.580  0.00  0.00    +0.178 C 
BRANCH  23   3
ATOM      3  O   UNL     1      11.038   8.066  22.681  0.00  0.00    -0.381 OA
ATOM     28  C   UNL     1      10.532   9.393  22.639  0.00  0.00    +0.194 C 
ENDBRANCH  23   3
ENDBRANCH  21  23
ENDBRANCH   5  21
ENDBRANCH  15  19
ENDBRANCH  10  15
TORSDOF 9
ENDMDL
MODEL 7
REMARK VINA RESULT:      -5.8     28.035     29.329
REMARK  Name = 38027656
REMARK  13 active torsions:
REMARK  status: ('A' for Active; 'I' for Inactive)
REMARK    1  A    between atoms: O_3  and  C_23
REMARK    2  A    between atoms: O_3  and  C_28
REMARK    3  A    between atoms: N_4  and  C_14
REMARK    4  A    between atoms: N_5  and  C_21
REMARK    5  A    between atoms: C_7  and  C_11
REMARK    6  A    between atoms: C_8  and  C_14
REMARK    7  A    between atoms: C_10  and  C_15
REMARK    8  A    between atoms: C_11  and  C_16
REMARK    9  A    between atoms: C_11  and  C_17
REMARK   10  A    between atoms: C_12  and  C_18
REMARK   11  A    between atoms: C_15  and  C_19
REMARK   12  A    between atoms: C_20  and  C_22
REMARK   13  A    between atoms: C_21  and  C_23
REMARK                            x       y       z     vdW  Elec       q    Type
REMARK                         _______ _______ _______ _____ _____    ______ ____
ROOT
ATOM      7  C   UNL     1      -6.186 -10.659  17.468  0.00  0.00    +0.000 C 
ATOM      8  C   UNL     1      -5.968 -11.344  16.095  0.00  0.00    +0.032 C 
ATOM      9  C   UNL     1      -7.658 -10.771  17.895  0.00  0.00    +0.012 C 
ATOM     10  C   UNL     1      -8.612 -10.127  16.871  0.00  0.00    +0.023 C 
ATOM     12  C   UNL     1      -8.285 -10.550  15.454  0.00  0.00    -0.073 C 
ATOM     13  C   UNL     1      -7.104 -11.104  15.128  0.00  0.00    -0.022 C 
ATOM     18  C   UNL     1      -9.366 -10.363  14.425  0.00  0.00    +0.039 C 
ENDROOT
BRANCH   7  11
ATOM     11  C   UNL     1      -5.284 -11.257  18.551  0.00  0.00    -0.013 C 
ATOM     16  C   UNL     1      -5.849 -10.961  19.937  0.00  0.00    +0.007 C 
ATOM     17  C   UNL     1      -5.125 -12.760  18.341  0.00  0.00    +0.007 C 
ENDBRANCH   7  11
BRANCH   8  14
ATOM     14  C   UNL     1      -4.649 -10.894  15.456  0.00  0.00    +0.112 C 
BRANCH  14   4
ATOM      2  O   UNL     1      -2.827 -10.994  13.240  0.00  0.00    -0.270 OA
ATOM      4  N   UNL     1      -4.873 -10.374  14.143  0.00  0.00    -0.311 N 
ATOM     20  C   UNL     1      -3.929 -10.466  13.120  0.00  0.00    +0.244 C 
ATOM     29  H   UNL     1      -5.795 -10.004  13.942  0.00  0.00    +0.149 HD
BRANCH  20  22
ATOM      6  N   UNL     1      -5.007  -8.696   9.375  0.00  0.00    -0.263 NA
ATOM     22  C   UNL     1      -4.304  -9.854  11.820  0.00  0.00    +0.040 A 
ATOM     24  C   UNL     1      -3.370  -9.771  10.793  0.00  0.00    +0.033 A 
ATOM     25  C   UNL     1      -5.589  -9.358  11.627  0.00  0.00    +0.033 A 
ATOM     26  C   UNL     1      -3.768  -9.188   9.601  0.00  0.00    +0.111 A 
ATOM     27  C   UNL     1      -5.886  -8.793  10.396  0.00  0.00    +0.111 A 
ENDBRANCH  20  22
ENDBRANCH  14   4
ENDBRANCH   8  14
BRANCH  10  15
ATOM     15  C   UNL     1      -8.614  -8.600  17.002  0.00  0.00    +0.103 C 
BRANCH  15  19
ATOM      1  O   UNL     1     -10.950  -8.559  17.632  0.00  0.00    -0.276 OA
ATOM      5  N   UNL     1     -10.094  -6.859  16.298  0.00  0.00    -0.313 N 
ATOM     19  C   UNL     1     -10.015  -8.034  17.033  0.00  0.00    +0.214 C 
ATOM     30  H   UNL     1      -9.264  -6.502  15.834  0.00  0.00    +0.149 HD
BRANCH   5  21
ATOM     21  C   UNL     1     -11.314  -6.100  16.151  0.00  0.00    +0.132 C 
BRANCH  21  23
ATOM     23  C   UNL     1     -11.953  -6.330  14.793  0.00  0.00    +0.178 C 
BRANCH  23   3
ATOM      3  O   UNL     1     -12.447  -5.096  14.288  0.00  0.00    -0.381 OA
ATOM     28  C   UNL     1     -12.347  -5.035  12.873  0.00  0.00    +0.194 C 
ENDBRANCH  23   3
ENDBRANCH  21  23
ENDBRANCH   5  21
ENDBRANCH  15  19
ENDBRANCH  10  15
TORSDOF 9
ENDMDL
MODEL 8
REMARK VINA RESULT:      -5.6     12.718     15.493
REMARK  Name = 38027656
REMARK  13 active torsions:
REMARK  status: ('A' for Active; 'I' for Inactive)
REMARK    1  A    between atoms: O_3  and  C_23
REMARK    2  A    between atoms: O_3  and  C_28
REMARK    3  A    between atoms: N_4  and  C_14
REMARK    4  A    between atoms: N_5  and  C_21
REMARK    5  A    between atoms: C_7  and  C_11
REMARK    6  A    between atoms: C_8  and  C_14
REMARK    7  A    between atoms: C_10  and  C_15
REMARK    8  A    between atoms: C_11  and  C_16
REMARK    9  A    between atoms: C_11  and  C_17
REMARK   10  A    between atoms: C_12  and  C_18
REMARK   11  A    between atoms: C_15  and  C_19
REMARK   12  A    between atoms: C_20  and  C_22
REMARK   13  A    between atoms: C_21  and  C_23
REMARK                            x       y       z     vdW  Elec       q    Type
REMARK                         _______ _______ _______ _____ _____    ______ ____
ROOT
ATOM      7  C   UNL     1      17.930  -3.203  23.748  0.00  0.00    +0.000 C 
ATOM      8  C   UNL     1      18.875  -4.266  23.135  0.00  0.00    +0.032 C 
ATOM      9  C   UNL     1      18.743  -2.087  24.422  0.00  0.00    +0.012 C 
ATOM     10  C   UNL     1      19.661  -2.625  25.536  0.00  0.00    +0.023 C 
ATOM     12  C   UNL     1      20.433  -3.849  25.087  0.00  0.00    -0.073 C 
ATOM     13  C   UNL     1      20.076  -4.562  24.005  0.00  0.00    -0.022 C 
ATOM     18  C   UNL     1      21.655  -4.209  25.886  0.00  0.00    +0.039 C 
ENDROOT
BRANCH   7  11
ATOM     11  C   UNL     1      16.993  -2.601  22.697  0.00  0.00    -0.013 C 
ATOM     16  C   UNL     1      15.537  -2.875  23.061  0.00  0.00    +0.007 C 
ATOM     17  C   UNL     1      17.243  -1.102  22.558  0.00  0.00    +0.007 C 
ENDBRANCH   7  11
BRANCH   8  14
ATOM     14  C   UNL     1      18.124  -5.571  22.841  0.00  0.00    +0.112 C 
BRANCH  14   4
ATOM      2  O   UNL     1      18.777  -7.803  24.525  0.00  0.00    -0.270 OA
ATOM      4  N   UNL     1      17.401  -6.011  23.993  0.00  0.00    -0.311 N 
ATOM     20  C   UNL     1      17.790  -7.111  24.758  0.00  0.00    +0.244 C 
ATOM     29  H   UNL     1      16.626  -5.435  24.301  0.00  0.00    +0.149 HD
BRANCH  20  22
ATOM      6  N   UNL     1      15.270  -8.105  28.072  0.00  0.00    -0.263 NA
ATOM     22  C   UNL     1      16.918  -7.456  25.909  0.00  0.00    +0.040 A 
ATOM     24  C   UNL     1      16.684  -8.787  26.233  0.00  0.00    +0.033 A 
ATOM     25  C   UNL     1      16.328  -6.447  26.665  0.00  0.00    +0.033 A 
ATOM     26  C   UNL     1      15.859  -9.056  27.314  0.00  0.00    +0.111 A 
ATOM     27  C   UNL     1      15.520  -6.822  27.727  0.00  0.00    +0.111 A 
ENDBRANCH  20  22
ENDBRANCH  14   4
ENDBRANCH   8  14
BRANCH  10  15
ATOM     15  C   UNL     1      18.865  -2.916  26.813  0.00  0.00    +0.103 C 
BRANCH  15  19
ATOM      1  O   UNL     1      20.421  -1.471  27.973  0.00  0.00    -0.276 OA
ATOM      5  N   UNL     1      18.565  -2.297  29.103  0.00  0.00    -0.313 N 
ATOM     19  C   UNL     1      19.392  -2.142  28.000  0.00  0.00    +0.214 C 
ATOM     30  H   UNL     1      17.733  -2.875  29.028  0.00  0.00    +0.149 HD
BRANCH   5  21
ATOM     21  C   UNL     1      18.824  -1.671  30.378  0.00  0.00    +0.132 C 
BRANCH  21  23
ATOM     23  C   UNL     1      17.578  -1.011  30.940  0.00  0.00    +0.178 C 
BRANCH  23   3
ATOM      3  O   UNL     1      16.436  -1.780  30.587  0.00  0.00    -0.381 OA
ATOM     28  C   UNL     1      15.972  -2.557  31.682  0.00  0.00    +0.194 C 
ENDBRANCH  23   3
ENDBRANCH  21  23
ENDBRANCH   5  21
ENDBRANCH  15  19
ENDBRANCH  10  15
TORSDOF 9
ENDMDL
MODEL 9
REMARK VINA RESULT:      -5.5     26.526     29.782
REMARK  Name = 38027656
REMARK  13 active torsions:
REMARK  status: ('A' for Active; 'I' for Inactive)
REMARK    1  A    between atoms: O_3  and  C_23
REMARK    2  A    between atoms: O_3  and  C_28
REMARK    3  A    between atoms: N_4  and  C_14
REMARK    4  A    between atoms: N_5  and  C_21
REMARK    5  A    between atoms: C_7  and  C_11
REMARK    6  A    between atoms: C_8  and  C_14
REMARK    7  A    between atoms: C_10  and  C_15
REMARK    8  A    between atoms: C_11  and  C_16
REMARK    9  A    between atoms: C_11  and  C_17
REMARK   10  A    between atoms: C_12  and  C_18
REMARK   11  A    between atoms: C_15  and  C_19
REMARK   12  A    between atoms: C_20  and  C_22
REMARK   13  A    between atoms: C_21  and  C_23
REMARK                            x       y       z     vdW  Elec       q    Type
REMARK                         _______ _______ _______ _____ _____    ______ ____
ROOT
ATOM      7  C   UNL     1      -5.265 -12.404  16.573  0.00  0.00    +0.000 C 
ATOM      8  C   UNL     1      -4.298 -11.946  17.693  0.00  0.00    +0.032 C 
ATOM      9  C   UNL     1      -4.479 -12.778  15.306  0.00  0.00    +0.012 C 
ATOM     10  C   UNL     1      -3.637 -11.603  14.775  0.00  0.00    +0.023 C 
ATOM     12  C   UNL     1      -2.855 -10.925  15.881  0.00  0.00    -0.073 C 
ATOM     13  C   UNL     1      -3.156 -11.100  17.179  0.00  0.00    -0.022 C 
ATOM     18  C   UNL     1      -1.687 -10.075  15.462  0.00  0.00    +0.039 C 
ENDROOT
BRANCH   7  11
ATOM     11  C   UNL     1      -6.129 -13.588  17.016  0.00  0.00    -0.013 C 
ATOM     16  C   UNL     1      -7.511 -13.507  16.375  0.00  0.00    +0.007 C 
ATOM     17  C   UNL     1      -5.446 -14.906  16.664  0.00  0.00    +0.007 C 
ENDBRANCH   7  11
BRANCH   8  14
ATOM     14  C   UNL     1      -5.047 -11.180  18.790  0.00  0.00    +0.112 C 
BRANCH  14   4
ATOM      2  O   UNL     1      -7.715 -11.285  19.847  0.00  0.00    -0.270 OA
ATOM      4  N   UNL     1      -6.202 -10.528  18.257  0.00  0.00    -0.311 N 
ATOM     20  C   UNL     1      -7.467 -10.633  18.836  0.00  0.00    +0.244 C 
ATOM     29  H   UNL     1      -6.059  -9.899  17.475  0.00  0.00    +0.149 HD
BRANCH  20  22
ATOM      6  N   UNL     1     -10.644  -8.563  16.850  0.00  0.00    -0.263 NA
ATOM     22  C   UNL     1      -8.569  -9.916  18.146  0.00  0.00    +0.040 A 
ATOM     24  C   UNL     1      -8.284  -9.008  17.133  0.00  0.00    +0.033 A 
ATOM     25  C   UNL     1      -9.891 -10.149  18.513  0.00  0.00    +0.033 A 
ATOM     26  C   UNL     1      -9.348  -8.363  16.522  0.00  0.00    +0.111 A 
ATOM     27  C   UNL     1     -10.882  -9.452  17.840  0.00  0.00    +0.111 A 
ENDBRANCH  20  22
ENDBRANCH  14   4
ENDBRANCH   8  14
BRANCH  10  15
ATOM     15  C   UNL     1      -4.511 -10.593  14.022  0.00  0.00    +0.103 C 
BRANCH  15  19
ATOM      1  O   UNL     1      -5.343 -11.500  11.939  0.00  0.00    -0.276 OA
ATOM      5  N   UNL     1      -3.414 -10.203  11.934  0.00  0.00    -0.313 N 
ATOM     19  C   UNL     1      -4.498 -10.832  12.529  0.00  0.00    +0.214 C 
ATOM     30  H   UNL     1      -2.765  -9.673  12.507  0.00  0.00    +0.149 HD
BRANCH   5  21
ATOM     21  C   UNL     1      -3.149 -10.263  10.515  0.00  0.00    +0.132 C 
BRANCH  21  23
ATOM     23  C   UNL     1      -3.638  -9.015   9.803  0.00  0.00    +0.178 C 
BRANCH  23   3
ATOM      3  O   UNL     1      -4.859  -9.300   9.132  0.00  0.00    -0.381 OA
ATOM     28  C   UNL     1      -4.767 -10.496   8.370  0.00  0.00    +0.194 C 
ENDBRANCH  23   3
ENDBRANCH  21  23
ENDBRANCH   5  21
ENDBRANCH  15  19
ENDBRANCH  10  15
TORSDOF 9
ENDMDL
MODEL 10
REMARK VINA RESULT:      -5.5     27.301     30.494
REMARK  Name = 38027656
REMARK  13 active torsions:
REMARK  status: ('A' for Active; 'I' for Inactive)
REMARK    1  A    between atoms: O_3  and  C_23
REMARK    2  A    between atoms: O_3  and  C_28
REMARK    3  A    between atoms: N_4  and  C_14
REMARK    4  A    between atoms: N_5  and  C_21
REMARK    5  A    between atoms: C_7  and  C_11
REMARK    6  A    between atoms: C_8  and  C_14
REMARK    7  A    between atoms: C_10  and  C_15
REMARK    8  A    between atoms: C_11  and  C_16
REMARK    9  A    between atoms: C_11  and  C_17
REMARK   10  A    between atoms: C_12  and  C_18
REMARK   11  A    between atoms: C_15  and  C_19
REMARK   12  A    between atoms: C_20  and  C_22
REMARK   13  A    between atoms: C_21  and  C_23
REMARK                            x       y       z     vdW  Elec       q    Type
REMARK                         _______ _______ _______ _____ _____    ______ ____
ROOT
ATOM      7  C   UNL     1      -5.409 -11.649  17.563  0.00  0.00    +0.000 C 
ATOM      8  C   UNL     1      -6.893 -11.361  17.228  0.00  0.00    +0.032 C 
ATOM      9  C   UNL     1      -4.513 -10.511  17.052  0.00  0.00    +0.012 C 
ATOM     10  C   UNL     1      -4.639 -10.308  15.530  0.00  0.00    +0.023 C 
ATOM     12  C   UNL     1      -6.087 -10.282  15.084  0.00  0.00    -0.073 C 
ATOM     13  C   UNL     1      -7.082 -10.744  15.861  0.00  0.00    -0.022 C 
ATOM     18  C   UNL     1      -6.370  -9.669  13.741  0.00  0.00    +0.039 C 
ENDROOT
BRANCH   7  11
ATOM     11  C   UNL     1      -5.193 -11.846  19.066  0.00  0.00    -0.013 C 
ATOM     16  C   UNL     1      -3.709 -12.021  19.373  0.00  0.00    +0.007 C 
ATOM     17  C   UNL     1      -5.771 -10.667  19.845  0.00  0.00    +0.007 C 
ENDBRANCH   7  11
BRANCH   8  14
ATOM     14  C   UNL     1      -7.743 -12.633  17.335  0.00  0.00    +0.112 C 
BRANCH  14   4
ATOM      2  O   UNL     1      -8.235 -13.118  20.122  0.00  0.00    -0.270 OA
ATOM      4  N   UNL     1      -8.956 -12.374  18.045  0.00  0.00    -0.311 N 
ATOM     20  C   UNL     1      -9.110 -12.641  19.406  0.00  0.00    +0.244 C 
ATOM     29  H   UNL     1      -9.695 -11.897  17.541  0.00  0.00    +0.149 HD
BRANCH  20  22
ATOM      6  N   UNL     1     -12.947 -11.771  21.094  0.00  0.00    -0.263 NA
ATOM     22  C   UNL     1     -10.442 -12.340  19.990  0.00  0.00    +0.040 A 
ATOM     24  C   UNL     1     -11.005 -11.079  19.831  0.00  0.00    +0.033 A 
ATOM     25  C   UNL     1     -11.130 -13.318  20.701  0.00  0.00    +0.033 A 
ATOM     26  C   UNL     1     -12.248 -10.847  20.398  0.00  0.00    +0.111 A 
ATOM     27  C   UNL     1     -12.368 -12.985  21.229  0.00  0.00    +0.111 A 
ENDBRANCH  20  22
ENDBRANCH  14   4
ENDBRANCH   8  14
BRANCH  10  15
ATOM     15  C   UNL     1      -3.848 -11.374  14.764  0.00  0.00    +0.103 C 
BRANCH  15  19
ATOM      1  O   UNL     1      -1.695 -10.328  14.411  0.00  0.00    -0.276 OA
ATOM      5  N   UNL     1      -3.058 -10.786  12.585  0.00  0.00    -0.313 N 
ATOM     19  C   UNL     1      -2.737 -10.770  13.935  0.00  0.00    +0.214 C 
ATOM     30  H   UNL     1      -3.948 -11.173  12.286  0.00  0.00    +0.149 HD
BRANCH   5  21
ATOM     21  C   UNL     1      -2.181 -10.270  11.559  0.00  0.00    +0.132 C 
BRANCH  21  23
ATOM     23  C   UNL     1      -2.956  -9.535  10.481  0.00  0.00    +0.178 C 
BRANCH  23   3
ATOM      3  O   UNL     1      -4.205 -10.182  10.272  0.00  0.00    -0.381 OA
ATOM     28  C   UNL     1      -4.525 -10.262   8.890  0.00  0.00    +0.194 C 
ENDBRANCH  23   3
ENDBRANCH  21  23
ENDBRANCH   5  21
ENDBRANCH  15  19
ENDBRANCH  10  15
TORSDOF 9
ENDMDL
