MODEL 1
REMARK VINA RESULT:      -6.5      0.000      0.000
REMARK  Name = 38030867
REMARK  13 active torsions:
REMARK  status: ('A' for Active; 'I' for Inactive)
REMARK    1  A    between atoms: O_2  and  C_28
REMARK    2  A    between atoms: O_2  and  C_29
REMARK    3  A    between atoms: N_3  and  C_13
REMARK    4  A    between atoms: N_3  and  C_19
REMARK    5  A    between atoms: C_6  and  C_10
REMARK    6  A    between atoms: C_7  and  C_13
REMARK    7  A    between atoms: C_9  and  C_14
REMARK    8  A    between atoms: C_10  and  C_15
REMARK    9  A    between atoms: C_10  and  C_16
REMARK   10  A    between atoms: C_11  and  C_17
REMARK   11  A    between atoms: C_14  and  C_18
REMARK   12  A    between atoms: C_19  and  C_21
REMARK   13  A    between atoms: C_20  and  C_22
REMARK                            x       y       z     vdW  Elec       q    Type
REMARK                         _______ _______ _______ _____ _____    ______ ____
ROOT
ATOM      6  C   UNL     1      14.104  10.030  21.043  0.00  0.00    +0.000 C 
ATOM      7  C   UNL     1      12.692  10.357  20.499  0.00  0.00    +0.029 C 
ATOM      8  C   UNL     1      15.024   9.566  19.904  0.00  0.00    +0.012 C 
ATOM      9  C   UNL     1      14.477   8.319  19.184  0.00  0.00    +0.024 C 
ATOM     11  C   UNL     1      13.006   8.461  18.851  0.00  0.00    -0.073 C 
ATOM     12  C   UNL     1      12.227   9.387  19.439  0.00  0.00    -0.023 C 
ATOM     17  C   UNL     1      12.460   7.544  17.792  0.00  0.00    +0.039 C 
ENDROOT
BRANCH   6  10
ATOM     10  C   UNL     1      14.731  11.230  21.760  0.00  0.00    -0.013 C 
ATOM     15  C   UNL     1      16.147  10.897  22.219  0.00  0.00    +0.007 C 
ATOM     16  C   UNL     1      14.731  12.453  20.848  0.00  0.00    +0.007 C 
ENDBRANCH   6  10
BRANCH   7  13
ATOM     13  C   UNL     1      11.661  10.409  21.632  0.00  0.00    +0.089 C 
BRANCH  13   3
ATOM      3  N   UNL     1      11.886   9.332  22.580  0.00  0.00    -0.305 NA
ATOM     30  H   UNL     1      12.730   8.817  22.333  0.00  0.00    +0.123 HD
BRANCH   3  19
ATOM     19  C   UNL     1      10.756   8.410  22.606  0.00  0.00    +0.170 C 
BRANCH  19  21
ATOM     21  C   UNL     1      11.086   7.158  21.917  0.00  0.00    -0.090 C 
ATOM     25  C   UNL     1      11.362   6.136  21.354  0.00  0.00    +0.005 C 
ENDBRANCH  19  21
ENDBRANCH   3  19
ENDBRANCH  13   3
ENDBRANCH   7  13
BRANCH   9  14
ATOM     14  C   UNL     1      14.734   7.050  20.006  0.00  0.00    +0.105 C 
BRANCH  14  18
ATOM      1  O   UNL     1      17.038   6.655  20.704  0.00  0.00    -0.420 OA
ATOM      4  N   UNL     1      16.543   5.842  18.680  0.00  0.00    -0.112 NA
ATOM      5  N   UNL     1      17.867   5.549  18.946  0.00  0.00    -0.107 NA
ATOM     18  C   UNL     1      16.099   6.487  19.734  0.00  0.00    +0.218 A 
ATOM     20  C   UNL     1      18.113   6.042  20.136  0.00  0.00    +0.248 A 
BRANCH  20  22
ATOM     22  C   UNL     1      19.316   6.035  20.917  0.00  0.00    +0.039 A 
ATOM     23  C   UNL     1      19.418   6.841  22.050  0.00  0.00    +0.017 A 
ATOM     24  C   UNL     1      20.384   5.218  20.544  0.00  0.00    +0.017 A 
ATOM     26  C   UNL     1      20.587   6.833  22.809  0.00  0.00    +0.046 A 
ATOM     27  C   UNL     1      21.554   5.210  21.304  0.00  0.00    +0.046 A 
ATOM     28  C   UNL     1      21.656   6.019  22.437  0.00  0.00    +0.120 A 
BRANCH  28   2
ATOM      2  O   UNL     1      22.796   6.008  23.179  0.00  0.00    -0.495 OA
ATOM     29  C   UNL     1      23.616   4.843  23.094  0.00  0.00    +0.277 C 
ENDBRANCH  28   2
ENDBRANCH  20  22
ENDBRANCH  14  18
ENDBRANCH   9  14
TORSDOF 9
ENDMDL
MODEL 2
REMARK VINA RESULT:      -6.0      2.464      3.674
REMARK  Name = 38030867
REMARK  13 active torsions:
REMARK  status: ('A' for Active; 'I' for Inactive)
REMARK    1  A    between atoms: O_2  and  C_28
REMARK    2  A    between atoms: O_2  and  C_29
REMARK    3  A    between atoms: N_3  and  C_13
REMARK    4  A    between atoms: N_3  and  C_19
REMARK    5  A    between atoms: C_6  and  C_10
REMARK    6  A    between atoms: C_7  and  C_13
REMARK    7  A    between atoms: C_9  and  C_14
REMARK    8  A    between atoms: C_10  and  C_15
REMARK    9  A    between atoms: C_10  and  C_16
REMARK   10  A    between atoms: C_11  and  C_17
REMARK   11  A    between atoms: C_14  and  C_18
REMARK   12  A    between atoms: C_19  and  C_21
REMARK   13  A    between atoms: C_20  and  C_22
REMARK                            x       y       z     vdW  Elec       q    Type
REMARK                         _______ _______ _______ _____ _____    ______ ____
ROOT
ATOM      6  C   UNL     1      15.139   8.462  21.220  0.00  0.00    +0.000 C 
ATOM      7  C   UNL     1      14.399   7.684  20.104  0.00  0.00    +0.029 C 
ATOM      8  C   UNL     1      16.568   8.809  20.775  0.00  0.00    +0.012 C 
ATOM      9  C   UNL     1      17.391   7.555  20.426  0.00  0.00    +0.024 C 
ATOM     11  C   UNL     1      16.617   6.604  19.535  0.00  0.00    -0.073 C 
ATOM     12  C   UNL     1      15.282   6.686  19.393  0.00  0.00    -0.023 C 
ATOM     17  C   UNL     1      17.419   5.584  18.775  0.00  0.00    +0.039 C 
ENDROOT
BRANCH   6  10
ATOM     10  C   UNL     1      14.393   9.740  21.615  0.00  0.00    -0.013 C 
ATOM     15  C   UNL     1      15.149  10.480  22.714  0.00  0.00    +0.007 C 
ATOM     16  C   UNL     1      14.195  10.637  20.397  0.00  0.00    +0.007 C 
ENDBRANCH   6  10
BRANCH   7  13
ATOM     13  C   UNL     1      13.161   6.970  20.655  0.00  0.00    +0.089 C 
BRANCH  13   3
ATOM      3  N   UNL     1      12.065   7.034  19.703  0.00  0.00    -0.305 NA
ATOM     30  H   UNL     1      12.408   6.854  18.760  0.00  0.00    +0.123 HD
BRANCH   3  19
ATOM     19  C   UNL     1      11.417   8.340  19.735  0.00  0.00    +0.170 C 
BRANCH  19  21
ATOM     21  C   UNL     1      10.960   8.665  21.090  0.00  0.00    -0.090 C 
ATOM     25  C   UNL     1      10.584   8.924  22.200  0.00  0.00    +0.005 C 
ENDBRANCH  19  21
ENDBRANCH   3  19
ENDBRANCH  13   3
ENDBRANCH   7  13
BRANCH   9  14
ATOM     14  C   UNL     1      17.880   6.844  21.693  0.00  0.00    +0.105 C 
BRANCH  14  18
ATOM      1  O   UNL     1      19.988   5.639  21.450  0.00  0.00    -0.420 OA
ATOM      4  N   UNL     1      20.220   7.771  22.085  0.00  0.00    -0.112 NA
ATOM      5  N   UNL     1      21.482   7.215  21.986  0.00  0.00    -0.107 NA
ATOM     18  C   UNL     1      19.380   6.816  21.762  0.00  0.00    +0.218 A 
ATOM     20  C   UNL     1      21.298   5.971  21.614  0.00  0.00    +0.248 A 
BRANCH  20  22
ATOM     22  C   UNL     1      22.246   4.926  21.357  0.00  0.00    +0.039 A 
ATOM     23  C   UNL     1      23.295   5.140  20.463  0.00  0.00    +0.017 A 
ATOM     24  C   UNL     1      22.120   3.695  22.002  0.00  0.00    +0.017 A 
ATOM     26  C   UNL     1      24.217   4.124  20.214  0.00  0.00    +0.046 A 
ATOM     27  C   UNL     1      23.043   2.680  21.753  0.00  0.00    +0.046 A 
ATOM     28  C   UNL     1      24.092   2.894  20.857  0.00  0.00    +0.120 A 
BRANCH  28   2
ATOM      2  O   UNL     1      24.994   1.904  20.617  0.00  0.00    -0.495 OA
ATOM     29  C   UNL     1      25.488   1.186  21.748  0.00  0.00    +0.277 C 
ENDBRANCH  28   2
ENDBRANCH  20  22
ENDBRANCH  14  18
ENDBRANCH   9  14
TORSDOF 9
ENDMDL
MODEL 3
REMARK VINA RESULT:      -5.9     27.543     29.626
REMARK  Name = 38030867
REMARK  13 active torsions:
REMARK  status: ('A' for Active; 'I' for Inactive)
REMARK    1  A    between atoms: O_2  and  C_28
REMARK    2  A    between atoms: O_2  and  C_29
REMARK    3  A    between atoms: N_3  and  C_13
REMARK    4  A    between atoms: N_3  and  C_19
REMARK    5  A    between atoms: C_6  and  C_10
REMARK    6  A    between atoms: C_7  and  C_13
REMARK    7  A    between atoms: C_9  and  C_14
REMARK    8  A    between atoms: C_10  and  C_15
REMARK    9  A    between atoms: C_10  and  C_16
REMARK   10  A    between atoms: C_11  and  C_17
REMARK   11  A    between atoms: C_14  and  C_18
REMARK   12  A    between atoms: C_19  and  C_21
REMARK   13  A    between atoms: C_20  and  C_22
REMARK                            x       y       z     vdW  Elec       q    Type
REMARK                         _______ _______ _______ _____ _____    ______ ____
ROOT
ATOM      6  C   UNL     1      -6.430 -11.087  16.417  0.00  0.00    +0.000 C 
ATOM      7  C   UNL     1      -6.903 -11.227  17.886  0.00  0.00    +0.029 C 
ATOM      8  C   UNL     1      -5.357 -12.138  16.096  0.00  0.00    +0.012 C 
ATOM      9  C   UNL     1      -4.129 -12.018  17.019  0.00  0.00    +0.024 C 
ATOM     11  C   UNL     1      -4.529 -11.881  18.474  0.00  0.00    -0.073 C 
ATOM     12  C   UNL     1      -5.777 -11.540  18.842  0.00  0.00    -0.023 C 
ATOM     17  C   UNL     1      -3.472 -12.189  19.498  0.00  0.00    +0.039 C 
ENDROOT
BRANCH   6  10
ATOM     10  C   UNL     1      -7.594 -11.215  15.430  0.00  0.00    -0.013 C 
ATOM     15  C   UNL     1      -7.768  -9.921  14.641  0.00  0.00    +0.007 C 
ATOM     16  C   UNL     1      -7.366 -12.394  14.490  0.00  0.00    +0.007 C 
ENDBRANCH   6  10
BRANCH   7  13
ATOM     13  C   UNL     1      -7.635  -9.965  18.354  0.00  0.00    +0.089 C 
BRANCH  13   3
ATOM      3  N   UNL     1      -8.879 -10.310  19.021  0.00  0.00    -0.305 NA
ATOM     30  H   UNL     1      -8.834 -11.266  19.374  0.00  0.00    +0.123 HD
BRANCH   3  19
ATOM     19  C   UNL     1     -10.013 -10.189  18.113  0.00  0.00    +0.170 C 
BRANCH  19  21
ATOM     21  C   UNL     1     -10.091  -8.838  17.549  0.00  0.00    -0.090 C 
ATOM     25  C   UNL     1     -10.150  -7.729  17.093  0.00  0.00    +0.005 C 
ENDBRANCH  19  21
ENDBRANCH   3  19
ENDBRANCH  13   3
ENDBRANCH   7  13
BRANCH   9  14
ATOM     14  C   UNL     1      -3.226 -10.857  16.586  0.00  0.00    +0.105 C 
BRANCH  14  18
ATOM      1  O   UNL     1      -3.756 -10.431  14.243  0.00  0.00    -0.420 OA
ATOM      4  N   UNL     1      -1.805 -11.476  14.565  0.00  0.00    -0.112 NA
ATOM      5  N   UNL     1      -1.976 -11.300  13.204  0.00  0.00    -0.107 NA
ATOM     18  C   UNL     1      -2.867 -10.954  15.131  0.00  0.00    +0.218 A 
ATOM     20  C   UNL     1      -3.127 -10.687  13.063  0.00  0.00    +0.248 A 
BRANCH  20  22
ATOM     22  C   UNL     1      -3.812 -10.252  11.880  0.00  0.00    +0.039 A 
ATOM     23  C   UNL     1      -3.085  -9.885  10.748  0.00  0.00    +0.017 A 
ATOM     24  C   UNL     1      -5.206 -10.198  11.861  0.00  0.00    +0.017 A 
ATOM     26  C   UNL     1      -3.750  -9.463   9.598  0.00  0.00    +0.046 A 
ATOM     27  C   UNL     1      -5.872  -9.776  10.711  0.00  0.00    +0.046 A 
ATOM     28  C   UNL     1      -5.143  -9.408   9.579  0.00  0.00    +0.120 A 
BRANCH  28   2
ATOM      2  O   UNL     1      -5.794  -8.999   8.455  0.00  0.00    -0.495 OA
ATOM     29  C   UNL     1      -5.661  -9.818   7.293  0.00  0.00    +0.277 C 
ENDBRANCH  28   2
ENDBRANCH  20  22
ENDBRANCH  14  18
ENDBRANCH   9  14
TORSDOF 9
ENDMDL
MODEL 4
REMARK VINA RESULT:      -5.9      2.221      3.232
REMARK  Name = 38030867
REMARK  13 active torsions:
REMARK  status: ('A' for Active; 'I' for Inactive)
REMARK    1  A    between atoms: O_2  and  C_28
REMARK    2  A    between atoms: O_2  and  C_29
REMARK    3  A    between atoms: N_3  and  C_13
REMARK    4  A    between atoms: N_3  and  C_19
REMARK    5  A    between atoms: C_6  and  C_10
REMARK    6  A    between atoms: C_7  and  C_13
REMARK    7  A    between atoms: C_9  and  C_14
REMARK    8  A    between atoms: C_10  and  C_15
REMARK    9  A    between atoms: C_10  and  C_16
REMARK   10  A    between atoms: C_11  and  C_17
REMARK   11  A    between atoms: C_14  and  C_18
REMARK   12  A    between atoms: C_19  and  C_21
REMARK   13  A    between atoms: C_20  and  C_22
REMARK                            x       y       z     vdW  Elec       q    Type
REMARK                         _______ _______ _______ _____ _____    ______ ____
ROOT
ATOM      6  C   UNL     1      13.326  10.945  22.813  0.00  0.00    +0.000 C 
ATOM      7  C   UNL     1      11.803  11.211  22.711  0.00  0.00    +0.029 C 
ATOM      8  C   UNL     1      13.895  10.555  21.440  0.00  0.00    +0.012 C 
ATOM      9  C   UNL     1      13.217   9.297  20.865  0.00  0.00    +0.024 C 
ATOM     11  C   UNL     1      11.708   9.370  20.976  0.00  0.00    -0.073 C 
ATOM     12  C   UNL     1      11.094  10.241  21.796  0.00  0.00    -0.023 C 
ATOM     17  C   UNL     1      10.918   8.449  20.087  0.00  0.00    +0.039 C 
ENDROOT
BRANCH   6  10
ATOM     10  C   UNL     1      14.081  12.160  23.361  0.00  0.00    -0.013 C 
ATOM     15  C   UNL     1      15.467  11.751  23.848  0.00  0.00    +0.007 C 
ATOM     16  C   UNL     1      14.180  13.248  22.297  0.00  0.00    +0.007 C 
ENDBRANCH   6  10
BRANCH   7  13
ATOM     13  C   UNL     1      11.144  11.184  24.094  0.00  0.00    +0.089 C 
BRANCH  13   3
ATOM      3  N   UNL     1      10.158  12.244  24.214  0.00  0.00    -0.305 NA
ATOM     30  H   UNL     1      10.056  12.730  23.324  0.00  0.00    +0.123 HD
BRANCH   3  19
ATOM     19  C   UNL     1      10.542  13.206  25.241  0.00  0.00    +0.170 C 
BRANCH  19  21
ATOM     21  C   UNL     1      11.200  14.373  24.645  0.00  0.00    -0.090 C 
ATOM     25  C   UNL     1      11.743  15.328  24.162  0.00  0.00    +0.005 C 
ENDBRANCH  19  21
ENDBRANCH   3  19
ENDBRANCH  13   3
ENDBRANCH   7  13
BRANCH   9  14
ATOM     14  C   UNL     1      13.756   8.025  21.531  0.00  0.00    +0.105 C 
BRANCH  14  18
ATOM      1  O   UNL     1      16.040   7.207  21.279  0.00  0.00    -0.420 OA
ATOM      4  N   UNL     1      14.766   6.940  19.460  0.00  0.00    -0.112 NA
ATOM      5  N   UNL     1      16.022   6.436  19.179  0.00  0.00    -0.107 NA
ATOM     18  C   UNL     1      14.822   7.378  20.696  0.00  0.00    +0.218 A 
ATOM     20  C   UNL     1      16.732   6.613  20.268  0.00  0.00    +0.248 A 
BRANCH  20  22
ATOM     22  C   UNL     1      18.099   6.283  20.552  0.00  0.00    +0.039 A 
ATOM     23  C   UNL     1      18.781   6.951  21.569  0.00  0.00    +0.017 A 
ATOM     24  C   UNL     1      18.746   5.293  19.812  0.00  0.00    +0.017 A 
ATOM     26  C   UNL     1      20.109   6.630  21.845  0.00  0.00    +0.046 A 
ATOM     27  C   UNL     1      20.074   4.971  20.089  0.00  0.00    +0.046 A 
ATOM     28  C   UNL     1      20.757   5.641  21.106  0.00  0.00    +0.120 A 
BRANCH  28   2
ATOM      2  O   UNL     1      22.052   5.324  21.377  0.00  0.00    -0.495 OA
ATOM     29  C   UNL     1      23.054   6.227  20.909  0.00  0.00    +0.277 C 
ENDBRANCH  28   2
ENDBRANCH  20  22
ENDBRANCH  14  18
ENDBRANCH   9  14
TORSDOF 9
ENDMDL
MODEL 5
REMARK VINA RESULT:      -5.8      1.847      3.175
REMARK  Name = 38030867
REMARK  13 active torsions:
REMARK  status: ('A' for Active; 'I' for Inactive)
REMARK    1  A    between atoms: O_2  and  C_28
REMARK    2  A    between atoms: O_2  and  C_29
REMARK    3  A    between atoms: N_3  and  C_13
REMARK    4  A    between atoms: N_3  and  C_19
REMARK    5  A    between atoms: C_6  and  C_10
REMARK    6  A    between atoms: C_7  and  C_13
REMARK    7  A    between atoms: C_9  and  C_14
REMARK    8  A    between atoms: C_10  and  C_15
REMARK    9  A    between atoms: C_10  and  C_16
REMARK   10  A    between atoms: C_11  and  C_17
REMARK   11  A    between atoms: C_14  and  C_18
REMARK   12  A    between atoms: C_19  and  C_21
REMARK   13  A    between atoms: C_20  and  C_22
REMARK                            x       y       z     vdW  Elec       q    Type
REMARK                         _______ _______ _______ _____ _____    ______ ____
ROOT
ATOM      6  C   UNL     1      12.759  11.360  21.079  0.00  0.00    +0.000 C 
ATOM      7  C   UNL     1      11.339  11.492  21.684  0.00  0.00    +0.029 C 
ATOM      8  C   UNL     1      12.851  10.108  20.194  0.00  0.00    +0.012 C 
ATOM      9  C   UNL     1      12.529   8.818  20.973  0.00  0.00    +0.024 C 
ATOM     11  C   UNL     1      11.275   8.964  21.811  0.00  0.00    -0.073 C 
ATOM     12  C   UNL     1      10.750  10.167  22.106  0.00  0.00    -0.023 C 
ATOM     17  C   UNL     1      10.611   7.693  22.264  0.00  0.00    +0.039 C 
ENDROOT
BRANCH   6  10
ATOM     10  C   UNL     1      13.151  12.598  20.268  0.00  0.00    -0.013 C 
ATOM     15  C   UNL     1      14.391  13.256  20.865  0.00  0.00    +0.007 C 
ATOM     16  C   UNL     1      13.386  12.225  18.808  0.00  0.00    +0.007 C 
ENDBRANCH   6  10
BRANCH   7  13
ATOM     13  C   UNL     1      11.332  12.457  22.874  0.00  0.00    +0.089 C 
BRANCH  13   3
ATOM      3  N   UNL     1      11.179  11.732  24.122  0.00  0.00    -0.305 NA
ATOM     30  H   UNL     1      10.255  11.903  24.517  0.00  0.00    +0.123 HD
BRANCH   3  19
ATOM     19  C   UNL     1      12.193  12.132  25.091  0.00  0.00    +0.170 C 
BRANCH  19  21
ATOM     21  C   UNL     1      13.532  11.744  24.636  0.00  0.00    -0.090 C 
ATOM     25  C   UNL     1      14.627  11.429  24.258  0.00  0.00    +0.005 C 
ENDBRANCH  19  21
ENDBRANCH   3  19
ENDBRANCH  13   3
ENDBRANCH   7  13
BRANCH   9  14
ATOM     14  C   UNL     1      13.718   8.384  21.837  0.00  0.00    +0.105 C 
BRANCH  14  18
ATOM      1  O   UNL     1      16.001   7.632  21.414  0.00  0.00    -0.420 OA
ATOM      4  N   UNL     1      14.475   6.738  20.045  0.00  0.00    -0.112 NA
ATOM      5  N   UNL     1      15.711   6.229  19.696  0.00  0.00    -0.107 NA
ATOM     18  C   UNL     1      14.691   7.552  21.052  0.00  0.00    +0.218 A 
ATOM     20  C   UNL     1      16.571   6.778  20.521  0.00  0.00    +0.248 A 
BRANCH  20  22
ATOM     22  C   UNL     1      17.993   6.619  20.624  0.00  0.00    +0.039 A 
ATOM     23  C   UNL     1      18.621   5.536  20.011  0.00  0.00    +0.017 A 
ATOM     24  C   UNL     1      18.749   7.550  21.339  0.00  0.00    +0.017 A 
ATOM     26  C   UNL     1      20.003   5.382  20.111  0.00  0.00    +0.046 A 
ATOM     27  C   UNL     1      20.131   7.396  21.439  0.00  0.00    +0.046 A 
ATOM     28  C   UNL     1      20.759   6.311  20.825  0.00  0.00    +0.120 A 
BRANCH  28   2
ATOM      2  O   UNL     1      22.108   6.163  20.920  0.00  0.00    -0.495 OA
ATOM     29  C   UNL     1      22.913   7.268  20.509  0.00  0.00    +0.277 C 
ENDBRANCH  28   2
ENDBRANCH  20  22
ENDBRANCH  14  18
ENDBRANCH   9  14
TORSDOF 9
ENDMDL
MODEL 6
REMARK VINA RESULT:      -5.7      3.100      8.439
REMARK  Name = 38030867
REMARK  13 active torsions:
REMARK  status: ('A' for Active; 'I' for Inactive)
REMARK    1  A    between atoms: O_2  and  C_28
REMARK    2  A    between atoms: O_2  and  C_29
REMARK    3  A    between atoms: N_3  and  C_13
REMARK    4  A    between atoms: N_3  and  C_19
REMARK    5  A    between atoms: C_6  and  C_10
REMARK    6  A    between atoms: C_7  and  C_13
REMARK    7  A    between atoms: C_9  and  C_14
REMARK    8  A    between atoms: C_10  and  C_15
REMARK    9  A    between atoms: C_10  and  C_16
REMARK   10  A    between atoms: C_11  and  C_17
REMARK   11  A    between atoms: C_14  and  C_18
REMARK   12  A    between atoms: C_19  and  C_21
REMARK   13  A    between atoms: C_20  and  C_22
REMARK                            x       y       z     vdW  Elec       q    Type
REMARK                         _______ _______ _______ _____ _____    ______ ____
ROOT
ATOM      6  C   UNL     1      20.305   5.986  21.770  0.00  0.00    +0.000 C 
ATOM      7  C   UNL     1      20.807   7.267  22.480  0.00  0.00    +0.029 C 
ATOM      8  C   UNL     1      19.536   6.347  20.490  0.00  0.00    +0.012 C 
ATOM      9  C   UNL     1      18.324   7.254  20.775  0.00  0.00    +0.024 C 
ATOM     11  C   UNL     1      18.684   8.403  21.696  0.00  0.00    -0.073 C 
ATOM     12  C   UNL     1      19.805   8.397  22.439  0.00  0.00    -0.023 C 
ATOM     17  C   UNL     1      17.749   9.580  21.708  0.00  0.00    +0.039 C 
ENDROOT
BRANCH   6  10
ATOM     10  C   UNL     1      21.457   5.034  21.432  0.00  0.00    -0.013 C 
ATOM     15  C   UNL     1      20.921   3.749  20.808  0.00  0.00    +0.007 C 
ATOM     16  C   UNL     1      22.452   5.714  20.497  0.00  0.00    +0.007 C 
ENDBRANCH   6  10
BRANCH   7  13
ATOM     13  C   UNL     1      21.194   6.979  23.934  0.00  0.00    +0.089 C 
BRANCH  13   3
ATOM      3  N   UNL     1      20.008   6.820  24.758  0.00  0.00    -0.305 NA
ATOM     30  H   UNL     1      19.231   7.346  24.361  0.00  0.00    +0.123 HD
BRANCH   3  19
ATOM     19  C   UNL     1      20.250   7.281  26.121  0.00  0.00    +0.170 C 
BRANCH  19  21
ATOM     21  C   UNL     1      20.902   6.238  26.919  0.00  0.00    -0.090 C 
ATOM     25  C   UNL     1      21.430   5.380  27.572  0.00  0.00    +0.005 C 
ENDBRANCH  19  21
ENDBRANCH   3  19
ENDBRANCH  13   3
ENDBRANCH   7  13
BRANCH   9  14
ATOM     14  C   UNL     1      17.150   6.446  21.340  0.00  0.00    +0.105 C 
BRANCH  14  18
ATOM      1  O   UNL     1      15.949   7.603  19.559  0.00  0.00    -0.420 OA
ATOM      4  N   UNL     1      14.636   6.425  20.933  0.00  0.00    -0.112 NA
ATOM      5  N   UNL     1      13.831   7.021  19.981  0.00  0.00    -0.107 NA
ATOM     18  C   UNL     1      15.863   6.791  20.647  0.00  0.00    +0.218 A 
ATOM     20  C   UNL     1      14.639   7.699  19.201  0.00  0.00    +0.248 A 
BRANCH  20  22
ATOM     22  C   UNL     1      14.361   8.509  18.050  0.00  0.00    +0.039 A 
ATOM     23  C   UNL     1      14.205   9.888  18.189  0.00  0.00    +0.017 A 
ATOM     24  C   UNL     1      14.248   7.917  16.791  0.00  0.00    +0.017 A 
ATOM     26  C   UNL     1      13.936  10.675  17.070  0.00  0.00    +0.046 A 
ATOM     27  C   UNL     1      13.978   8.705  15.673  0.00  0.00    +0.046 A 
ATOM     28  C   UNL     1      13.821  10.085  15.812  0.00  0.00    +0.120 A 
BRANCH  28   2
ATOM      2  O   UNL     1      13.561  10.853  14.719  0.00  0.00    -0.495 OA
ATOM     29  C   UNL     1      14.491  11.895  14.421  0.00  0.00    +0.277 C 
ENDBRANCH  28   2
ENDBRANCH  20  22
ENDBRANCH  14  18
ENDBRANCH   9  14
TORSDOF 9
ENDMDL
MODEL 7
REMARK VINA RESULT:      -5.6     27.465     30.240
REMARK  Name = 38030867
REMARK  13 active torsions:
REMARK  status: ('A' for Active; 'I' for Inactive)
REMARK    1  A    between atoms: O_2  and  C_28
REMARK    2  A    between atoms: O_2  and  C_29
REMARK    3  A    between atoms: N_3  and  C_13
REMARK    4  A    between atoms: N_3  and  C_19
REMARK    5  A    between atoms: C_6  and  C_10
REMARK    6  A    between atoms: C_7  and  C_13
REMARK    7  A    between atoms: C_9  and  C_14
REMARK    8  A    between atoms: C_10  and  C_15
REMARK    9  A    between atoms: C_10  and  C_16
REMARK   10  A    between atoms: C_11  and  C_17
REMARK   11  A    between atoms: C_14  and  C_18
REMARK   12  A    between atoms: C_19  and  C_21
REMARK   13  A    between atoms: C_20  and  C_22
REMARK                            x       y       z     vdW  Elec       q    Type
REMARK                         _______ _______ _______ _____ _____    ______ ____
ROOT
ATOM      6  C   UNL     1      -6.443  -9.642   9.788  0.00  0.00    +0.000 C 
ATOM      7  C   UNL     1      -5.500  -9.212   8.638  0.00  0.00    +0.029 C 
ATOM      8  C   UNL     1      -6.004  -8.998  11.112  0.00  0.00    +0.012 C 
ATOM      9  C   UNL     1      -4.561  -9.379  11.495  0.00  0.00    +0.024 C 
ATOM     11  C   UNL     1      -3.611  -9.235  10.323  0.00  0.00    -0.073 C 
ATOM     12  C   UNL     1      -4.049  -9.148   9.055  0.00  0.00    -0.023 C 
ATOM     17  C   UNL     1      -2.145  -9.147  10.647  0.00  0.00    +0.039 C 
ENDROOT
BRANCH   6  10
ATOM     10  C   UNL     1      -7.902  -9.280   9.494  0.00  0.00    -0.013 C 
ATOM     15  C   UNL     1      -8.768  -9.511  10.728  0.00  0.00    +0.007 C 
ATOM     16  C   UNL     1      -8.006  -7.833   9.023  0.00  0.00    +0.007 C 
ENDBRANCH   6  10
BRANCH   7  13
ATOM     13  C   UNL     1      -5.643 -10.142   7.428  0.00  0.00    +0.089 C 
BRANCH  13   3
ATOM      3  N   UNL     1      -6.071  -9.397   6.256  0.00  0.00    -0.305 NA
ATOM     30  H   UNL     1      -6.055  -8.397   6.450  0.00  0.00    +0.123 HD
BRANCH   3  19
ATOM     19  C   UNL     1      -7.418  -9.783   5.852  0.00  0.00    +0.170 C 
BRANCH  19  21
ATOM     21  C   UNL     1      -8.197  -8.610   5.441  0.00  0.00    -0.090 C 
ATOM     25  C   UNL     1      -8.834  -7.653   5.098  0.00  0.00    +0.005 C 
ENDBRANCH  19  21
ENDBRANCH   3  19
ENDBRANCH  13   3
ENDBRANCH   7  13
BRANCH   9  14
ATOM     14  C   UNL     1      -4.501 -10.795  12.079  0.00  0.00    +0.105 C 
BRANCH  14  18
ATOM      1  O   UNL     1      -5.294 -10.804  14.387  0.00  0.00    -0.420 OA
ATOM      4  N   UNL     1      -3.069 -10.713  14.184  0.00  0.00    -0.112 NA
ATOM      5  N   UNL     1      -3.375 -10.713  15.532  0.00  0.00    -0.107 NA
ATOM     18  C   UNL     1      -4.218 -10.768  13.554  0.00  0.00    +0.218 A 
ATOM     20  C   UNL     1      -4.683 -10.767  15.603  0.00  0.00    +0.248 A 
BRANCH  20  22
ATOM     22  C   UNL     1      -5.554 -10.792  16.743  0.00  0.00    +0.039 A 
ATOM     23  C   UNL     1      -6.918 -10.550  16.585  0.00  0.00    +0.017 A 
ATOM     24  C   UNL     1      -5.035 -11.061  18.010  0.00  0.00    +0.017 A 
ATOM     26  C   UNL     1      -7.764 -10.576  17.693  0.00  0.00    +0.046 A 
ATOM     27  C   UNL     1      -5.881 -11.086  19.118  0.00  0.00    +0.046 A 
ATOM     28  C   UNL     1      -7.246 -10.843  18.960  0.00  0.00    +0.120 A 
BRANCH  28   2
ATOM      2  O   UNL     1      -8.072 -10.872  20.042  0.00  0.00    -0.495 OA
ATOM     29  C   UNL     1      -9.468 -11.029  19.789  0.00  0.00    +0.277 C 
ENDBRANCH  28   2
ENDBRANCH  20  22
ENDBRANCH  14  18
ENDBRANCH   9  14
TORSDOF 9
ENDMDL
MODEL 8
REMARK VINA RESULT:      -5.6      2.701      9.263
REMARK  Name = 38030867
REMARK  13 active torsions:
REMARK  status: ('A' for Active; 'I' for Inactive)
REMARK    1  A    between atoms: O_2  and  C_28
REMARK    2  A    between atoms: O_2  and  C_29
REMARK    3  A    between atoms: N_3  and  C_13
REMARK    4  A    between atoms: N_3  and  C_19
REMARK    5  A    between atoms: C_6  and  C_10
REMARK    6  A    between atoms: C_7  and  C_13
REMARK    7  A    between atoms: C_9  and  C_14
REMARK    8  A    between atoms: C_10  and  C_15
REMARK    9  A    between atoms: C_10  and  C_16
REMARK   10  A    between atoms: C_11  and  C_17
REMARK   11  A    between atoms: C_14  and  C_18
REMARK   12  A    between atoms: C_19  and  C_21
REMARK   13  A    between atoms: C_20  and  C_22
REMARK                            x       y       z     vdW  Elec       q    Type
REMARK                         _______ _______ _______ _____ _____    ______ ____
ROOT
ATOM      6  C   UNL     1      21.411   6.713  22.209  0.00  0.00    +0.000 C 
ATOM      7  C   UNL     1      21.642   5.533  21.233  0.00  0.00    +0.029 C 
ATOM      8  C   UNL     1      19.971   6.693  22.745  0.00  0.00    +0.012 C 
ATOM      9  C   UNL     1      18.928   6.783  21.614  0.00  0.00    +0.024 C 
ATOM     11  C   UNL     1      19.243   5.827  20.481  0.00  0.00    -0.073 C 
ATOM     12  C   UNL     1      20.457   5.268  20.335  0.00  0.00    -0.023 C 
ATOM     17  C   UNL     1      18.115   5.493  19.544  0.00  0.00    +0.039 C 
ENDROOT
BRANCH   6  10
ATOM     10  C   UNL     1      22.400   6.686  23.379  0.00  0.00    -0.013 C 
ATOM     15  C   UNL     1      22.304   7.976  24.187  0.00  0.00    +0.007 C 
ATOM     16  C   UNL     1      22.141   5.472  24.265  0.00  0.00    +0.007 C 
ENDBRANCH   6  10
BRANCH   7  13
ATOM     13  C   UNL     1      22.892   5.760  20.376  0.00  0.00    +0.089 C 
BRANCH  13   3
ATOM      3  N   UNL     1      23.574   4.503  20.119  0.00  0.00    -0.305 NA
ATOM     30  H   UNL     1      22.941   3.847  19.663  0.00  0.00    +0.123 HD
BRANCH   3  19
ATOM     19  C   UNL     1      24.065   3.909  21.357  0.00  0.00    +0.170 C 
BRANCH  19  21
ATOM     21  C   UNL     1      24.087   2.446  21.262  0.00  0.00    -0.090 C 
ATOM     25  C   UNL     1      24.111   1.249  21.182  0.00  0.00    +0.005 C 
ENDBRANCH  19  21
ENDBRANCH   3  19
ENDBRANCH  13   3
ENDBRANCH   7  13
BRANCH   9  14
ATOM     14  C   UNL     1      18.794   8.220  21.099  0.00  0.00    +0.105 C 
BRANCH  14  18
ATOM      1  O   UNL     1      16.564   8.239  20.111  0.00  0.00    -0.420 OA
ATOM      4  N   UNL     1      16.748   9.458  21.977  0.00  0.00    -0.112 NA
ATOM      5  N   UNL     1      15.444   9.557  21.530  0.00  0.00    -0.107 NA
ATOM     18  C   UNL     1      17.365   8.679  21.119  0.00  0.00    +0.218 A 
ATOM     20  C   UNL     1      15.382   8.831  20.439  0.00  0.00    +0.248 A 
BRANCH  20  22
ATOM     22  C   UNL     1      14.283   8.569  19.556  0.00  0.00    +0.039 A 
ATOM     23  C   UNL     1      12.984   8.506  20.059  0.00  0.00    +0.017 A 
ATOM     24  C   UNL     1      14.513   8.377  18.193  0.00  0.00    +0.017 A 
ATOM     26  C   UNL     1      11.915   8.252  19.200  0.00  0.00    +0.046 A 
ATOM     27  C   UNL     1      13.444   8.123  17.334  0.00  0.00    +0.046 A 
ATOM     28  C   UNL     1      12.144   8.060  17.838  0.00  0.00    +0.120 A 
BRANCH  28   2
ATOM      2  O   UNL     1      11.101   7.815  16.999  0.00  0.00    -0.495 OA
ATOM     29  C   UNL     1      10.651   8.900  16.188  0.00  0.00    +0.277 C 
ENDBRANCH  28   2
ENDBRANCH  20  22
ENDBRANCH  14  18
ENDBRANCH   9  14
TORSDOF 9
ENDMDL
MODEL 9
REMARK VINA RESULT:      -5.6     27.217     29.126
REMARK  Name = 38030867
REMARK  13 active torsions:
REMARK  status: ('A' for Active; 'I' for Inactive)
REMARK    1  A    between atoms: O_2  and  C_28
REMARK    2  A    between atoms: O_2  and  C_29
REMARK    3  A    between atoms: N_3  and  C_13
REMARK    4  A    between atoms: N_3  and  C_19
REMARK    5  A    between atoms: C_6  and  C_10
REMARK    6  A    between atoms: C_7  and  C_13
REMARK    7  A    between atoms: C_9  and  C_14
REMARK    8  A    between atoms: C_10  and  C_15
REMARK    9  A    between atoms: C_10  and  C_16
REMARK   10  A    between atoms: C_11  and  C_17
REMARK   11  A    between atoms: C_14  and  C_18
REMARK   12  A    between atoms: C_19  and  C_21
REMARK   13  A    between atoms: C_20  and  C_22
REMARK                            x       y       z     vdW  Elec       q    Type
REMARK                         _______ _______ _______ _____ _____    ______ ____
ROOT
ATOM      6  C   UNL     1     -11.848  10.178  18.576  0.00  0.00    +0.000 C 
ATOM      7  C   UNL     1     -11.683   8.810  17.868  0.00  0.00    +0.029 C 
ATOM      8  C   UNL     1     -11.198  10.144  19.967  0.00  0.00    +0.012 C 
ATOM      9  C   UNL     1     -11.805   9.052  20.868  0.00  0.00    +0.024 C 
ATOM     11  C   UNL     1     -11.922   7.726  20.144  0.00  0.00    -0.073 C 
ATOM     12  C   UNL     1     -11.852   7.636  18.804  0.00  0.00    -0.023 C 
ATOM     17  C   UNL     1     -12.078   6.499  20.999  0.00  0.00    +0.039 C 
ENDROOT
BRANCH   6  10
ATOM     10  C   UNL     1     -11.251  11.321  17.751  0.00  0.00    -0.013 C 
ATOM     15  C   UNL     1     -11.271  12.621  18.548  0.00  0.00    +0.007 C 
ATOM     16  C   UNL     1      -9.830  10.977  17.316  0.00  0.00    +0.007 C 
ENDBRANCH   6  10
BRANCH   7  13
ATOM     13  C   UNL     1     -12.658   8.672  16.694  0.00  0.00    +0.089 C 
BRANCH  13   3
ATOM      3  N   UNL     1     -13.955   9.228  17.037  0.00  0.00    -0.305 NA
ATOM     30  H   UNL     1     -13.918   9.665  17.957  0.00  0.00    +0.123 HD
BRANCH   3  19
ATOM     19  C   UNL     1     -14.986   8.196  17.040  0.00  0.00    +0.170 C 
BRANCH  19  21
ATOM     21  C   UNL     1     -15.387   7.862  18.411  0.00  0.00    -0.090 C 
ATOM     25  C   UNL     1     -15.717   7.595  19.533  0.00  0.00    +0.005 C 
ENDBRANCH  19  21
ENDBRANCH   3  19
ENDBRANCH  13   3
ENDBRANCH   7  13
BRANCH   9  14
ATOM     14  C   UNL     1     -13.161   9.492  21.432  0.00  0.00    +0.105 C 
BRANCH  14  18
ATOM      1  O   UNL     1     -12.557  10.263  23.666  0.00  0.00    -0.420 OA
ATOM      4  N   UNL     1     -13.242  11.888  22.291  0.00  0.00    -0.112 NA
ATOM      5  N   UNL     1     -12.934  12.462  23.510  0.00  0.00    -0.107 NA
ATOM     18  C   UNL     1     -13.006  10.604  22.428  0.00  0.00    +0.218 A 
ATOM     20  C   UNL     1     -12.539  11.477  24.282  0.00  0.00    +0.248 A 
BRANCH  20  22
ATOM     22  C   UNL     1     -12.100  11.482  25.647  0.00  0.00    +0.039 A 
ATOM     23  C   UNL     1     -12.463  12.530  26.493  0.00  0.00    +0.017 A 
ATOM     24  C   UNL     1     -11.310  10.438  26.130  0.00  0.00    +0.017 A 
ATOM     26  C   UNL     1     -12.036  12.535  27.820  0.00  0.00    +0.046 A 
ATOM     27  C   UNL     1     -10.884  10.443  27.457  0.00  0.00    +0.046 A 
ATOM     28  C   UNL     1     -11.246  11.492  28.303  0.00  0.00    +0.120 A 
BRANCH  28   2
ATOM      2  O   UNL     1     -10.833  11.494  29.600  0.00  0.00    -0.495 OA
ATOM     29  C   UNL     1     -11.507  10.614  30.498  0.00  0.00    +0.277 C 
ENDBRANCH  28   2
ENDBRANCH  20  22
ENDBRANCH  14  18
ENDBRANCH   9  14
TORSDOF 9
ENDMDL
MODEL 10
REMARK VINA RESULT:      -5.4     26.536     30.883
REMARK  Name = 38030867
REMARK  13 active torsions:
REMARK  status: ('A' for Active; 'I' for Inactive)
REMARK    1  A    between atoms: O_2  and  C_28
REMARK    2  A    between atoms: O_2  and  C_29
REMARK    3  A    between atoms: N_3  and  C_13
REMARK    4  A    between atoms: N_3  and  C_19
REMARK    5  A    between atoms: C_6  and  C_10
REMARK    6  A    between atoms: C_7  and  C_13
REMARK    7  A    between atoms: C_9  and  C_14
REMARK    8  A    between atoms: C_10  and  C_15
REMARK    9  A    between atoms: C_10  and  C_16
REMARK   10  A    between atoms: C_11  and  C_17
REMARK   11  A    between atoms: C_14  and  C_18
REMARK   12  A    between atoms: C_19  and  C_21
REMARK   13  A    between atoms: C_20  and  C_22
REMARK                            x       y       z     vdW  Elec       q    Type
REMARK                         _______ _______ _______ _____ _____    ______ ____
ROOT
ATOM      6  C   UNL     1      -3.569 -10.775  14.568  0.00  0.00    +0.000 C 
ATOM      7  C   UNL     1      -4.329 -11.263  13.310  0.00  0.00    +0.029 C 
ATOM      8  C   UNL     1      -3.902 -11.665  15.775  0.00  0.00    +0.012 C 
ATOM      9  C   UNL     1      -5.410 -11.679  16.090  0.00  0.00    +0.024 C 
ATOM     11  C   UNL     1      -6.244 -11.890  14.843  0.00  0.00    -0.073 C 
ATOM     12  C   UNL     1      -5.740 -11.713  13.609  0.00  0.00    -0.023 C 
ATOM     17  C   UNL     1      -7.660 -12.355  15.046  0.00  0.00    +0.039 C 
ENDROOT
BRANCH   6  10
ATOM     10  C   UNL     1      -2.054 -10.750  14.344  0.00  0.00    -0.013 C 
ATOM     15  C   UNL     1      -1.334 -10.316  15.616  0.00  0.00    +0.007 C 
ATOM     16  C   UNL     1      -1.562 -12.118  13.884  0.00  0.00    +0.007 C 
ENDBRANCH   6  10
BRANCH   7  13
ATOM     13  C   UNL     1      -4.357 -10.180  12.226  0.00  0.00    +0.089 C 
BRANCH  13   3
ATOM      3  N   UNL     1      -3.597 -10.600  11.061  0.00  0.00    -0.305 NA
ATOM     30  H   UNL     1      -2.860 -11.248  11.337  0.00  0.00    +0.123 HD
BRANCH   3  19
ATOM     19  C   UNL     1      -2.997  -9.455  10.385  0.00  0.00    +0.170 C 
BRANCH  19  21
ATOM     21  C   UNL     1      -1.651  -9.188  10.903  0.00  0.00    -0.090 C 
ATOM     25  C   UNL     1      -0.552  -8.963  11.327  0.00  0.00    +0.005 C 
ENDBRANCH  19  21
ENDBRANCH   3  19
ENDBRANCH  13   3
ENDBRANCH   7  13
BRANCH   9  14
ATOM     14  C   UNL     1      -5.832 -10.401  16.824  0.00  0.00    +0.105 C 
BRANCH  14  18
ATOM      1  O   UNL     1      -7.917 -10.725  18.049  0.00  0.00    -0.420 OA
ATOM      4  N   UNL     1      -6.076 -10.990  19.290  0.00  0.00    -0.112 NA
ATOM      5  N   UNL     1      -7.173 -11.202  20.104  0.00  0.00    -0.107 NA
ATOM     18  C   UNL     1      -6.558 -10.716  18.100  0.00  0.00    +0.218 A 
ATOM     20  C   UNL     1      -8.225 -11.037  19.338  0.00  0.00    +0.248 A 
BRANCH  20  22
ATOM     22  C   UNL     1      -9.623 -11.132  19.643  0.00  0.00    +0.039 A 
ATOM     23  C   UNL     1     -10.135 -12.298  20.213  0.00  0.00    +0.017 A 
ATOM     24  C   UNL     1     -10.472 -10.058  19.372  0.00  0.00    +0.017 A 
ATOM     26  C   UNL     1     -11.494 -12.390  20.510  0.00  0.00    +0.046 A 
ATOM     27  C   UNL     1     -11.831 -10.151  19.670  0.00  0.00    +0.046 A 
ATOM     28  C   UNL     1     -12.343 -11.318  20.239  0.00  0.00    +0.120 A 
BRANCH  28   2
ATOM      2  O   UNL     1     -13.669 -11.406  20.533  0.00  0.00    -0.495 OA
ATOM     29  C   UNL     1     -14.354 -10.187  20.817  0.00  0.00    +0.277 C 
ENDBRANCH  28   2
ENDBRANCH  20  22
ENDBRANCH  14  18
ENDBRANCH   9  14
TORSDOF 9
ENDMDL
