MODEL 1
REMARK VINA RESULT:      -6.1      0.000      0.000
REMARK  Name = 71693104
REMARK  15 active torsions:
REMARK  status: ('A' for Active; 'I' for Inactive)
REMARK    1  A    between atoms: O_2  and  C_30
REMARK    2  A    between atoms: N_4  and  C_15
REMARK    3  A    between atoms: C_8  and  C_12
REMARK    4  A    between atoms: C_9  and  C_15
REMARK    5  A    between atoms: C_11  and  C_16
REMARK    6  A    between atoms: C_12  and  C_17
REMARK    7  A    between atoms: C_12  and  C_18
REMARK    8  A    between atoms: C_13  and  C_19
REMARK    9  A    between atoms: C_16  and  C_20
REMARK   10  A    between atoms: C_21  and  C_23
REMARK   11  A    between atoms: C_22  and  C_23
REMARK   12  A    between atoms: C_22  and  C_24
REMARK   13  A    between atoms: C_22  and  C_26
REMARK   14  A    between atoms: C_22  and  C_27
REMARK   15  A    between atoms: C_24  and  C_30
REMARK                            x       y       z     vdW  Elec       q    Type
REMARK                         _______ _______ _______ _____ _____    ______ ____
ROOT
ATOM      8  C   UNL     1       8.597   8.571   5.088  0.00  0.00    +0.000 C 
ATOM      9  C   UNL     1       8.362   7.920   6.474  0.00  0.00    +0.032 C 
ATOM     10  C   UNL     1       8.346   7.551   3.968  0.00  0.00    +0.012 C 
ATOM     11  C   UNL     1       9.260   6.316   4.088  0.00  0.00    +0.022 C 
ATOM     13  C   UNL     1       9.290   5.774   5.502  0.00  0.00    -0.073 C 
ATOM     14  C   UNL     1       8.873   6.500   6.555  0.00  0.00    -0.022 C 
ATOM     19  C   UNL     1       9.770   4.360   5.674  0.00  0.00    +0.039 C 
ENDROOT
BRANCH   8  12
ATOM     12  C   UNL     1       7.706   9.800   4.880  0.00  0.00    -0.013 C 
ATOM     17  C   UNL     1       8.559  11.050   4.697  0.00  0.00    +0.007 C 
ATOM     18  C   UNL     1       6.785   9.593   3.681  0.00  0.00    +0.007 C 
ENDBRANCH   8  12
BRANCH   9  15
ATOM     15  C   UNL     1       8.998   8.754   7.592  0.00  0.00    +0.112 C 
BRANCH  15   4
ATOM      1  O   UNL     1      10.868  10.924   7.316  0.00  0.00    -0.276 OA
ATOM      4  N   UNL     1      10.424   8.657   7.550  0.00  0.00    -0.315 N 
ATOM     21  C   UNL     1      11.259   9.763   7.413  0.00  0.00    +0.214 C 
ATOM     33  H   UNL     1      10.837   7.733   7.631  0.00  0.00    +0.149 HD
BRANCH  21  23
ATOM     23  C   UNL     1      12.738   9.412   7.399  0.00  0.00    +0.102 C 
BRANCH  23  22
ATOM     22  C   UNL     1      13.262   8.856   6.051  0.00  0.00    -0.017 C 
ATOM     26  C   UNL     1      14.787   9.092   6.000  0.00  0.00    +0.012 C 
ATOM     27  C   UNL     1      12.637   9.628   4.870  0.00  0.00    +0.012 C 
BRANCH  22  24
ATOM     24  C   UNL     1      12.949   7.353   5.858  0.00  0.00    +0.127 C 
BRANCH  24  30
ATOM      3  O   UNL     1      12.003   6.251   7.796  0.00  0.00    -0.251 OA
ATOM     30  C   UNL     1      12.990   6.528   7.126  0.00  0.00    +0.305 C 
BRANCH  30   2
ATOM      2  O   UNL     1      14.243   6.128   7.455  0.00  0.00    -0.481 OA
ATOM     35  H   UNL     1      14.890   6.864   7.393  0.00  0.00    +0.295 HD
ENDBRANCH  30   2
ENDBRANCH  24  30
ENDBRANCH  22  24
ENDBRANCH  23  22
ENDBRANCH  21  23
ENDBRANCH  15   4
ENDBRANCH   9  15
BRANCH  11  16
ATOM     16  C   UNL     1      10.676   6.628   3.589  0.00  0.00    +0.082 C 
BRANCH  16  20
ATOM      5  N   UNL     1      12.247   5.097   2.386  0.00  0.00    -0.341 N 
ATOM      6  N   UNL     1      10.325   5.529   1.348  0.00  0.00    -0.213 NA
ATOM      7  N   UNL     1      10.740   4.176  -0.623  0.00  0.00    -0.234 NA
ATOM     20  C   UNL     1      11.050   5.758   2.422  0.00  0.00    +0.110 A 
ATOM     25  C   UNL     1      12.297   4.396   1.212  0.00  0.00    +0.085 A 
ATOM     28  C   UNL     1      11.089   4.683   0.586  0.00  0.00    +0.178 A 
ATOM     29  C   UNL     1      13.244   3.558   0.634  0.00  0.00    +0.031 A 
ATOM     31  C   UNL     1      12.901   3.029  -0.607  0.00  0.00    +0.022 A 
ATOM     32  C   UNL     1      11.673   3.362  -1.171  0.00  0.00    +0.113 A 
ATOM     34  H   UNL     1      12.968   5.123   3.096  0.00  0.00    +0.167 HD
ENDBRANCH  16  20
ENDBRANCH  11  16
TORSDOF 10
ENDMDL
MODEL 2
REMARK VINA RESULT:      -6.0      3.615      8.247
REMARK  Name = 71693104
REMARK  15 active torsions:
REMARK  status: ('A' for Active; 'I' for Inactive)
REMARK    1  A    between atoms: O_2  and  C_30
REMARK    2  A    between atoms: N_4  and  C_15
REMARK    3  A    between atoms: C_8  and  C_12
REMARK    4  A    between atoms: C_9  and  C_15
REMARK    5  A    between atoms: C_11  and  C_16
REMARK    6  A    between atoms: C_12  and  C_17
REMARK    7  A    between atoms: C_12  and  C_18
REMARK    8  A    between atoms: C_13  and  C_19
REMARK    9  A    between atoms: C_16  and  C_20
REMARK   10  A    between atoms: C_21  and  C_23
REMARK   11  A    between atoms: C_22  and  C_23
REMARK   12  A    between atoms: C_22  and  C_24
REMARK   13  A    between atoms: C_22  and  C_26
REMARK   14  A    between atoms: C_22  and  C_27
REMARK   15  A    between atoms: C_24  and  C_30
REMARK                            x       y       z     vdW  Elec       q    Type
REMARK                         _______ _______ _______ _____ _____    ______ ____
ROOT
ATOM      8  C   UNL     1       8.721  10.211   5.135  0.00  0.00    +0.000 C 
ATOM      9  C   UNL     1       9.845   9.440   4.399  0.00  0.00    +0.032 C 
ATOM     10  C   UNL     1       9.320  11.304   6.032  0.00  0.00    +0.012 C 
ATOM     11  C   UNL     1      10.288  10.729   7.085  0.00  0.00    +0.022 C 
ATOM     13  C   UNL     1      11.265   9.745   6.472  0.00  0.00    -0.073 C 
ATOM     14  C   UNL     1      11.058   9.189   5.266  0.00  0.00    -0.022 C 
ATOM     19  C   UNL     1      12.509   9.449   7.262  0.00  0.00    +0.039 C 
ENDROOT
BRANCH   8  12
ATOM     12  C   UNL     1       7.723  10.834   4.154  0.00  0.00    -0.013 C 
ATOM     17  C   UNL     1       6.437  10.015   4.112  0.00  0.00    +0.007 C 
ATOM     18  C   UNL     1       7.430  12.281   4.540  0.00  0.00    +0.007 C 
ENDBRANCH   8  12
BRANCH   9  15
ATOM     15  C   UNL     1       9.331   8.107   3.844  0.00  0.00    +0.112 C 
BRANCH  15   4
ATOM      1  O   UNL     1       7.670   6.334   5.388  0.00  0.00    -0.276 OA
ATOM      4  N   UNL     1       9.767   7.016   4.659  0.00  0.00    -0.315 N 
ATOM     21  C   UNL     1       8.892   6.204   5.378  0.00  0.00    +0.214 C 
ATOM     33  H   UNL     1      10.765   6.829   4.705  0.00  0.00    +0.149 HD
BRANCH  21  23
ATOM     23  C   UNL     1       9.587   5.107   6.167  0.00  0.00    +0.102 C 
BRANCH  23  22
ATOM     22  C   UNL     1       9.911   5.469   7.638  0.00  0.00    -0.017 C 
ATOM     26  C   UNL     1       8.974   6.621   8.062  0.00  0.00    +0.012 C 
ATOM     27  C   UNL     1      11.360   5.985   7.760  0.00  0.00    +0.012 C 
BRANCH  22  24
ATOM     24  C   UNL     1       9.749   4.269   8.602  0.00  0.00    +0.127 C 
BRANCH  24  30
ATOM      3  O   UNL     1       8.321   4.694  10.511  0.00  0.00    -0.251 OA
ATOM     30  C   UNL     1       9.449   4.642  10.037  0.00  0.00    +0.305 C 
BRANCH  30   2
ATOM      2  O   UNL     1      10.566   4.925  10.753  0.00  0.00    -0.481 OA
ATOM     35  H   UNL     1      10.885   4.145  11.255  0.00  0.00    +0.295 HD
ENDBRANCH  30   2
ENDBRANCH  24  30
ENDBRANCH  22  24
ENDBRANCH  23  22
ENDBRANCH  21  23
ENDBRANCH  15   4
ENDBRANCH   9  15
BRANCH  11  16
ATOM     16  C   UNL     1       9.522  10.089   8.248  0.00  0.00    +0.082 C 
BRANCH  16  20
ATOM      5  N   UNL     1      10.861  11.374   9.926  0.00  0.00    -0.341 N 
ATOM      6  N   UNL     1       8.671  11.262  10.310  0.00  0.00    -0.213 NA
ATOM      7  N   UNL     1       8.662  12.564  12.359  0.00  0.00    -0.234 NA
ATOM     20  C   UNL     1       9.647  10.907   9.503  0.00  0.00    +0.110 A 
ATOM     25  C   UNL     1      10.654  12.077  11.082  0.00  0.00    +0.085 A 
ATOM     28  C   UNL     1       9.283  11.991  11.298  0.00  0.00    +0.178 A 
ATOM     29  C   UNL     1      11.494  12.766  11.950  0.00  0.00    +0.031 A 
ATOM     31  C   UNL     1      10.870  13.360  13.043  0.00  0.00    +0.022 A 
ATOM     32  C   UNL     1       9.494  13.231  13.193  0.00  0.00    +0.113 A 
ATOM     34  H   UNL     1      11.753  11.227   9.469  0.00  0.00    +0.167 HD
ENDBRANCH  16  20
ENDBRANCH  11  16
TORSDOF 10
ENDMDL
MODEL 3
REMARK VINA RESULT:      -5.9     26.988     29.484
REMARK  Name = 71693104
REMARK  15 active torsions:
REMARK  status: ('A' for Active; 'I' for Inactive)
REMARK    1  A    between atoms: O_2  and  C_30
REMARK    2  A    between atoms: N_4  and  C_15
REMARK    3  A    between atoms: C_8  and  C_12
REMARK    4  A    between atoms: C_9  and  C_15
REMARK    5  A    between atoms: C_11  and  C_16
REMARK    6  A    between atoms: C_12  and  C_17
REMARK    7  A    between atoms: C_12  and  C_18
REMARK    8  A    between atoms: C_13  and  C_19
REMARK    9  A    between atoms: C_16  and  C_20
REMARK   10  A    between atoms: C_21  and  C_23
REMARK   11  A    between atoms: C_22  and  C_23
REMARK   12  A    between atoms: C_22  and  C_24
REMARK   13  A    between atoms: C_22  and  C_26
REMARK   14  A    between atoms: C_22  and  C_27
REMARK   15  A    between atoms: C_24  and  C_30
REMARK                            x       y       z     vdW  Elec       q    Type
REMARK                         _______ _______ _______ _____ _____    ______ ____
ROOT
ATOM      8  C   UNL     1     -11.884  -9.806  18.349  0.00  0.00    +0.000 C 
ATOM      9  C   UNL     1     -10.617 -10.678  18.165  0.00  0.00    +0.032 C 
ATOM     10  C   UNL     1     -12.536  -9.514  16.989  0.00  0.00    +0.012 C 
ATOM     11  C   UNL     1     -11.577  -8.784  16.028  0.00  0.00    +0.022 C 
ATOM     13  C   UNL     1     -10.209  -9.435  15.998  0.00  0.00    -0.073 C 
ATOM     14  C   UNL     1      -9.801 -10.289  16.954  0.00  0.00    -0.022 C 
ATOM     19  C   UNL     1      -9.334  -9.115  14.818  0.00  0.00    +0.039 C 
ENDROOT
BRANCH   8  12
ATOM     12  C   UNL     1     -12.904 -10.474  19.279  0.00  0.00    -0.013 C 
ATOM     17  C   UNL     1     -13.077  -9.653  20.552  0.00  0.00    +0.007 C 
ATOM     18  C   UNL     1     -14.239 -10.652  18.564  0.00  0.00    +0.007 C 
ENDBRANCH   8  12
BRANCH   9  15
ATOM     15  C   UNL     1      -9.729 -10.633  19.414  0.00  0.00    +0.112 C 
BRANCH  15   4
ATOM      1  O   UNL     1      -7.312 -11.925  20.292  0.00  0.00    -0.276 OA
ATOM      4  N   UNL     1      -8.389 -10.270  19.071  0.00  0.00    -0.315 N 
ATOM     21  C   UNL     1      -7.270 -10.952  19.543  0.00  0.00    +0.214 C 
ATOM     33  H   UNL     1      -8.259  -9.478  18.447  0.00  0.00    +0.149 HD
BRANCH  21  23
ATOM     23  C   UNL     1      -5.953 -10.386  19.038  0.00  0.00    +0.102 C 
BRANCH  23  22
ATOM     22  C   UNL     1      -5.116 -11.359  18.171  0.00  0.00    -0.017 C 
ATOM     26  C   UNL     1      -6.089 -12.348  17.492  0.00  0.00    +0.012 C 
ATOM     27  C   UNL     1      -4.163 -12.187  19.058  0.00  0.00    +0.012 C 
BRANCH  22  24
ATOM     24  C   UNL     1      -4.265 -10.632  17.102  0.00  0.00    +0.127 C 
BRANCH  24  30
ATOM      3  O   UNL     1      -6.080  -9.354  16.136  0.00  0.00    -0.251 OA
ATOM     30  C   UNL     1      -5.058 -10.008  15.975  0.00  0.00    +0.305 C 
BRANCH  30   2
ATOM      2  O   UNL     1      -4.522 -10.256  14.754  0.00  0.00    -0.481 OA
ATOM     35  H   UNL     1      -4.245  -9.430  14.302  0.00  0.00    +0.295 HD
ENDBRANCH  30   2
ENDBRANCH  24  30
ENDBRANCH  22  24
ENDBRANCH  23  22
ENDBRANCH  21  23
ENDBRANCH  15   4
ENDBRANCH   9  15
BRANCH  11  16
ATOM     16  C   UNL     1     -11.469  -7.296  16.381  0.00  0.00    +0.082 C 
BRANCH  16  20
ATOM      5  N   UNL     1     -11.512  -5.544  14.596  0.00  0.00    -0.341 N 
ATOM      6  N   UNL     1     -13.480  -6.440  15.127  0.00  0.00    -0.213 NA
ATOM      7  N   UNL     1     -14.823  -5.155  13.566  0.00  0.00    -0.234 NA
ATOM     20  C   UNL     1     -12.189  -6.441  15.376  0.00  0.00    +0.110 A 
ATOM     25  C   UNL     1     -12.428  -4.924  13.790  0.00  0.00    +0.085 A 
ATOM     28  C   UNL     1     -13.644  -5.500  14.142  0.00  0.00    +0.178 A 
ATOM     29  C   UNL     1     -12.336  -3.941  12.811  0.00  0.00    +0.031 A 
ATOM     31  C   UNL     1     -13.537  -3.576  12.211  0.00  0.00    +0.022 A 
ATOM     32  C   UNL     1     -14.714  -4.197  12.615  0.00  0.00    +0.113 A 
ATOM     34  H   UNL     1     -10.516  -5.368  14.611  0.00  0.00    +0.167 HD
ENDBRANCH  16  20
ENDBRANCH  11  16
TORSDOF 10
ENDMDL
MODEL 4
REMARK VINA RESULT:      -5.9     23.365     25.971
REMARK  Name = 71693104
REMARK  15 active torsions:
REMARK  status: ('A' for Active; 'I' for Inactive)
REMARK    1  A    between atoms: O_2  and  C_30
REMARK    2  A    between atoms: N_4  and  C_15
REMARK    3  A    between atoms: C_8  and  C_12
REMARK    4  A    between atoms: C_9  and  C_15
REMARK    5  A    between atoms: C_11  and  C_16
REMARK    6  A    between atoms: C_12  and  C_17
REMARK    7  A    between atoms: C_12  and  C_18
REMARK    8  A    between atoms: C_13  and  C_19
REMARK    9  A    between atoms: C_16  and  C_20
REMARK   10  A    between atoms: C_21  and  C_23
REMARK   11  A    between atoms: C_22  and  C_23
REMARK   12  A    between atoms: C_22  and  C_24
REMARK   13  A    between atoms: C_22  and  C_26
REMARK   14  A    between atoms: C_22  and  C_27
REMARK   15  A    between atoms: C_24  and  C_30
REMARK                            x       y       z     vdW  Elec       q    Type
REMARK                         _______ _______ _______ _____ _____    ______ ____
ROOT
ATOM      8  C   UNL     1      -3.477 -12.316  13.634  0.00  0.00    +0.000 C 
ATOM      9  C   UNL     1      -2.131 -11.592  13.889  0.00  0.00    +0.032 C 
ATOM     10  C   UNL     1      -3.685 -12.547  12.130  0.00  0.00    +0.012 C 
ATOM     11  C   UNL     1      -3.682 -11.228  11.332  0.00  0.00    +0.022 C 
ATOM     13  C   UNL     1      -2.522 -10.336  11.726  0.00  0.00    -0.073 C 
ATOM     14  C   UNL     1      -1.833 -10.521  12.866  0.00  0.00    -0.022 C 
ATOM     19  C   UNL     1      -2.146  -9.250  10.757  0.00  0.00    +0.039 C 
ENDROOT
BRANCH   8  12
ATOM     12  C   UNL     1      -3.553 -13.653  14.379  0.00  0.00    -0.013 C 
ATOM     17  C   UNL     1      -4.821 -14.406  13.991  0.00  0.00    +0.007 C 
ATOM     18  C   UNL     1      -2.314 -14.495  14.089  0.00  0.00    +0.007 C 
ENDBRANCH   8  12
BRANCH   9  15
ATOM     15  C   UNL     1      -2.089 -10.981  15.294  0.00  0.00    +0.112 C 
BRANCH  15   4
ATOM      1  O   UNL     1      -3.735 -11.404  17.617  0.00  0.00    -0.276 OA
ATOM      4  N   UNL     1      -3.324 -10.328  15.601  0.00  0.00    -0.315 N 
ATOM     21  C   UNL     1      -4.060 -10.594  16.752  0.00  0.00    +0.214 C 
ATOM     33  H   UNL     1      -3.668  -9.634  14.943  0.00  0.00    +0.149 HD
BRANCH  21  23
ATOM     23  C   UNL     1      -5.335  -9.773  16.864  0.00  0.00    +0.102 C 
BRANCH  23  22
ATOM     22  C   UNL     1      -6.646 -10.597  16.818  0.00  0.00    -0.017 C 
ATOM     26  C   UNL     1      -6.600 -11.496  15.564  0.00  0.00    +0.012 C 
ATOM     27  C   UNL     1      -7.865  -9.663  16.670  0.00  0.00    +0.012 C 
BRANCH  22  24
ATOM     24  C   UNL     1      -6.857 -11.461  18.085  0.00  0.00    +0.127 C 
BRANCH  24  30
ATOM      3  O   UNL     1      -6.166 -10.171  20.014  0.00  0.00    -0.251 OA
ATOM     30  C   UNL     1      -7.070 -10.676  19.361  0.00  0.00    +0.305 C 
BRANCH  30   2
ATOM      2  O   UNL     1      -8.376 -10.594  19.718  0.00  0.00    -0.481 OA
ATOM     35  H   UNL     1      -8.658  -9.666  19.863  0.00  0.00    +0.295 HD
ENDBRANCH  30   2
ENDBRANCH  24  30
ENDBRANCH  22  24
ENDBRANCH  23  22
ENDBRANCH  21  23
ENDBRANCH  15   4
ENDBRANCH   9  15
BRANCH  11  16
ATOM     16  C   UNL     1      -5.017 -10.490  11.480  0.00  0.00    +0.082 C 
BRANCH  16  20
ATOM      5  N   UNL     1      -5.077 -10.609   8.982  0.00  0.00    -0.341 N 
ATOM      6  N   UNL     1      -6.528  -9.206   9.924  0.00  0.00    -0.213 NA
ATOM      7  N   UNL     1      -7.547  -8.409   7.870  0.00  0.00    -0.234 NA
ATOM     20  C   UNL     1      -5.566 -10.077  10.144  0.00  0.00    +0.110 A 
ATOM     25  C   UNL     1      -5.769 -10.044   7.945  0.00  0.00    +0.085 A 
ATOM     28  C   UNL     1      -6.664  -9.175   8.559  0.00  0.00    +0.178 A 
ATOM     29  C   UNL     1      -5.716 -10.190   6.563  0.00  0.00    +0.031 A 
ATOM     31  C   UNL     1      -6.615  -9.410   5.842  0.00  0.00    +0.022 A 
ATOM     32  C   UNL     1      -7.481  -8.564   6.527  0.00  0.00    +0.113 A 
ATOM     34  H   UNL     1      -4.337 -11.294   8.901  0.00  0.00    +0.167 HD
ENDBRANCH  16  20
ENDBRANCH  11  16
TORSDOF 10
ENDMDL
MODEL 5
REMARK VINA RESULT:      -5.8      2.753      7.630
REMARK  Name = 71693104
REMARK  15 active torsions:
REMARK  status: ('A' for Active; 'I' for Inactive)
REMARK    1  A    between atoms: O_2  and  C_30
REMARK    2  A    between atoms: N_4  and  C_15
REMARK    3  A    between atoms: C_8  and  C_12
REMARK    4  A    between atoms: C_9  and  C_15
REMARK    5  A    between atoms: C_11  and  C_16
REMARK    6  A    between atoms: C_12  and  C_17
REMARK    7  A    between atoms: C_12  and  C_18
REMARK    8  A    between atoms: C_13  and  C_19
REMARK    9  A    between atoms: C_16  and  C_20
REMARK   10  A    between atoms: C_21  and  C_23
REMARK   11  A    between atoms: C_22  and  C_23
REMARK   12  A    between atoms: C_22  and  C_24
REMARK   13  A    between atoms: C_22  and  C_26
REMARK   14  A    between atoms: C_22  and  C_27
REMARK   15  A    between atoms: C_24  and  C_30
REMARK                            x       y       z     vdW  Elec       q    Type
REMARK                         _______ _______ _______ _____ _____    ______ ____
ROOT
ATOM      8  C   UNL     1       9.875   6.168   7.361  0.00  0.00    +0.000 C 
ATOM      9  C   UNL     1       9.177   5.781   6.033  0.00  0.00    +0.032 C 
ATOM     10  C   UNL     1       9.057   7.233   8.106  0.00  0.00    +0.012 C 
ATOM     11  C   UNL     1       8.862   8.511   7.266  0.00  0.00    +0.022 C 
ATOM     13  C   UNL     1       8.428   8.192   5.850  0.00  0.00    -0.073 C 
ATOM     14  C   UNL     1       8.565   6.964   5.319  0.00  0.00    -0.022 C 
ATOM     19  C   UNL     1       7.793   9.309   5.070  0.00  0.00    +0.039 C 
ENDROOT
BRANCH   8  12
ATOM     12  C   UNL     1      10.088   4.951   8.267  0.00  0.00    -0.013 C 
ATOM     17  C   UNL     1       9.421   5.173   9.620  0.00  0.00    +0.007 C 
ATOM     18  C   UNL     1       9.550   3.689   7.599  0.00  0.00    +0.007 C 
ENDBRANCH   8  12
BRANCH   9  15
ATOM     15  C   UNL     1      10.146   5.061   5.088  0.00  0.00    +0.112 C 
BRANCH  15   4
ATOM      1  O   UNL     1      11.236   6.301   2.730  0.00  0.00    -0.276 OA
ATOM      4  N   UNL     1      11.381   5.775   4.988  0.00  0.00    -0.315 N 
ATOM     21  C   UNL     1      11.836   6.346   3.802  0.00  0.00    +0.214 C 
ATOM     33  H   UNL     1      11.942   5.870   5.830  0.00  0.00    +0.149 HD
BRANCH  21  23
ATOM     23  C   UNL     1      13.172   7.059   3.942  0.00  0.00    +0.102 C 
BRANCH  23  22
ATOM     22  C   UNL     1      13.080   8.520   4.449  0.00  0.00    -0.017 C 
ATOM     26  C   UNL     1      11.694   9.074   4.055  0.00  0.00    +0.012 C 
ATOM     27  C   UNL     1      14.142   9.399   3.756  0.00  0.00    +0.012 C 
BRANCH  22  24
ATOM     24  C   UNL     1      13.286   8.639   5.978  0.00  0.00    +0.127 C 
BRANCH  24  30
ATOM      3  O   UNL     1      13.482   6.545   7.178  0.00  0.00    -0.251 OA
ATOM     30  C   UNL     1      14.028   7.482   6.612  0.00  0.00    +0.305 C 
BRANCH  30   2
ATOM      2  O   UNL     1      15.375   7.594   6.495  0.00  0.00    -0.481 OA
ATOM     35  H   UNL     1      15.665   7.561   5.558  0.00  0.00    +0.295 HD
ENDBRANCH  30   2
ENDBRANCH  24  30
ENDBRANCH  22  24
ENDBRANCH  23  22
ENDBRANCH  21  23
ENDBRANCH  15   4
ENDBRANCH   9  15
BRANCH  11  16
ATOM     16  C   UNL     1      10.129   9.373   7.272  0.00  0.00    +0.082 C 
BRANCH  16  20
ATOM      5  N   UNL     1       9.050  10.609   9.161  0.00  0.00    -0.341 N 
ATOM      6  N   UNL     1      11.268  10.768   9.035  0.00  0.00    -0.213 NA
ATOM      7  N   UNL     1      11.574  12.195  10.974  0.00  0.00    -0.234 NA
ATOM     20  C   UNL     1      10.187  10.254   8.488  0.00  0.00    +0.110 A 
ATOM     25  C   UNL     1       9.422  11.404  10.211  0.00  0.00    +0.085 A 
ATOM     28  C   UNL     1      10.806  11.487  10.108  0.00  0.00    +0.178 A 
ATOM     29  C   UNL     1       8.719  12.051  11.221  0.00  0.00    +0.031 A 
ATOM     31  C   UNL     1       9.493  12.782  12.118  0.00  0.00    +0.022 A 
ATOM     32  C   UNL     1      10.873  12.818  11.951  0.00  0.00    +0.113 A 
ATOM     34  H   UNL     1       8.104  10.336   8.925  0.00  0.00    +0.167 HD
ENDBRANCH  16  20
ENDBRANCH  11  16
TORSDOF 10
ENDMDL
MODEL 6
REMARK VINA RESULT:      -5.6     27.653     30.844
REMARK  Name = 71693104
REMARK  15 active torsions:
REMARK  status: ('A' for Active; 'I' for Inactive)
REMARK    1  A    between atoms: O_2  and  C_30
REMARK    2  A    between atoms: N_4  and  C_15
REMARK    3  A    between atoms: C_8  and  C_12
REMARK    4  A    between atoms: C_9  and  C_15
REMARK    5  A    between atoms: C_11  and  C_16
REMARK    6  A    between atoms: C_12  and  C_17
REMARK    7  A    between atoms: C_12  and  C_18
REMARK    8  A    between atoms: C_13  and  C_19
REMARK    9  A    between atoms: C_16  and  C_20
REMARK   10  A    between atoms: C_21  and  C_23
REMARK   11  A    between atoms: C_22  and  C_23
REMARK   12  A    between atoms: C_22  and  C_24
REMARK   13  A    between atoms: C_22  and  C_26
REMARK   14  A    between atoms: C_22  and  C_27
REMARK   15  A    between atoms: C_24  and  C_30
REMARK                            x       y       z     vdW  Elec       q    Type
REMARK                         _______ _______ _______ _____ _____    ______ ____
ROOT
ATOM      8  C   UNL     1     -14.043   7.421  20.901  0.00  0.00    +0.000 C 
ATOM      9  C   UNL     1     -14.937   7.509  19.640  0.00  0.00    +0.032 C 
ATOM     10  C   UNL     1     -13.907   5.963  21.363  0.00  0.00    +0.012 C 
ATOM     11  C   UNL     1     -15.273   5.326  21.688  0.00  0.00    +0.022 C 
ATOM     13  C   UNL     1     -16.294   5.601  20.603  0.00  0.00    -0.073 C 
ATOM     14  C   UNL     1     -16.122   6.571  19.688  0.00  0.00    -0.022 C 
ATOM     19  C   UNL     1     -17.500   4.704  20.567  0.00  0.00    +0.039 C 
ENDROOT
BRANCH   8  12
ATOM     12  C   UNL     1     -12.653   8.018  20.655  0.00  0.00    -0.013 C 
ATOM     17  C   UNL     1     -12.409   9.200  21.586  0.00  0.00    +0.007 C 
ATOM     18  C   UNL     1     -11.576   6.953  20.839  0.00  0.00    +0.007 C 
ENDBRANCH   8  12
BRANCH   9  15
ATOM     15  C   UNL     1     -15.430   8.942  19.409  0.00  0.00    +0.112 C 
BRANCH  15   4
ATOM      1  O   UNL     1     -13.727  11.243  19.116  0.00  0.00    -0.276 OA
ATOM      4  N   UNL     1     -14.904   9.469  18.189  0.00  0.00    -0.315 N 
ATOM     21  C   UNL     1     -14.084  10.593  18.136  0.00  0.00    +0.214 C 
ATOM     33  H   UNL     1     -15.141   8.989  17.325  0.00  0.00    +0.149 HD
BRANCH  21  23
ATOM     23  C   UNL     1     -13.644  10.961  16.728  0.00  0.00    +0.102 C 
BRANCH  23  22
ATOM     22  C   UNL     1     -12.255  10.411  16.315  0.00  0.00    -0.017 C 
ATOM     26  C   UNL     1     -11.281  11.604  16.215  0.00  0.00    +0.012 C 
ATOM     27  C   UNL     1     -12.328   9.757  14.919  0.00  0.00    +0.012 C 
BRANCH  22  24
ATOM     24  C   UNL     1     -11.707   9.357  17.308  0.00  0.00    +0.127 C 
BRANCH  24  30
ATOM      3  O   UNL     1     -10.453  10.553  19.000  0.00  0.00    -0.251 OA
ATOM     30  C   UNL     1     -10.458   9.776  18.053  0.00  0.00    +0.305 C 
BRANCH  30   2
ATOM      2  O   UNL     1      -9.332   9.205  17.558  0.00  0.00    -0.481 OA
ATOM     35  H   UNL     1      -8.965   8.532  18.169  0.00  0.00    +0.295 HD
ENDBRANCH  30   2
ENDBRANCH  24  30
ENDBRANCH  22  24
ENDBRANCH  23  22
ENDBRANCH  21  23
ENDBRANCH  15   4
ENDBRANCH   9  15
BRANCH  11  16
ATOM     16  C   UNL     1     -15.786   5.789  23.056  0.00  0.00    +0.082 C 
BRANCH  16  20
ATOM      5  N   UNL     1     -16.083   4.809  25.339  0.00  0.00    -0.341 N 
ATOM      6  N   UNL     1     -16.117   3.362  23.647  0.00  0.00    -0.213 NA
ATOM      7  N   UNL     1     -16.457   1.360  24.976  0.00  0.00    -0.234 NA
ATOM     20  C   UNL     1     -15.996   4.627  23.985  0.00  0.00    +0.110 A 
ATOM     25  C   UNL     1     -16.273   3.580  25.910  0.00  0.00    +0.085 A 
ATOM     28  C   UNL     1     -16.290   2.698  24.835  0.00  0.00    +0.178 A 
ATOM     29  C   UNL     1     -16.429   3.145  27.221  0.00  0.00    +0.031 A 
ATOM     31  C   UNL     1     -16.602   1.773  27.382  0.00  0.00    +0.022 A 
ATOM     32  C   UNL     1     -16.608   0.953  26.258  0.00  0.00    +0.113 A 
ATOM     34  H   UNL     1     -16.017   5.691  25.830  0.00  0.00    +0.167 HD
ENDBRANCH  16  20
ENDBRANCH  11  16
TORSDOF 10
ENDMDL
MODEL 7
REMARK VINA RESULT:      -5.4     26.371     29.620
REMARK  Name = 71693104
REMARK  15 active torsions:
REMARK  status: ('A' for Active; 'I' for Inactive)
REMARK    1  A    between atoms: O_2  and  C_30
REMARK    2  A    between atoms: N_4  and  C_15
REMARK    3  A    between atoms: C_8  and  C_12
REMARK    4  A    between atoms: C_9  and  C_15
REMARK    5  A    between atoms: C_11  and  C_16
REMARK    6  A    between atoms: C_12  and  C_17
REMARK    7  A    between atoms: C_12  and  C_18
REMARK    8  A    between atoms: C_13  and  C_19
REMARK    9  A    between atoms: C_16  and  C_20
REMARK   10  A    between atoms: C_21  and  C_23
REMARK   11  A    between atoms: C_22  and  C_23
REMARK   12  A    between atoms: C_22  and  C_24
REMARK   13  A    between atoms: C_22  and  C_26
REMARK   14  A    between atoms: C_22  and  C_27
REMARK   15  A    between atoms: C_24  and  C_30
REMARK                            x       y       z     vdW  Elec       q    Type
REMARK                         _______ _______ _______ _____ _____    ______ ____
ROOT
ATOM      8  C   UNL     1     -13.274  10.864  21.828  0.00  0.00    +0.000 C 
ATOM      9  C   UNL     1     -12.043  10.899  20.888  0.00  0.00    +0.032 C 
ATOM     10  C   UNL     1     -13.233   9.614  22.718  0.00  0.00    +0.012 C 
ATOM     11  C   UNL     1     -13.211   8.311  21.894  0.00  0.00    +0.022 C 
ATOM     13  C   UNL     1     -12.198   8.375  20.769  0.00  0.00    -0.073 C 
ATOM     14  C   UNL     1     -11.677   9.539  20.341  0.00  0.00    -0.022 C 
ATOM     19  C   UNL     1     -11.765   7.064  20.175  0.00  0.00    +0.039 C 
ENDROOT
BRANCH   8  12
ATOM     12  C   UNL     1     -13.357  12.120  22.702  0.00  0.00    -0.013 C 
ATOM     17  C   UNL     1     -14.790  12.347  23.170  0.00  0.00    +0.007 C 
ATOM     18  C   UNL     1     -12.411  12.003  23.893  0.00  0.00    +0.007 C 
ENDBRANCH   8  12
BRANCH   9  15
ATOM     15  C   UNL     1     -12.262  11.874  19.726  0.00  0.00    +0.112 C 
BRANCH  15   4
ATOM      1  O   UNL     1     -12.754  12.930  17.094  0.00  0.00    -0.276 OA
ATOM      4  N   UNL     1     -11.925  11.261  18.479  0.00  0.00    -0.315 N 
ATOM     21  C   UNL     1     -12.201  11.843  17.244  0.00  0.00    +0.214 C 
ATOM     33  H   UNL     1     -11.456  10.360  18.506  0.00  0.00    +0.149 HD
BRANCH  21  23
ATOM     23  C   UNL     1     -11.744  11.007  16.060  0.00  0.00    +0.102 C 
BRANCH  23  22
ATOM     22  C   UNL     1     -12.560   9.711  15.825  0.00  0.00    -0.017 C 
ATOM     26  C   UNL     1     -12.418   9.322  14.337  0.00  0.00    +0.012 C 
ATOM     27  C   UNL     1     -14.059   9.961  16.093  0.00  0.00    +0.012 C 
BRANCH  22  24
ATOM     24  C   UNL     1     -12.102   8.540  16.727  0.00  0.00    +0.127 C 
BRANCH  24  30
ATOM      3  O   UNL     1      -9.865   9.041  17.507  0.00  0.00    -0.251 OA
ATOM     30  C   UNL     1     -10.603   8.353  16.813  0.00  0.00    +0.305 C 
BRANCH  30   2
ATOM      2  O   UNL     1     -10.152   7.342  16.030  0.00  0.00    -0.481 OA
ATOM     35  H   UNL     1      -9.329   7.586  15.556  0.00  0.00    +0.295 HD
ENDBRANCH  30   2
ENDBRANCH  24  30
ENDBRANCH  22  24
ENDBRANCH  23  22
ENDBRANCH  21  23
ENDBRANCH  15   4
ENDBRANCH   9  15
BRANCH  11  16
ATOM     16  C   UNL     1     -14.607   7.975  21.357  0.00  0.00    +0.082 C 
BRANCH  16  20
ATOM      5  N   UNL     1     -14.725   6.266  23.181  0.00  0.00    -0.341 N 
ATOM      6  N   UNL     1     -15.979   5.861  21.386  0.00  0.00    -0.213 NA
ATOM      7  N   UNL     1     -16.931   3.765  22.156  0.00  0.00    -0.234 NA
ATOM     20  C   UNL     1     -15.126   6.693  21.944  0.00  0.00    +0.110 A 
ATOM     25  C   UNL     1     -15.362   5.082  23.437  0.00  0.00    +0.085 A 
ATOM     28  C   UNL     1     -16.135   4.854  22.305  0.00  0.00    +0.178 A 
ATOM     29  C   UNL     1     -15.351   4.199  24.511  0.00  0.00    +0.031 A 
ATOM     31  C   UNL     1     -16.163   3.077  24.374  0.00  0.00    +0.022 A 
ATOM     32  C   UNL     1     -16.908   2.917  23.211  0.00  0.00    +0.113 A 
ATOM     34  H   UNL     1     -14.074   6.738  23.796  0.00  0.00    +0.167 HD
ENDBRANCH  16  20
ENDBRANCH  11  16
TORSDOF 10
ENDMDL
MODEL 8
REMARK VINA RESULT:      -5.4      3.171      7.425
REMARK  Name = 71693104
REMARK  15 active torsions:
REMARK  status: ('A' for Active; 'I' for Inactive)
REMARK    1  A    between atoms: O_2  and  C_30
REMARK    2  A    between atoms: N_4  and  C_15
REMARK    3  A    between atoms: C_8  and  C_12
REMARK    4  A    between atoms: C_9  and  C_15
REMARK    5  A    between atoms: C_11  and  C_16
REMARK    6  A    between atoms: C_12  and  C_17
REMARK    7  A    between atoms: C_12  and  C_18
REMARK    8  A    between atoms: C_13  and  C_19
REMARK    9  A    between atoms: C_16  and  C_20
REMARK   10  A    between atoms: C_21  and  C_23
REMARK   11  A    between atoms: C_22  and  C_23
REMARK   12  A    between atoms: C_22  and  C_24
REMARK   13  A    between atoms: C_22  and  C_26
REMARK   14  A    between atoms: C_22  and  C_27
REMARK   15  A    between atoms: C_24  and  C_30
REMARK                            x       y       z     vdW  Elec       q    Type
REMARK                         _______ _______ _______ _____ _____    ______ ____
ROOT
ATOM      8  C   UNL     1      10.840   6.190   5.668  0.00  0.00    +0.000 C 
ATOM      9  C   UNL     1      10.594   6.354   4.147  0.00  0.00    +0.032 C 
ATOM     10  C   UNL     1      11.170   7.546   6.307  0.00  0.00    +0.012 C 
ATOM     11  C   UNL     1      12.417   8.199   5.678  0.00  0.00    +0.022 C 
ATOM     13  C   UNL     1      12.370   8.158   4.164  0.00  0.00    -0.073 C 
ATOM     14  C   UNL     1      11.540   7.337   3.497  0.00  0.00    -0.022 C 
ATOM     19  C   UNL     1      13.270   9.115   3.434  0.00  0.00    +0.039 C 
ENDROOT
BRANCH   8  12
ATOM     12  C   UNL     1       9.634   5.563   6.375  0.00  0.00    -0.013 C 
ATOM     17  C   UNL     1       9.914   5.405   7.865  0.00  0.00    +0.007 C 
ATOM     18  C   UNL     1       8.385   6.409   6.146  0.00  0.00    +0.007 C 
ENDBRANCH   8  12
BRANCH   9  15
ATOM     15  C   UNL     1      10.682   5.006   3.423  0.00  0.00    +0.112 C 
BRANCH  15   4
ATOM      1  O   UNL     1       9.910   3.913   0.875  0.00  0.00    -0.276 OA
ATOM      4  N   UNL     1      11.384   5.140   2.185  0.00  0.00    -0.315 N 
ATOM     21  C   UNL     1      10.938   4.576   0.992  0.00  0.00    +0.214 C 
ATOM     33  H   UNL     1      12.244   5.681   2.185  0.00  0.00    +0.149 HD
BRANCH  21  23
ATOM     23  C   UNL     1      11.847   4.858  -0.193  0.00  0.00    +0.102 C 
BRANCH  23  22
ATOM     22  C   UNL     1      12.977   3.820  -0.408  0.00  0.00    -0.017 C 
ATOM     26  C   UNL     1      14.171   4.545  -1.067  0.00  0.00    +0.012 C 
ATOM     27  C   UNL     1      12.516   2.716  -1.382  0.00  0.00    +0.012 C 
BRANCH  22  24
ATOM     24  C   UNL     1      13.427   3.140   0.907  0.00  0.00    +0.127 C 
BRANCH  24  30
ATOM      3  O   UNL     1      14.473   4.987   2.072  0.00  0.00    -0.251 OA
ATOM     30  C   UNL     1      14.550   3.846   1.635  0.00  0.00    +0.305 C 
BRANCH  30   2
ATOM      2  O   UNL     1      15.666   3.083   1.750  0.00  0.00    -0.481 OA
ATOM     35  H   UNL     1      16.380   3.387   1.150  0.00  0.00    +0.295 HD
ENDBRANCH  30   2
ENDBRANCH  24  30
ENDBRANCH  22  24
ENDBRANCH  23  22
ENDBRANCH  21  23
ENDBRANCH  15   4
ENDBRANCH   9  15
BRANCH  11  16
ATOM     16  C   UNL     1      13.703   7.554   6.206  0.00  0.00    +0.082 C 
BRANCH  16  20
ATOM      5  N   UNL     1      16.100   8.170   5.835  0.00  0.00    -0.341 N 
ATOM      6  N   UNL     1      14.784   9.796   6.602  0.00  0.00    -0.213 NA
ATOM      7  N   UNL     1      16.483  11.526   6.710  0.00  0.00    -0.234 NA
ATOM     20  C   UNL     1      14.841   8.536   6.228  0.00  0.00    +0.110 A 
ATOM     25  C   UNL     1      16.907   9.268   5.964  0.00  0.00    +0.085 A 
ATOM     28  C   UNL     1      16.064  10.264   6.443  0.00  0.00    +0.178 A 
ATOM     29  C   UNL     1      18.257   9.499   5.722  0.00  0.00    +0.031 A 
ATOM     31  C   UNL     1      18.702  10.791   5.991  0.00  0.00    +0.022 A 
ATOM     32  C   UNL     1      17.798  11.734   6.469  0.00  0.00    +0.113 A 
ATOM     34  H   UNL     1      16.384   7.255   5.510  0.00  0.00    +0.167 HD
ENDBRANCH  16  20
ENDBRANCH  11  16
TORSDOF 10
ENDMDL
MODEL 9
REMARK VINA RESULT:      -5.3     25.907     28.405
REMARK  Name = 71693104
REMARK  15 active torsions:
REMARK  status: ('A' for Active; 'I' for Inactive)
REMARK    1  A    between atoms: O_2  and  C_30
REMARK    2  A    between atoms: N_4  and  C_15
REMARK    3  A    between atoms: C_8  and  C_12
REMARK    4  A    between atoms: C_9  and  C_15
REMARK    5  A    between atoms: C_11  and  C_16
REMARK    6  A    between atoms: C_12  and  C_17
REMARK    7  A    between atoms: C_12  and  C_18
REMARK    8  A    between atoms: C_13  and  C_19
REMARK    9  A    between atoms: C_16  and  C_20
REMARK   10  A    between atoms: C_21  and  C_23
REMARK   11  A    between atoms: C_22  and  C_23
REMARK   12  A    between atoms: C_22  and  C_24
REMARK   13  A    between atoms: C_22  and  C_26
REMARK   14  A    between atoms: C_22  and  C_27
REMARK   15  A    between atoms: C_24  and  C_30
REMARK                            x       y       z     vdW  Elec       q    Type
REMARK                         _______ _______ _______ _____ _____    ______ ____
ROOT
ATOM      8  C   UNL     1      -8.195 -12.263  17.384  0.00  0.00    +0.000 C 
ATOM      9  C   UNL     1      -8.086 -12.475  18.915  0.00  0.00    +0.032 C 
ATOM     10  C   UNL     1      -6.910 -12.732  16.686  0.00  0.00    +0.012 C 
ATOM     11  C   UNL     1      -5.663 -11.983  17.195  0.00  0.00    +0.022 C 
ATOM     13  C   UNL     1      -5.626 -11.917  18.708  0.00  0.00    -0.073 C 
ATOM     14  C   UNL     1      -6.715 -12.153  19.461  0.00  0.00    -0.022 C 
ATOM     19  C   UNL     1      -4.295 -11.617  19.339  0.00  0.00    +0.039 C 
ENDROOT
BRANCH   8  12
ATOM     12  C   UNL     1      -9.403 -12.997  16.792  0.00  0.00    -0.013 C 
ATOM     17  C   UNL     1      -9.279 -13.088  15.275  0.00  0.00    +0.007 C 
ATOM     18  C   UNL     1      -9.537 -14.386  17.409  0.00  0.00    +0.007 C 
ENDBRANCH   8  12
BRANCH   9  15
ATOM     15  C   UNL     1      -9.140 -11.651  19.663  0.00  0.00    +0.112 C 
BRANCH  15   4
ATOM      1  O   UNL     1     -11.598 -10.468  18.746  0.00  0.00    -0.276 OA
ATOM      4  N   UNL     1      -9.300 -10.364  19.061  0.00  0.00    -0.315 N 
ATOM     21  C   UNL     1     -10.532  -9.866  18.643  0.00  0.00    +0.214 C 
ATOM     33  H   UNL     1      -8.469  -9.791  18.942  0.00  0.00    +0.149 HD
BRANCH  21  23
ATOM     23  C   UNL     1     -10.453  -8.474  18.038  0.00  0.00    +0.102 C 
BRANCH  23  22
ATOM     22  C   UNL     1     -10.778  -8.403  16.524  0.00  0.00    -0.017 C 
ATOM     26  C   UNL     1     -10.150  -7.109  15.963  0.00  0.00    +0.012 C 
ATOM     27  C   UNL     1     -12.302  -8.308  16.304  0.00  0.00    +0.012 C 
BRANCH  22  24
ATOM     24  C   UNL     1     -10.258  -9.631  15.740  0.00  0.00    +0.127 C 
BRANCH  24  30
ATOM      3  O   UNL     1     -10.075  -9.172  13.369  0.00  0.00    -0.251 OA
ATOM     30  C   UNL     1      -9.527  -9.303  14.456  0.00  0.00    +0.305 C 
BRANCH  30   2
ATOM      2  O   UNL     1      -8.188  -9.174  14.630  0.00  0.00    -0.481 OA
ATOM     35  H   UNL     1      -7.686  -9.473  13.842  0.00  0.00    +0.295 HD
ENDBRANCH  30   2
ENDBRANCH  24  30
ENDBRANCH  22  24
ENDBRANCH  23  22
ENDBRANCH  21  23
ENDBRANCH  15   4
ENDBRANCH   9  15
BRANCH  11  16
ATOM     16  C   UNL     1      -5.573 -10.581  16.582  0.00  0.00    +0.082 C 
BRANCH  16  20
ATOM      5  N   UNL     1      -5.261 -10.353  14.110  0.00  0.00    -0.341 N 
ATOM      6  N   UNL     1      -3.419 -10.773  15.289  0.00  0.00    -0.213 NA
ATOM      7  N   UNL     1      -1.871 -10.806  13.420  0.00  0.00    -0.234 NA
ATOM     20  C   UNL     1      -4.718 -10.576  15.347  0.00  0.00    +0.110 A 
ATOM     25  C   UNL     1      -4.244 -10.408  13.196  0.00  0.00    +0.085 A 
ATOM     28  C   UNL     1      -3.110 -10.672  13.956  0.00  0.00    +0.178 A 
ATOM     29  C   UNL     1      -4.186 -10.262  11.815  0.00  0.00    +0.031 A 
ATOM     31  C   UNL     1      -2.921 -10.397  11.249  0.00  0.00    +0.022 A 
ATOM     32  C   UNL     1      -1.833 -10.660  12.074  0.00  0.00    +0.113 A 
ATOM     34  H   UNL     1      -6.237 -10.179  13.907  0.00  0.00    +0.167 HD
ENDBRANCH  16  20
ENDBRANCH  11  16
TORSDOF 10
ENDMDL
MODEL 10
REMARK VINA RESULT:      -5.2      2.942      7.668
REMARK  Name = 71693104
REMARK  15 active torsions:
REMARK  status: ('A' for Active; 'I' for Inactive)
REMARK    1  A    between atoms: O_2  and  C_30
REMARK    2  A    between atoms: N_4  and  C_15
REMARK    3  A    between atoms: C_8  and  C_12
REMARK    4  A    between atoms: C_9  and  C_15
REMARK    5  A    between atoms: C_11  and  C_16
REMARK    6  A    between atoms: C_12  and  C_17
REMARK    7  A    between atoms: C_12  and  C_18
REMARK    8  A    between atoms: C_13  and  C_19
REMARK    9  A    between atoms: C_16  and  C_20
REMARK   10  A    between atoms: C_21  and  C_23
REMARK   11  A    between atoms: C_22  and  C_23
REMARK   12  A    between atoms: C_22  and  C_24
REMARK   13  A    between atoms: C_22  and  C_26
REMARK   14  A    between atoms: C_22  and  C_27
REMARK   15  A    between atoms: C_24  and  C_30
REMARK                            x       y       z     vdW  Elec       q    Type
REMARK                         _______ _______ _______ _____ _____    ______ ____
ROOT
ATOM      8  C   UNL     1      11.085   7.370   5.305  0.00  0.00    +0.000 C 
ATOM      9  C   UNL     1      11.099   5.823   5.224  0.00  0.00    +0.032 C 
ATOM     10  C   UNL     1      11.291   7.832   6.755  0.00  0.00    +0.012 C 
ATOM     11  C   UNL     1      10.205   7.284   7.702  0.00  0.00    +0.022 C 
ATOM     13  C   UNL     1       9.971   5.802   7.491  0.00  0.00    -0.073 C 
ATOM     14  C   UNL     1      10.389   5.163   6.384  0.00  0.00    -0.022 C 
ATOM     19  C   UNL     1       9.284   5.061   8.604  0.00  0.00    +0.039 C 
ENDROOT
BRANCH   8  12
ATOM     12  C   UNL     1      12.155   7.995   4.404  0.00  0.00    -0.013 C 
ATOM     17  C   UNL     1      12.052   9.517   4.436  0.00  0.00    +0.007 C 
ATOM     18  C   UNL     1      13.545   7.538   4.832  0.00  0.00    +0.007 C 
ENDBRANCH   8  12
BRANCH   9  15
ATOM     15  C   UNL     1      10.488   5.332   3.907  0.00  0.00    +0.112 C 
BRANCH  15   4
ATOM      1  O   UNL     1      10.021   3.945   1.428  0.00  0.00    -0.276 OA
ATOM      4  N   UNL     1      11.437   4.565   3.162  0.00  0.00    -0.315 N 
ATOM     21  C   UNL     1      11.127   3.922   1.966  0.00  0.00    +0.214 C 
ATOM     33  H   UNL     1      12.383   4.497   3.528  0.00  0.00    +0.149 HD
BRANCH  21  23
ATOM     23  C   UNL     1      12.299   3.173   1.354  0.00  0.00    +0.102 C 
BRANCH  23  22
ATOM     22  C   UNL     1      12.874   3.807   0.062  0.00  0.00    -0.017 C 
ATOM     26  C   UNL     1      12.283   5.227  -0.075  0.00  0.00    +0.012 C 
ATOM     27  C   UNL     1      12.428   3.002  -1.177  0.00  0.00    +0.012 C 
BRANCH  22  24
ATOM     24  C   UNL     1      14.420   3.870   0.060  0.00  0.00    +0.127 C 
BRANCH  24  30
ATOM      3  O   UNL     1      15.011   5.252   1.958  0.00  0.00    -0.251 OA
ATOM     30  C   UNL     1      15.045   4.160   1.407  0.00  0.00    +0.305 C 
BRANCH  30   2
ATOM      2  O   UNL     1      15.662   3.078   1.945  0.00  0.00    -0.481 OA
ATOM     35  H   UNL     1      16.484   3.325   2.420  0.00  0.00    +0.295 HD
ENDBRANCH  30   2
ENDBRANCH  24  30
ENDBRANCH  22  24
ENDBRANCH  23  22
ENDBRANCH  21  23
ENDBRANCH  15   4
ENDBRANCH   9  15
BRANCH  11  16
ATOM     16  C   UNL     1       8.899   8.072   7.558  0.00  0.00    +0.082 C 
BRANCH  16  20
ATOM      5  N   UNL     1       9.496  10.240   8.656  0.00  0.00    -0.341 N 
ATOM      6  N   UNL     1       9.083  10.338   6.470  0.00  0.00    -0.213 NA
ATOM      7  N   UNL     1       9.450  12.722   6.205  0.00  0.00    -0.234 NA
ATOM     20  C   UNL     1       9.152   9.553   7.523  0.00  0.00    +0.110 A 
ATOM     25  C   UNL     1       9.660  11.553   8.309  0.00  0.00    +0.085 A 
ATOM     28  C   UNL     1       9.396  11.586   6.944  0.00  0.00    +0.178 A 
ATOM     29  C   UNL     1      10.002  12.698   9.020  0.00  0.00    +0.031 A 
ATOM     31  C   UNL     1      10.062  13.872   8.275  0.00  0.00    +0.022 A 
ATOM     32  C   UNL     1       9.785  13.827   6.913  0.00  0.00    +0.113 A 
ATOM     34  H   UNL     1       9.608   9.849   9.583  0.00  0.00    +0.167 HD
ENDBRANCH  16  20
ENDBRANCH  11  16
TORSDOF 10
ENDMDL
