MODEL 1
REMARK VINA RESULT:      -7.2      0.000      0.000
REMARK  Name = 11911954
REMARK  6 active torsions:
REMARK  status: ('A' for Active; 'I' for Inactive)
REMARK    1  A    between atoms: N_3  and  C_9
REMARK    2  A    between atoms: N_4  and  C_10
REMARK    3  A    between atoms: N_4  and  C_22
REMARK    4  A    between atoms: C_13  and  C_16
REMARK    5  A    between atoms: C_16  and  C_20
REMARK    6  A    between atoms: C_22  and  C_23
REMARK                            x       y       z     vdW  Elec       q    Type
REMARK                         _______ _______ _______ _____ _____    ______ ____
ROOT
ATOM      1  O   UNL     1     -16.222   4.420  25.711  0.00  0.00    -0.370 OA
ATOM      2  O   UNL     1     -17.542   1.714  24.318  0.00  0.00    -0.370 OA
ATOM      7  C   UNL     1     -16.535   2.093  25.269  0.00  0.00    +0.175 C 
ATOM      8  C   UNL     1     -15.916   3.388  24.766  0.00  0.00    +0.168 C 
ATOM      9  C   UNL     1     -17.169   2.434  26.606  0.00  0.00    +0.166 C 
ATOM     10  C   UNL     1     -16.604   3.663  23.438  0.00  0.00    +0.111 C 
ATOM     11  C   UNL     1     -17.269   3.954  26.572  0.00  0.00    +0.189 C 
ATOM     12  C   UNL     1     -17.190   2.317  23.070  0.00  0.00    +0.181 C 
ENDROOT
BRANCH   9   3
ATOM      3  N   UNL     1     -16.407   1.923  27.750  0.00  0.00    -0.244 N 
ATOM      5  N   UNL     1     -16.461   0.623  28.084  0.00  0.00    -0.065 NA
ATOM      6  N   UNL     1     -15.685   0.456  29.149  0.00  0.00    -0.134 NA
ATOM     17  C   UNL     1     -15.596   2.623  28.588  0.00  0.00    +0.134 A 
ATOM     20  C   UNL     1     -15.164   1.668  29.449  0.00  0.00    +0.083 A 
BRANCH  20  16
ATOM     16  C   UNL     1     -14.235   1.825  30.611  0.00  0.00    +0.062 C 
BRANCH  16  13
ATOM     13  C   UNL     1     -14.544   3.073  31.436  0.00  0.00    -0.005 C 
ATOM     14  C   UNL     1     -15.382   2.712  32.670  0.00  0.00    +0.004 C 
ATOM     15  C   UNL     1     -13.248   3.786  31.846  0.00  0.00    +0.004 C 
ATOM     18  C   UNL     1     -15.659   3.937  33.540  0.00  0.00    +0.000 C 
ATOM     19  C   UNL     1     -13.529   5.009  32.717  0.00  0.00    +0.000 C 
ATOM     21  C   UNL     1     -14.370   4.648  33.937  0.00  0.00    +0.000 C 
ENDBRANCH  16  13
ENDBRANCH  20  16
ENDBRANCH   9   3
BRANCH  10   4
ATOM      4  N   UNL     1     -15.710   4.163  22.433  0.00  0.00    -0.305 NA
ATOM     29  H   UNL     1     -16.003   3.826  21.515  0.00  0.00    +0.123 HD
BRANCH   4  22
ATOM     22  C   UNL     1     -15.689   5.617  22.439  0.00  0.00    +0.116 C 
BRANCH  22  23
ATOM     23  C   UNL     1     -14.507   6.163  21.682  0.00  0.00    -0.034 A 
ATOM     24  C   UNL     1     -13.234   5.687  21.965  0.00  0.00    +0.005 A 
ATOM     25  C   UNL     1     -14.706   7.137  20.714  0.00  0.00    +0.005 A 
ATOM     26  C   UNL     1     -12.140   6.193  21.265  0.00  0.00    +0.000 A 
ATOM     27  C   UNL     1     -13.612   7.643  20.012  0.00  0.00    +0.000 A 
ATOM     28  C   UNL     1     -12.328   7.172  20.288  0.00  0.00    +0.000 A 
ENDBRANCH  22  23
ENDBRANCH   4  22
ENDBRANCH  10   4
TORSDOF 6
ENDMDL
MODEL 2
REMARK VINA RESULT:      -7.2      1.690      9.577
REMARK  Name = 11911954
REMARK  6 active torsions:
REMARK  status: ('A' for Active; 'I' for Inactive)
REMARK    1  A    between atoms: N_3  and  C_9
REMARK    2  A    between atoms: N_4  and  C_10
REMARK    3  A    between atoms: N_4  and  C_22
REMARK    4  A    between atoms: C_13  and  C_16
REMARK    5  A    between atoms: C_16  and  C_20
REMARK    6  A    between atoms: C_22  and  C_23
REMARK                            x       y       z     vdW  Elec       q    Type
REMARK                         _______ _______ _______ _____ _____    ______ ____
ROOT
ATOM      1  O   UNL     1     -16.446   2.429  23.738  0.00  0.00    -0.370 OA
ATOM      2  O   UNL     1     -17.146   4.925  25.807  0.00  0.00    -0.370 OA
ATOM      7  C   UNL     1     -16.159   4.528  24.843  0.00  0.00    +0.175 C 
ATOM      8  C   UNL     1     -16.003   3.019  24.965  0.00  0.00    +0.168 C 
ATOM      9  C   UNL     1     -16.665   4.775  23.433  0.00  0.00    +0.166 C 
ATOM     10  C   UNL     1     -16.923   2.621  26.109  0.00  0.00    +0.111 C 
ATOM     11  C   UNL     1     -17.188   3.410  23.002  0.00  0.00    +0.189 C 
ATOM     12  C   UNL     1     -17.159   3.929  26.832  0.00  0.00    +0.181 C 
ENDROOT
BRANCH   9   3
ATOM      3  N   UNL     1     -15.636   5.316  22.540  0.00  0.00    -0.244 N 
ATOM      5  N   UNL     1     -15.976   5.915  21.386  0.00  0.00    -0.065 NA
ATOM      6  N   UNL     1     -14.851   6.295  20.792  0.00  0.00    -0.134 NA
ATOM     17  C   UNL     1     -14.288   5.297  22.716  0.00  0.00    +0.134 A 
ATOM     20  C   UNL     1     -13.833   5.919  21.601  0.00  0.00    +0.083 A 
BRANCH  20  16
ATOM     16  C   UNL     1     -12.416   6.205  21.215  0.00  0.00    +0.062 C 
BRANCH  16  13
ATOM     13  C   UNL     1     -12.312   7.320  20.175  0.00  0.00    -0.005 C 
ATOM     14  C   UNL     1     -11.950   8.653  20.844  0.00  0.00    +0.004 C 
ATOM     15  C   UNL     1     -11.287   6.956  19.092  0.00  0.00    +0.004 C 
ATOM     18  C   UNL     1     -11.788   9.772  19.818  0.00  0.00    +0.000 C 
ATOM     19  C   UNL     1     -11.127   8.078  18.069  0.00  0.00    +0.000 C 
ATOM     21  C   UNL     1     -10.776   9.403  18.738  0.00  0.00    +0.000 C 
ENDBRANCH  16  13
ENDBRANCH  20  16
ENDBRANCH   9   3
BRANCH  10   4
ATOM      4  N   UNL     1     -16.357   1.617  26.964  0.00  0.00    -0.305 NA
ATOM     29  H   UNL     1     -15.342   1.721  26.991  0.00  0.00    +0.123 HD
BRANCH   4  22
ATOM     22  C   UNL     1     -16.897   1.724  28.311  0.00  0.00    +0.116 C 
BRANCH  22  23
ATOM     23  C   UNL     1     -15.819   1.611  29.357  0.00  0.00    -0.034 A 
ATOM     24  C   UNL     1     -15.703   0.442  30.096  0.00  0.00    +0.005 A 
ATOM     25  C   UNL     1     -14.958   2.678  29.569  0.00  0.00    +0.005 A 
ATOM     26  C   UNL     1     -14.706   0.338  31.065  0.00  0.00    +0.000 A 
ATOM     27  C   UNL     1     -13.960   2.574  30.538  0.00  0.00    +0.000 A 
ATOM     28  C   UNL     1     -13.834   1.404  31.287  0.00  0.00    +0.000 A 
ENDBRANCH  22  23
ENDBRANCH   4  22
ENDBRANCH  10   4
TORSDOF 6
ENDMDL
MODEL 3
REMARK VINA RESULT:      -7.2     27.160     31.172
REMARK  Name = 11911954
REMARK  6 active torsions:
REMARK  status: ('A' for Active; 'I' for Inactive)
REMARK    1  A    between atoms: N_3  and  C_9
REMARK    2  A    between atoms: N_4  and  C_10
REMARK    3  A    between atoms: N_4  and  C_22
REMARK    4  A    between atoms: C_13  and  C_16
REMARK    5  A    between atoms: C_16  and  C_20
REMARK    6  A    between atoms: C_22  and  C_23
REMARK                            x       y       z     vdW  Elec       q    Type
REMARK                         _______ _______ _______ _____ _____    ______ ____
ROOT
ATOM      1  O   UNL     1      13.213  10.078  20.580  0.00  0.00    -0.370 OA
ATOM      2  O   UNL     1      11.274   7.420  20.159  0.00  0.00    -0.370 OA
ATOM      7  C   UNL     1      11.726   8.585  19.453  0.00  0.00    +0.175 C 
ATOM      8  C   UNL     1      11.834   9.708  20.474  0.00  0.00    +0.168 C 
ATOM      9  C   UNL     1      13.135   8.373  18.927  0.00  0.00    +0.166 C 
ATOM     10  C   UNL     1      11.346   9.099  21.779  0.00  0.00    +0.111 C 
ATOM     11  C   UNL     1      14.009   9.049  19.976  0.00  0.00    +0.189 C 
ATOM     12  C   UNL     1      10.581   7.876  21.324  0.00  0.00    +0.181 C 
ENDROOT
BRANCH   9   3
ATOM      3  N   UNL     1      13.328   8.904  17.574  0.00  0.00    -0.244 N 
ATOM      5  N   UNL     1      13.422   8.076  16.520  0.00  0.00    -0.065 NA
ATOM      6  N   UNL     1      13.597   8.830  15.440  0.00  0.00    -0.134 NA
ATOM     17  C   UNL     1      13.440  10.207  17.199  0.00  0.00    +0.134 A 
ATOM     20  C   UNL     1      13.607  10.117  15.857  0.00  0.00    +0.083 A 
BRANCH  20  16
ATOM     16  C   UNL     1      13.787  11.228  14.872  0.00  0.00    +0.062 C 
BRANCH  16  13
ATOM     13  C   UNL     1      15.181  11.229  14.247  0.00  0.00    -0.005 C 
ATOM     14  C   UNL     1      15.189  12.034  12.940  0.00  0.00    +0.004 C 
ATOM     15  C   UNL     1      16.217  11.782  15.235  0.00  0.00    +0.004 C 
ATOM     18  C   UNL     1      16.585  12.093  12.324  0.00  0.00    +0.000 C 
ATOM     19  C   UNL     1      17.611  11.842  14.615  0.00  0.00    +0.000 C 
ATOM     21  C   UNL     1      17.613  12.635  13.311  0.00  0.00    +0.000 C 
ENDBRANCH  16  13
ENDBRANCH  20  16
ENDBRANCH   9   3
BRANCH  10   4
ATOM      4  N   UNL     1      10.532   9.996  22.550  0.00  0.00    -0.305 NA
ATOM     29  H   UNL     1       9.689   9.514  22.861  0.00  0.00    +0.123 HD
BRANCH   4  22
ATOM     22  C   UNL     1      11.266  10.495  23.703  0.00  0.00    +0.116 C 
BRANCH  22  23
ATOM     23  C   UNL     1      10.914  11.926  24.014  0.00  0.00    -0.034 A 
ATOM     24  C   UNL     1      10.840  12.339  25.338  0.00  0.00    +0.005 A 
ATOM     25  C   UNL     1      10.667  12.810  22.974  0.00  0.00    +0.005 A 
ATOM     26  C   UNL     1      10.513  13.664  25.626  0.00  0.00    +0.000 A 
ATOM     27  C   UNL     1      10.341  14.136  23.262  0.00  0.00    +0.000 A 
ATOM     28  C   UNL     1      10.263  14.563  24.588  0.00  0.00    +0.000 A 
ENDBRANCH  22  23
ENDBRANCH   4  22
ENDBRANCH  10   4
TORSDOF 6
ENDMDL
MODEL 4
REMARK VINA RESULT:      -7.1      5.493     10.056
REMARK  Name = 11911954
REMARK  6 active torsions:
REMARK  status: ('A' for Active; 'I' for Inactive)
REMARK    1  A    between atoms: N_3  and  C_9
REMARK    2  A    between atoms: N_4  and  C_10
REMARK    3  A    between atoms: N_4  and  C_22
REMARK    4  A    between atoms: C_13  and  C_16
REMARK    5  A    between atoms: C_16  and  C_20
REMARK    6  A    between atoms: C_22  and  C_23
REMARK                            x       y       z     vdW  Elec       q    Type
REMARK                         _______ _______ _______ _____ _____    ______ ____
ROOT
ATOM      1  O   UNL     1     -15.890   6.379  32.578  0.00  0.00    -0.370 OA
ATOM      2  O   UNL     1     -13.854   6.075  35.179  0.00  0.00    -0.370 OA
ATOM      7  C   UNL     1     -13.826   6.401  33.782  0.00  0.00    +0.175 C 
ATOM      8  C   UNL     1     -14.866   5.524  33.101  0.00  0.00    +0.168 C 
ATOM      9  C   UNL     1     -14.287   7.831  33.562  0.00  0.00    +0.166 C 
ATOM     10  C   UNL     1     -15.423   4.644  34.208  0.00  0.00    +0.111 C 
ATOM     11  C   UNL     1     -15.754   7.673  33.179  0.00  0.00    +0.189 C 
ATOM     12  C   UNL     1     -14.371   4.745  35.290  0.00  0.00    +0.181 C 
ENDROOT
BRANCH   9   3
ATOM      3  N   UNL     1     -13.493   8.543  32.556  0.00  0.00    -0.244 N 
ATOM      5  N   UNL     1     -12.232   8.166  32.286  0.00  0.00    -0.065 NA
ATOM      6  N   UNL     1     -11.767   8.985  31.350  0.00  0.00    -0.134 NA
ATOM     17  C   UNL     1     -13.870   9.610  31.801  0.00  0.00    +0.134 A 
ATOM     20  C   UNL     1     -12.762   9.856  31.060  0.00  0.00    +0.083 A 
BRANCH  20  16
ATOM     16  C   UNL     1     -12.557  10.922  30.030  0.00  0.00    +0.062 C 
BRANCH  16  13
ATOM     13  C   UNL     1     -12.222  10.344  28.656  0.00  0.00    -0.005 C 
ATOM     14  C   UNL     1     -13.265  10.778  27.617  0.00  0.00    +0.004 C 
ATOM     15  C   UNL     1     -10.811  10.761  28.222  0.00  0.00    +0.004 C 
ATOM     18  C   UNL     1     -12.922  10.256  26.224  0.00  0.00    +0.000 C 
ATOM     19  C   UNL     1     -10.473  10.239  26.827  0.00  0.00    +0.000 C 
ATOM     21  C   UNL     1     -11.516  10.665  25.799  0.00  0.00    +0.000 C 
ENDBRANCH  16  13
ENDBRANCH  20  16
ENDBRANCH   9   3
BRANCH  10   4
ATOM      4  N   UNL     1     -15.649   3.289  33.791  0.00  0.00    -0.305 NA
ATOM     29  H   UNL     1     -16.532   3.229  33.283  0.00  0.00    +0.123 HD
BRANCH   4  22
ATOM     22  C   UNL     1     -14.562   2.822  32.945  0.00  0.00    +0.116 C 
BRANCH  22  23
ATOM     23  C   UNL     1     -15.072   2.089  31.733  0.00  0.00    -0.034 A 
ATOM     24  C   UNL     1     -15.808   2.776  30.778  0.00  0.00    +0.005 A 
ATOM     25  C   UNL     1     -14.800   0.736  31.589  0.00  0.00    +0.005 A 
ATOM     26  C   UNL     1     -16.281   2.096  29.655  0.00  0.00    +0.000 A 
ATOM     27  C   UNL     1     -15.272   0.056  30.466  0.00  0.00    +0.000 A 
ATOM     28  C   UNL     1     -16.013   0.735  29.499  0.00  0.00    +0.000 A 
ENDBRANCH  22  23
ENDBRANCH   4  22
ENDBRANCH  10   4
TORSDOF 6
ENDMDL
MODEL 5
REMARK VINA RESULT:      -7.1     18.789     20.736
REMARK  Name = 11911954
REMARK  6 active torsions:
REMARK  status: ('A' for Active; 'I' for Inactive)
REMARK    1  A    between atoms: N_3  and  C_9
REMARK    2  A    between atoms: N_4  and  C_10
REMARK    3  A    between atoms: N_4  and  C_22
REMARK    4  A    between atoms: C_13  and  C_16
REMARK    5  A    between atoms: C_16  and  C_20
REMARK    6  A    between atoms: C_22  and  C_23
REMARK                            x       y       z     vdW  Elec       q    Type
REMARK                         _______ _______ _______ _____ _____    ______ ____
ROOT
ATOM      1  O   UNL     1      -4.724 -11.802  14.826  0.00  0.00    -0.370 OA
ATOM      2  O   UNL     1      -2.114 -11.095  16.747  0.00  0.00    -0.370 OA
ATOM      7  C   UNL     1      -3.505 -10.772  16.604  0.00  0.00    +0.175 C 
ATOM      8  C   UNL     1      -3.802 -10.744  15.112  0.00  0.00    +0.168 C 
ATOM      9  C   UNL     1      -4.369 -11.883  17.174  0.00  0.00    +0.166 C 
ATOM     10  C   UNL     1      -2.464 -11.009  14.441  0.00  0.00    +0.111 C 
ATOM     11  C   UNL     1      -4.750 -12.699  15.944  0.00  0.00    +0.189 C 
ATOM     12  C   UNL     1      -1.464 -10.705  15.534  0.00  0.00    +0.181 C 
ENDROOT
BRANCH   9   3
ATOM      3  N   UNL     1      -5.524 -11.384  17.926  0.00  0.00    -0.244 N 
ATOM      5  N   UNL     1      -5.355 -10.575  18.985  0.00  0.00    -0.065 NA
ATOM      6  N   UNL     1      -6.561 -10.292  19.463  0.00  0.00    -0.134 NA
ATOM     17  C   UNL     1      -6.840 -11.640  17.697  0.00  0.00    +0.134 A 
ATOM     20  C   UNL     1      -7.455 -10.939  18.680  0.00  0.00    +0.083 A 
BRANCH  20  16
ATOM     16  C   UNL     1      -8.922 -10.825  18.955  0.00  0.00    +0.062 C 
BRANCH  16  13
ATOM     13  C   UNL     1      -9.655 -10.036  17.871  0.00  0.00    -0.005 C 
ATOM     14  C   UNL     1     -11.047  -9.609  18.360  0.00  0.00    +0.004 C 
ATOM     15  C   UNL     1      -8.832  -8.816  17.437  0.00  0.00    +0.004 C 
ATOM     18  C   UNL     1     -11.779  -8.774  17.312  0.00  0.00    +0.000 C 
ATOM     19  C   UNL     1      -9.567  -7.982  16.392  0.00  0.00    +0.000 C 
ATOM     21  C   UNL     1     -10.953  -7.568  16.877  0.00  0.00    +0.000 C 
ENDBRANCH  16  13
ENDBRANCH  20  16
ENDBRANCH   9   3
BRANCH  10   4
ATOM      4  N   UNL     1      -2.253 -10.206  13.269  0.00  0.00    -0.305 NA
ATOM     29  H   UNL     1      -1.258 -10.004  13.166  0.00  0.00    +0.123 HD
BRANCH   4  22
ATOM     22  C   UNL     1      -2.742 -10.889  12.081  0.00  0.00    +0.116 C 
BRANCH  22  23
ATOM     23  C   UNL     1      -3.680 -10.022  11.283  0.00  0.00    -0.034 A 
ATOM     24  C   UNL     1      -3.293  -9.572  10.028  0.00  0.00    +0.005 A 
ATOM     25  C   UNL     1      -4.916  -9.683  11.814  0.00  0.00    +0.005 A 
ATOM     26  C   UNL     1      -4.161  -8.768   9.289  0.00  0.00    +0.000 A 
ATOM     27  C   UNL     1      -5.785  -8.880  11.075  0.00  0.00    +0.000 A 
ATOM     28  C   UNL     1      -5.407  -8.422   9.813  0.00  0.00    +0.000 A 
ENDBRANCH  22  23
ENDBRANCH   4  22
ENDBRANCH  10   4
TORSDOF 6
ENDMDL
MODEL 6
REMARK VINA RESULT:      -7.0      2.077      3.277
REMARK  Name = 11911954
REMARK  6 active torsions:
REMARK  status: ('A' for Active; 'I' for Inactive)
REMARK    1  A    between atoms: N_3  and  C_9
REMARK    2  A    between atoms: N_4  and  C_10
REMARK    3  A    between atoms: N_4  and  C_22
REMARK    4  A    between atoms: C_13  and  C_16
REMARK    5  A    between atoms: C_16  and  C_20
REMARK    6  A    between atoms: C_22  and  C_23
REMARK                            x       y       z     vdW  Elec       q    Type
REMARK                         _______ _______ _______ _____ _____    ______ ____
ROOT
ATOM      1  O   UNL     1     -16.675   5.943  24.577  0.00  0.00    -0.370 OA
ATOM      2  O   UNL     1     -16.505   4.293  21.705  0.00  0.00    -0.370 OA
ATOM      7  C   UNL     1     -16.155   4.147  23.089  0.00  0.00    +0.175 C 
ATOM      8  C   UNL     1     -15.731   5.522  23.585  0.00  0.00    +0.168 C 
ATOM      9  C   UNL     1     -17.377   3.774  23.909  0.00  0.00    +0.166 C 
ATOM     10  C   UNL     1     -15.808   6.422  22.362  0.00  0.00    +0.111 C 
ATOM     11  C   UNL     1     -17.837   5.108  24.485  0.00  0.00    +0.189 C 
ATOM     12  C   UNL     1     -15.806   5.439  21.212  0.00  0.00    +0.181 C 
ENDROOT
BRANCH   9   3
ATOM      3  N   UNL     1     -17.096   2.761  24.931  0.00  0.00    -0.244 N 
ATOM      5  N   UNL     1     -16.525   1.591  24.598  0.00  0.00    -0.065 NA
ATOM      6  N   UNL     1     -16.399   0.882  25.714  0.00  0.00    -0.134 NA
ATOM     17  C   UNL     1     -17.349   2.834  26.266  0.00  0.00    +0.134 A 
ATOM     20  C   UNL     1     -16.898   1.638  26.718  0.00  0.00    +0.083 A 
BRANCH  20  16
ATOM     16  C   UNL     1     -16.903   1.121  28.123  0.00  0.00    +0.062 C 
BRANCH  16  13
ATOM     13  C   UNL     1     -15.583   1.388  28.844  0.00  0.00    -0.005 C 
ATOM     14  C   UNL     1     -15.587   2.785  29.480  0.00  0.00    +0.004 C 
ATOM     15  C   UNL     1     -15.314   0.307  29.900  0.00  0.00    +0.004 C 
ATOM     18  C   UNL     1     -14.297   3.054  30.252  0.00  0.00    +0.000 C 
ATOM     19  C   UNL     1     -14.025   0.581  30.671  0.00  0.00    +0.000 C 
ATOM     21  C   UNL     1     -14.029   1.974  31.294  0.00  0.00    +0.000 C 
ENDBRANCH  16  13
ENDBRANCH  20  16
ENDBRANCH   9   3
BRANCH  10   4
ATOM      4  N   UNL     1     -14.723   7.358  22.283  0.00  0.00    -0.305 NA
ATOM     29  H   UNL     1     -14.464   7.664  23.221  0.00  0.00    +0.123 HD
BRANCH   4  22
ATOM     22  C   UNL     1     -13.571   6.758  21.627  0.00  0.00    +0.116 C 
BRANCH  22  23
ATOM     23  C   UNL     1     -12.675   7.797  21.007  0.00  0.00    -0.034 A 
ATOM     24  C   UNL     1     -11.677   7.402  20.127  0.00  0.00    +0.005 A 
ATOM     25  C   UNL     1     -12.858   9.135  21.326  0.00  0.00    +0.005 A 
ATOM     26  C   UNL     1     -10.846   8.364  19.554  0.00  0.00    +0.000 A 
ATOM     27  C   UNL     1     -12.027  10.098  20.752  0.00  0.00    +0.000 A 
ATOM     28  C   UNL     1     -11.021   9.713  19.867  0.00  0.00    +0.000 A 
ENDBRANCH  22  23
ENDBRANCH   4  22
ENDBRANCH  10   4
TORSDOF 6
ENDMDL
MODEL 7
REMARK VINA RESULT:      -7.0     18.969     21.999
REMARK  Name = 11911954
REMARK  6 active torsions:
REMARK  status: ('A' for Active; 'I' for Inactive)
REMARK    1  A    between atoms: N_3  and  C_9
REMARK    2  A    between atoms: N_4  and  C_10
REMARK    3  A    between atoms: N_4  and  C_22
REMARK    4  A    between atoms: C_13  and  C_16
REMARK    5  A    between atoms: C_16  and  C_20
REMARK    6  A    between atoms: C_22  and  C_23
REMARK                            x       y       z     vdW  Elec       q    Type
REMARK                         _______ _______ _______ _____ _____    ______ ____
ROOT
ATOM      1  O   UNL     1      -4.948 -10.346  17.998  0.00  0.00    -0.370 OA
ATOM      2  O   UNL     1      -6.820 -12.630  16.489  0.00  0.00    -0.370 OA
ATOM      7  C   UNL     1      -5.899 -11.573  16.182  0.00  0.00    +0.175 C 
ATOM      8  C   UNL     1      -6.133 -10.471  17.204  0.00  0.00    +0.168 C 
ATOM      9  C   UNL     1      -4.469 -12.036  16.399  0.00  0.00    +0.166 C 
ATOM     10  C   UNL     1      -7.293 -10.964  18.054  0.00  0.00    +0.111 C 
ATOM     11  C   UNL     1      -4.134 -11.507  17.788  0.00  0.00    +0.189 C 
ATOM     12  C   UNL     1      -7.916 -12.041  17.194  0.00  0.00    +0.181 C 
ENDROOT
BRANCH   9   3
ATOM      3  N   UNL     1      -3.549 -11.569  15.357  0.00  0.00    -0.244 N 
ATOM      5  N   UNL     1      -2.429 -10.901  15.681  0.00  0.00    -0.065 NA
ATOM      6  N   UNL     1      -1.805 -10.605  14.547  0.00  0.00    -0.134 NA
ATOM     17  C   UNL     1      -3.672 -11.719  14.011  0.00  0.00    +0.134 A 
ATOM     20  C   UNL     1      -2.560 -11.101  13.541  0.00  0.00    +0.083 A 
BRANCH  20  16
ATOM     16  C   UNL     1      -2.128 -10.934  12.118  0.00  0.00    +0.062 C 
BRANCH  16  13
ATOM     13  C   UNL     1      -3.285 -10.531  11.204  0.00  0.00    -0.005 C 
ATOM     14  C   UNL     1      -2.918  -9.289  10.381  0.00  0.00    +0.004 C 
ATOM     15  C   UNL     1      -3.683 -11.695  10.288  0.00  0.00    +0.004 C 
ATOM     18  C   UNL     1      -4.039  -8.898   9.422  0.00  0.00    +0.000 C 
ATOM     19  C   UNL     1      -4.803 -11.300   9.329  0.00  0.00    +0.000 C 
ATOM     21  C   UNL     1      -4.438 -10.060   8.519  0.00  0.00    +0.000 C 
ENDBRANCH  16  13
ENDBRANCH  20  16
ENDBRANCH   9   3
BRANCH  10   4
ATOM      4  N   UNL     1      -8.226  -9.926  18.391  0.00  0.00    -0.305 NA
ATOM     29  H   UNL     1      -7.902  -9.430  19.222  0.00  0.00    +0.123 HD
BRANCH   4  22
ATOM     22  C   UNL     1      -8.376  -8.990  17.288  0.00  0.00    +0.116 C 
BRANCH  22  23
ATOM     23  C   UNL     1      -9.821  -8.645  17.040  0.00  0.00    -0.034 A 
ATOM     24  C   UNL     1     -10.807  -9.577  17.334  0.00  0.00    +0.005 A 
ATOM     25  C   UNL     1     -10.146  -7.401  16.519  0.00  0.00    +0.005 A 
ATOM     26  C   UNL     1     -12.145  -9.258  17.103  0.00  0.00    +0.000 A 
ATOM     27  C   UNL     1     -11.484  -7.081  16.289  0.00  0.00    +0.000 A 
ATOM     28  C   UNL     1     -12.484  -8.009  16.580  0.00  0.00    +0.000 A 
ENDBRANCH  22  23
ENDBRANCH   4  22
ENDBRANCH  10   4
TORSDOF 6
ENDMDL
MODEL 8
REMARK VINA RESULT:      -6.9     18.017     20.076
REMARK  Name = 11911954
REMARK  6 active torsions:
REMARK  status: ('A' for Active; 'I' for Inactive)
REMARK    1  A    between atoms: N_3  and  C_9
REMARK    2  A    between atoms: N_4  and  C_10
REMARK    3  A    between atoms: N_4  and  C_22
REMARK    4  A    between atoms: C_13  and  C_16
REMARK    5  A    between atoms: C_16  and  C_20
REMARK    6  A    between atoms: C_22  and  C_23
REMARK                            x       y       z     vdW  Elec       q    Type
REMARK                         _______ _______ _______ _____ _____    ______ ____
ROOT
ATOM      1  O   UNL     1      -6.231 -11.777  15.472  0.00  0.00    -0.370 OA
ATOM      2  O   UNL     1      -3.917 -11.431  17.823  0.00  0.00    -0.370 OA
ATOM      7  C   UNL     1      -5.232 -10.964  17.484  0.00  0.00    +0.175 C 
ATOM      8  C   UNL     1      -5.277 -10.831  15.969  0.00  0.00    +0.168 C 
ATOM      9  C   UNL     1      -6.274 -12.011  17.836  0.00  0.00    +0.166 C 
ATOM     10  C   UNL     1      -3.876 -11.193  15.501  0.00  0.00    +0.111 C 
ATOM     11  C   UNL     1      -6.521 -12.722  16.510  0.00  0.00    +0.189 C 
ATOM     12  C   UNL     1      -3.046 -11.046  16.757  0.00  0.00    +0.181 C 
ENDROOT
BRANCH   9   3
ATOM      3  N   UNL     1      -7.487 -11.438  18.427  0.00  0.00    -0.244 N 
ATOM      5  N   UNL     1      -7.652 -11.411  19.760  0.00  0.00    -0.065 NA
ATOM      6  N   UNL     1      -8.831 -10.847  20.000  0.00  0.00    -0.134 NA
ATOM     17  C   UNL     1      -8.551 -10.893  17.779  0.00  0.00    +0.134 A 
ATOM     20  C   UNL     1      -9.369 -10.535  18.799  0.00  0.00    +0.083 A 
BRANCH  20  16
ATOM     16  C   UNL     1     -10.711  -9.878  18.720  0.00  0.00    +0.062 C 
BRANCH  16  13
ATOM     13  C   UNL     1     -10.909  -9.121  17.408  0.00  0.00    -0.005 C 
ATOM     14  C   UNL     1     -12.402  -8.883  17.140  0.00  0.00    +0.004 C 
ATOM     15  C   UNL     1     -10.139  -7.794  17.426  0.00  0.00    +0.004 C 
ATOM     18  C   UNL     1     -12.623  -8.081  15.860  0.00  0.00    +0.000 C 
ATOM     19  C   UNL     1     -10.364  -6.994  16.145  0.00  0.00    +0.000 C 
ATOM     21  C   UNL     1     -11.849  -6.767  15.877  0.00  0.00    +0.000 C 
ENDBRANCH  16  13
ENDBRANCH  20  16
ENDBRANCH   9   3
BRANCH  10   4
ATOM      4  N   UNL     1      -3.405 -10.358  14.433  0.00  0.00    -0.305 NA
ATOM     29  H   UNL     1      -2.465 -10.025  14.647  0.00  0.00    +0.123 HD
BRANCH   4  22
ATOM     22  C   UNL     1      -3.395 -11.087  13.175  0.00  0.00    +0.116 C 
BRANCH  22  23
ATOM     23  C   UNL     1      -3.833 -10.222  12.023  0.00  0.00    -0.034 A 
ATOM     24  C   UNL     1      -2.945  -9.961  10.987  0.00  0.00    +0.005 A 
ATOM     25  C   UNL     1      -5.116  -9.696  12.013  0.00  0.00    +0.005 A 
ATOM     26  C   UNL     1      -3.351  -9.159   9.921  0.00  0.00    +0.000 A 
ATOM     27  C   UNL     1      -5.522  -8.894  10.946  0.00  0.00    +0.000 A 
ATOM     28  C   UNL     1      -4.640  -8.625   9.900  0.00  0.00    +0.000 A 
ENDBRANCH  22  23
ENDBRANCH   4  22
ENDBRANCH  10   4
TORSDOF 6
ENDMDL
MODEL 9
REMARK VINA RESULT:      -6.8     20.686     22.681
REMARK  Name = 11911954
REMARK  6 active torsions:
REMARK  status: ('A' for Active; 'I' for Inactive)
REMARK    1  A    between atoms: N_3  and  C_9
REMARK    2  A    between atoms: N_4  and  C_10
REMARK    3  A    between atoms: N_4  and  C_22
REMARK    4  A    between atoms: C_13  and  C_16
REMARK    5  A    between atoms: C_16  and  C_20
REMARK    6  A    between atoms: C_22  and  C_23
REMARK                            x       y       z     vdW  Elec       q    Type
REMARK                         _______ _______ _______ _____ _____    ______ ____
ROOT
ATOM      1  O   UNL     1      -5.056 -11.873  10.770  0.00  0.00    -0.370 OA
ATOM      2  O   UNL     1      -3.236  -9.262   9.836  0.00  0.00    -0.370 OA
ATOM      7  C   UNL     1      -3.698  -9.923  11.023  0.00  0.00    +0.175 C 
ATOM      8  C   UNL     1      -5.097 -10.442  10.725  0.00  0.00    +0.168 C 
ATOM      9  C   UNL     1      -2.856 -11.154  11.306  0.00  0.00    +0.166 C 
ATOM     10  C   UNL     1      -5.401  -9.963   9.315  0.00  0.00    +0.111 C 
ATOM     11  C   UNL     1      -3.686 -12.291  10.722  0.00  0.00    +0.189 C 
ATOM     12  C   UNL     1      -4.395  -8.853   9.104  0.00  0.00    +0.181 C 
ENDROOT
BRANCH   9   3
ATOM      3  N   UNL     1      -2.549 -11.325  12.729  0.00  0.00    -0.244 N 
ATOM      5  N   UNL     1      -1.788 -12.351  13.148  0.00  0.00    -0.065 NA
ATOM      6  N   UNL     1      -1.686 -12.254  14.468  0.00  0.00    -0.134 NA
ATOM     17  C   UNL     1      -2.952 -10.544  13.767  0.00  0.00    +0.134 A 
ATOM     20  C   UNL     1      -2.390 -11.159  14.837  0.00  0.00    +0.083 A 
BRANCH  20  16
ATOM     16  C   UNL     1      -2.475 -10.766  16.278  0.00  0.00    +0.062 C 
BRANCH  16  13
ATOM     13  C   UNL     1      -3.810 -11.158  16.909  0.00  0.00    -0.005 C 
ATOM     14  C   UNL     1      -3.616 -11.574  18.374  0.00  0.00    +0.004 C 
ATOM     15  C   UNL     1      -4.821 -10.009  16.797  0.00  0.00    +0.004 C 
ATOM     18  C   UNL     1      -4.945 -11.919  19.041  0.00  0.00    +0.000 C 
ATOM     19  C   UNL     1      -6.148 -10.357  17.467  0.00  0.00    +0.000 C 
ATOM     21  C   UNL     1      -5.950 -10.778  18.920  0.00  0.00    +0.000 C 
ENDBRANCH  16  13
ENDBRANCH  20  16
ENDBRANCH   9   3
BRANCH  10   4
ATOM      4  N   UNL     1      -6.754  -9.512   9.152  0.00  0.00    -0.305 NA
ATOM     29  H   UNL     1      -7.308  -9.788   9.964  0.00  0.00    +0.123 HD
BRANCH   4  22
ATOM     22  C   UNL     1      -6.800  -8.066   8.996  0.00  0.00    +0.116 C 
BRANCH  22  23
ATOM     23  C   UNL     1      -7.876  -7.641   8.031  0.00  0.00    -0.034 A 
ATOM     24  C   UNL     1      -8.842  -6.733   8.442  0.00  0.00    +0.005 A 
ATOM     25  C   UNL     1      -7.887  -8.165   6.747  0.00  0.00    +0.005 A 
ATOM     26  C   UNL     1      -9.839  -6.340   7.549  0.00  0.00    +0.000 A 
ATOM     27  C   UNL     1      -8.884  -7.771   5.853  0.00  0.00    +0.000 A 
ATOM     28  C   UNL     1      -9.860  -6.859   6.254  0.00  0.00    +0.000 A 
ENDBRANCH  22  23
ENDBRANCH   4  22
ENDBRANCH  10   4
TORSDOF 6
ENDMDL
MODEL 10
REMARK VINA RESULT:      -6.8     15.788     19.599
REMARK  Name = 11911954
REMARK  6 active torsions:
REMARK  status: ('A' for Active; 'I' for Inactive)
REMARK    1  A    between atoms: N_3  and  C_9
REMARK    2  A    between atoms: N_4  and  C_10
REMARK    3  A    between atoms: N_4  and  C_22
REMARK    4  A    between atoms: C_13  and  C_16
REMARK    5  A    between atoms: C_16  and  C_20
REMARK    6  A    between atoms: C_22  and  C_23
REMARK                            x       y       z     vdW  Elec       q    Type
REMARK                         _______ _______ _______ _____ _____    ______ ____
ROOT
ATOM      1  O   UNL     1     -12.353  -8.083  14.151  0.00  0.00    -0.370 OA
ATOM      2  O   UNL     1     -11.342  -6.045  16.565  0.00  0.00    -0.370 OA
ATOM      7  C   UNL     1     -11.318  -6.167  15.135  0.00  0.00    +0.175 C 
ATOM      8  C   UNL     1     -11.164  -7.648  14.820  0.00  0.00    +0.168 C 
ATOM      9  C   UNL     1     -12.656  -5.760  14.545  0.00  0.00    +0.166 C 
ATOM     10  C   UNL     1     -11.037  -8.326  16.174  0.00  0.00    +0.111 C 
ATOM     11  C   UNL     1     -13.370  -7.090  14.338  0.00  0.00    +0.189 C 
ATOM     12  C   UNL     1     -10.664  -7.186  17.096  0.00  0.00    +0.181 C 
ENDROOT
BRANCH   9   3
ATOM      3  N   UNL     1     -12.526  -4.968  13.317  0.00  0.00    -0.244 N 
ATOM      5  N   UNL     1     -12.771  -3.647  13.325  0.00  0.00    -0.065 NA
ATOM      6  N   UNL     1     -12.580  -3.204  12.088  0.00  0.00    -0.134 NA
ATOM     17  C   UNL     1     -12.172  -5.406  12.079  0.00  0.00    +0.134 A 
ATOM     20  C   UNL     1     -12.218  -4.271  11.339  0.00  0.00    +0.083 A 
BRANCH  20  16
ATOM     16  C   UNL     1     -11.927  -4.107   9.881  0.00  0.00    +0.062 C 
BRANCH  16  13
ATOM     13  C   UNL     1     -11.097  -5.262   9.322  0.00  0.00    -0.005 C 
ATOM     14  C   UNL     1     -11.875  -6.009   8.230  0.00  0.00    +0.004 C 
ATOM     15  C   UNL     1      -9.753  -4.753   8.784  0.00  0.00    +0.004 C 
ATOM     18  C   UNL     1     -11.045  -7.135   7.619  0.00  0.00    +0.000 C 
ATOM     19  C   UNL     1      -8.927  -5.881   8.172  0.00  0.00    +0.000 C 
ATOM     21  C   UNL     1      -9.706  -6.627   7.094  0.00  0.00    +0.000 C 
ENDBRANCH  16  13
ENDBRANCH  20  16
ENDBRANCH   9   3
BRANCH  10   4
ATOM      4  N   UNL     1     -10.063  -9.381  16.188  0.00  0.00    -0.305 NA
ATOM     29  H   UNL     1     -10.280 -10.058  15.455  0.00  0.00    +0.123 HD
BRANCH   4  22
ATOM     22  C   UNL     1      -8.725  -8.849  15.984  0.00  0.00    +0.116 C 
BRANCH  22  23
ATOM     23  C   UNL     1      -7.710  -9.536  16.858  0.00  0.00    -0.034 A 
ATOM     24  C   UNL     1      -6.399  -9.661  16.416  0.00  0.00    +0.005 A 
ATOM     25  C   UNL     1      -8.098 -10.038  18.092  0.00  0.00    +0.005 A 
ATOM     26  C   UNL     1      -5.459 -10.299  17.226  0.00  0.00    +0.000 A 
ATOM     27  C   UNL     1      -7.158 -10.675  18.902  0.00  0.00    +0.000 A 
ATOM     28  C   UNL     1      -5.839 -10.806  18.469  0.00  0.00    +0.000 A 
ENDBRANCH  22  23
ENDBRANCH   4  22
ENDBRANCH  10   4
TORSDOF 6
ENDMDL
