MODEL 1
REMARK VINA RESULT:      -7.1      0.000      0.000
REMARK  Name = 7135144
REMARK  9 active torsions:
REMARK  status: ('A' for Active; 'I' for Inactive)
REMARK    1  A    between atoms: O_3  and  C_15
REMARK    2  A    between atoms: O_4  and  C_20
REMARK    3  A    between atoms: C_10  and  C_18
REMARK    4  A    between atoms: C_12  and  C_20
REMARK    5  A    between atoms: C_12  and  C_21
REMARK    6  A    between atoms: C_13  and  C_23
REMARK    7  A    between atoms: C_23  and  C_24
REMARK    8  A    between atoms: C_30  and  C_31
REMARK    9  A    between atoms: C_32  and  C_33
REMARK                            x       y       z     vdW  Elec       q    Type
REMARK                         _______ _______ _______ _____ _____    ______ ____
ROOT
ATOM      1  S   UNL     1     -11.741 -10.444  19.024  0.00  0.00    -0.057 S 
ATOM      6  O   UNL     1      -7.940  -8.998  16.756  0.00  0.00    -0.270 OA
ATOM      7  N   UNL     1     -10.872  -8.901  17.138  0.00  0.00    -0.229 NA
ATOM      9  N   UNL     1      -9.225 -10.201  18.324  0.00  0.00    -0.261 N 
ATOM     10  C   UNL     1     -14.545  -8.117  16.264  0.00  0.00    -0.019 C 
ATOM     11  C   UNL     1     -15.024  -8.297  17.773  0.00  0.00    +0.011 C 
ATOM     12  C   UNL     1     -16.575  -8.205  18.046  0.00  0.00    +0.021 C 
ATOM     13  C   UNL     1     -12.977  -7.808  16.280  0.00  0.00    +0.054 C 
ATOM     14  C   UNL     1     -15.276  -6.905  15.632  0.00  0.00    +0.010 C 
ATOM     15  C   UNL     1     -17.154  -6.967  17.306  0.00  0.00    +0.123 C 
ATOM     16  C   UNL     1     -14.340  -9.525  18.444  0.00  0.00    +0.049 C 
ATOM     17  C   UNL     1     -16.786  -6.925  15.827  0.00  0.00    +0.032 C 
ATOM     18  C   UNL     1     -14.815  -9.369  15.394  0.00  0.00    +0.012 C 
ATOM     19  C   UNL     1     -12.246  -8.758  17.193  0.00  0.00    +0.058 A 
ATOM     21  C   UNL     1     -16.809  -7.986  19.568  0.00  0.00    +0.016 C 
ATOM     22  C   UNL     1     -12.875  -9.504  18.169  0.00  0.00    +0.015 A 
ATOM     25  C   UNL     1     -10.496  -9.770  18.052  0.00  0.00    +0.165 A 
ATOM     32  C   UNL     1      -8.045  -9.801  17.677  0.00  0.00    +0.250 C 
ATOM     41  H   UNL     1      -9.176 -10.846  19.106  0.00  0.00    +0.157 HD
ENDROOT
BRANCH  32  33
ATOM      2  F   UNL     1      -3.322 -12.105  19.660  0.00  0.00    -0.205 F 
ATOM     33  C   UNL     1      -6.794 -10.411  18.202  0.00  0.00    +0.037 A 
ATOM     34  C   UNL     1      -6.735 -10.854  19.524  0.00  0.00    +0.016 A 
ATOM     35  C   UNL     1      -5.680 -10.539  17.373  0.00  0.00    +0.016 A 
ATOM     36  C   UNL     1      -5.563 -11.426  20.015  0.00  0.00    +0.039 A 
ATOM     37  C   UNL     1      -4.506 -11.112  17.865  0.00  0.00    +0.039 A 
ATOM     38  C   UNL     1      -4.448 -11.555  19.187  0.00  0.00    +0.123 A 
ENDBRANCH  32  33
BRANCH  15   3
ATOM      3  O   UNL     1     -18.575  -6.927  17.427  0.00  0.00    -0.391 OA
ATOM     39  H   UNL     1     -18.804  -7.262  18.311  0.00  0.00    +0.210 HD
ENDBRANCH  15   3
BRANCH  12  20
ATOM     20  C   UNL     1     -17.366  -9.482  17.685  0.00  0.00    +0.165 C 
BRANCH  20   4
ATOM      4  O   UNL     1     -18.439  -9.596  18.593  0.00  0.00    -0.394 OA
ATOM     40  H   UNL     1     -19.181  -9.082  18.232  0.00  0.00    +0.209 HD
ENDBRANCH  20   4
ENDBRANCH  12  20
BRANCH  13  23
ATOM     23  C   UNL     1     -12.326  -7.750  14.891  0.00  0.00    +0.106 C 
BRANCH  23  24
ATOM      5  O   UNL     1     -11.328  -5.653  15.362  0.00  0.00    -0.276 OA
ATOM      8  N   UNL     1     -12.409  -5.849  13.316  0.00  0.00    -0.301 N 
ATOM     24  C   UNL     1     -11.972  -6.324  14.551  0.00  0.00    +0.216 C 
ATOM     26  C   UNL     1     -13.175  -6.622  12.331  0.00  0.00    +0.108 C 
ATOM     27  C   UNL     1     -12.071  -4.488  12.896  0.00  0.00    +0.108 C 
ATOM     28  C   UNL     1     -14.454  -5.885  11.939  0.00  0.00    +0.022 C 
ATOM     29  C   UNL     1     -13.328  -3.706  12.520  0.00  0.00    +0.022 C 
ATOM     30  C   UNL     1     -14.153  -4.456  11.462  0.00  0.00    -0.011 C 
ATOM     31  C   UNL     1     -15.443  -3.705  11.146  0.00  0.00    +0.007 C 
ENDBRANCH  23  24
ENDBRANCH  13  23
TORSDOF 6
ENDMDL
MODEL 2
REMARK VINA RESULT:      -6.9     27.766     31.162
REMARK  Name = 7135144
REMARK  9 active torsions:
REMARK  status: ('A' for Active; 'I' for Inactive)
REMARK    1  A    between atoms: O_3  and  C_15
REMARK    2  A    between atoms: O_4  and  C_20
REMARK    3  A    between atoms: C_10  and  C_18
REMARK    4  A    between atoms: C_12  and  C_20
REMARK    5  A    between atoms: C_12  and  C_21
REMARK    6  A    between atoms: C_13  and  C_23
REMARK    7  A    between atoms: C_23  and  C_24
REMARK    8  A    between atoms: C_30  and  C_31
REMARK    9  A    between atoms: C_32  and  C_33
REMARK                            x       y       z     vdW  Elec       q    Type
REMARK                         _______ _______ _______ _____ _____    ______ ____
ROOT
ATOM      1  S   UNL     1      11.233   3.586   2.385  0.00  0.00    -0.057 S 
ATOM      6  O   UNL     1       9.157   6.934   4.866  0.00  0.00    -0.270 OA
ATOM      7  N   UNL     1      10.083   5.900   2.255  0.00  0.00    -0.229 NA
ATOM      9  N   UNL     1      10.258   4.895   4.438  0.00  0.00    -0.261 N 
ATOM     10  C   UNL     1      11.048   6.024  -1.477  0.00  0.00    -0.019 C 
ATOM     11  C   UNL     1      10.958   4.441  -1.633  0.00  0.00    +0.011 C 
ATOM     12  C   UNL     1      11.392   3.834  -3.023  0.00  0.00    +0.021 C 
ATOM     13  C   UNL     1      10.172   6.443  -0.208  0.00  0.00    +0.054 C 
ATOM     14  C   UNL     1      10.442   6.701  -2.733  0.00  0.00    +0.010 C 
ATOM     15  C   UNL     1      10.736   4.656  -4.169  0.00  0.00    +0.123 C 
ATOM     16  C   UNL     1      11.584   3.712  -0.408  0.00  0.00    +0.049 C 
ATOM     17  C   UNL     1      10.981   6.156  -4.049  0.00  0.00    +0.032 C 
ATOM     18  C   UNL     1      12.499   6.528  -1.291  0.00  0.00    +0.012 C 
ATOM     19  C   UNL     1      10.467   5.553   0.972  0.00  0.00    +0.058 A 
ATOM     21  C   UNL     1      10.854   2.379  -3.131  0.00  0.00    +0.016 C 
ATOM     22  C   UNL     1      11.085   4.324   0.857  0.00  0.00    +0.015 A 
ATOM     25  C   UNL     1      10.442   4.942   3.081  0.00  0.00    +0.165 A 
ATOM     32  C   UNL     1       9.640   5.870   5.237  0.00  0.00    +0.250 C 
ATOM     41  H   UNL     1      10.583   4.031   4.860  0.00  0.00    +0.157 HD
ENDROOT
BRANCH  32  33
ATOM      2  F   UNL     1       9.294   4.628  10.703  0.00  0.00    -0.205 F 
ATOM     33  C   UNL     1       9.548   5.541   6.684  0.00  0.00    +0.037 A 
ATOM     34  C   UNL     1       9.878   4.261   7.131  0.00  0.00    +0.016 A 
ATOM     35  C   UNL     1       9.132   6.512   7.595  0.00  0.00    +0.016 A 
ATOM     36  C   UNL     1       9.793   3.953   8.489  0.00  0.00    +0.039 A 
ATOM     37  C   UNL     1       9.046   6.204   8.953  0.00  0.00    +0.039 A 
ATOM     38  C   UNL     1       9.376   4.924   9.399  0.00  0.00    +0.123 A 
ENDBRANCH  32  33
BRANCH  15   3
ATOM      3  O   UNL     1      11.210   4.213  -5.440  0.00  0.00    -0.391 OA
ATOM     39  H   UNL     1      10.448   3.858  -5.930  0.00  0.00    +0.210 HD
ENDBRANCH  15   3
BRANCH  12  20
ATOM     20  C   UNL     1      12.919   3.727  -3.227  0.00  0.00    +0.165 C 
BRANCH  20   4
ATOM      4  O   UNL     1      13.168   2.611  -4.053  0.00  0.00    -0.394 OA
ATOM     40  H   UNL     1      14.126   2.571  -4.207  0.00  0.00    +0.209 HD
ENDBRANCH  20   4
ENDBRANCH  12  20
BRANCH  13  23
ATOM     23  C   UNL     1      10.269   7.927   0.171  0.00  0.00    +0.106 C 
BRANCH  23  24
ATOM      5  O   UNL     1       8.230   8.453  -0.914  0.00  0.00    -0.276 OA
ATOM      8  N   UNL     1       8.480   9.238   1.258  0.00  0.00    -0.301 N 
ATOM     24  C   UNL     1       8.901   8.559   0.116  0.00  0.00    +0.216 C 
ATOM     26  C   UNL     1       9.255   9.381   2.496  0.00  0.00    +0.108 C 
ATOM     27  C   UNL     1       7.148   9.845   1.296  0.00  0.00    +0.108 C 
ATOM     28  C   UNL     1       9.383  10.852   2.889  0.00  0.00    +0.022 C 
ATOM     29  C   UNL     1       7.235  11.326   1.661  0.00  0.00    +0.022 C 
ATOM     30  C   UNL     1       8.008  11.531   2.973  0.00  0.00    -0.011 C 
ATOM     31  C   UNL     1       8.154  13.016   3.292  0.00  0.00    +0.007 C 
ENDBRANCH  23  24
ENDBRANCH  13  23
TORSDOF 6
ENDMDL
MODEL 3
REMARK VINA RESULT:      -6.7     29.905     33.372
REMARK  Name = 7135144
REMARK  9 active torsions:
REMARK  status: ('A' for Active; 'I' for Inactive)
REMARK    1  A    between atoms: O_3  and  C_15
REMARK    2  A    between atoms: O_4  and  C_20
REMARK    3  A    between atoms: C_10  and  C_18
REMARK    4  A    between atoms: C_12  and  C_20
REMARK    5  A    between atoms: C_12  and  C_21
REMARK    6  A    between atoms: C_13  and  C_23
REMARK    7  A    between atoms: C_23  and  C_24
REMARK    8  A    between atoms: C_30  and  C_31
REMARK    9  A    between atoms: C_32  and  C_33
REMARK                            x       y       z     vdW  Elec       q    Type
REMARK                         _______ _______ _______ _____ _____    ______ ____
ROOT
ATOM      1  S   UNL     1      13.805   7.678   4.487  0.00  0.00    -0.057 S 
ATOM      6  O   UNL     1      10.163   4.782   4.654  0.00  0.00    -0.270 OA
ATOM      7  N   UNL     1      12.333   6.060   3.104  0.00  0.00    -0.229 NA
ATOM      9  N   UNL     1      11.767   6.324   5.431  0.00  0.00    -0.261 N 
ATOM     10  C   UNL     1      14.271   7.187  -0.034  0.00  0.00    -0.019 C 
ATOM     11  C   UNL     1      15.607   7.454   0.791  0.00  0.00    +0.011 C 
ATOM     12  C   UNL     1      16.818   8.089   0.005  0.00  0.00    +0.021 C 
ATOM     13  C   UNL     1      13.369   6.170   0.806  0.00  0.00    +0.054 C 
ATOM     14  C   UNL     1      14.626   6.521  -1.388  0.00  0.00    +0.010 C 
ATOM     15  C   UNL     1      17.006   7.337  -1.343  0.00  0.00    +0.123 C 
ATOM     16  C   UNL     1      15.306   8.152   2.150  0.00  0.00    +0.049 C 
ATOM     17  C   UNL     1      15.723   7.241  -2.161  0.00  0.00    +0.032 C 
ATOM     18  C   UNL     1      13.467   8.481  -0.311  0.00  0.00    +0.012 C 
ATOM     19  C   UNL     1      13.290   6.584   2.253  0.00  0.00    +0.058 A 
ATOM     21  C   UNL     1      18.120   7.889   0.831  0.00  0.00    +0.016 C 
ATOM     22  C   UNL     1      14.180   7.460   2.839  0.00  0.00    +0.015 A 
ATOM     25  C   UNL     1      12.504   6.572   4.304  0.00  0.00    +0.165 A 
ATOM     32  C   UNL     1      10.663   5.464   5.542  0.00  0.00    +0.250 C 
ATOM     41  H   UNL     1      12.114   6.805   6.255  0.00  0.00    +0.157 HD
ENDROOT
BRANCH  32  33
ATOM      2  F   UNL     1       8.420   5.083  10.677  0.00  0.00    -0.205 F 
ATOM     33  C   UNL     1      10.069   5.363   6.902  0.00  0.00    +0.037 A 
ATOM     34  C   UNL     1       9.565   6.503   7.529  0.00  0.00    +0.016 A 
ATOM     35  C   UNL     1      10.017   4.129   7.550  0.00  0.00    +0.016 A 
ATOM     36  C   UNL     1       9.008   6.408   8.804  0.00  0.00    +0.039 A 
ATOM     37  C   UNL     1       9.459   4.034   8.826  0.00  0.00    +0.039 A 
ATOM     38  C   UNL     1       8.956   5.174   9.452  0.00  0.00    +0.123 A 
ENDBRANCH  32  33
BRANCH  15   3
ATOM      3  O   UNL     1      18.011   7.968  -2.136  0.00  0.00    -0.391 OA
ATOM     39  H   UNL     1      18.482   7.271  -2.623  0.00  0.00    +0.210 HD
ENDBRANCH  15   3
BRANCH  12  20
ATOM     20  C   UNL     1      16.705   9.612  -0.226  0.00  0.00    +0.165 C 
BRANCH  20   4
ATOM      4  O   UNL     1      18.004  10.157  -0.162  0.00  0.00    -0.394 OA
ATOM     40  H   UNL     1      17.913  11.124  -0.133  0.00  0.00    +0.209 HD
ENDBRANCH  20   4
ENDBRANCH  12  20
BRANCH  13  23
ATOM     23  C   UNL     1      11.975   5.918   0.216  0.00  0.00    +0.106 C 
BRANCH  23  24
ATOM      5  O   UNL     1      12.006   3.593   0.667  0.00  0.00    -0.276 OA
ATOM      8  N   UNL     1      11.539   4.217  -1.521  0.00  0.00    -0.301 N 
ATOM     24  C   UNL     1      11.842   4.471  -0.185  0.00  0.00    +0.216 C 
ATOM     26  C   UNL     1      11.338   5.239  -2.555  0.00  0.00    +0.108 C 
ATOM     27  C   UNL     1      11.355   2.839  -1.979  0.00  0.00    +0.108 C 
ATOM     28  C   UNL     1      12.248   4.982  -3.755  0.00  0.00    +0.022 C 
ATOM     29  C   UNL     1      12.269   2.532  -3.164  0.00  0.00    +0.022 C 
ATOM     30  C   UNL     1      12.073   3.555  -4.295  0.00  0.00    -0.011 C 
ATOM     31  C   UNL     1      13.040   3.285  -5.444  0.00  0.00    +0.007 C 
ENDBRANCH  23  24
ENDBRANCH  13  23
TORSDOF 6
ENDMDL
MODEL 4
REMARK VINA RESULT:      -6.7      5.340      9.009
REMARK  Name = 7135144
REMARK  9 active torsions:
REMARK  status: ('A' for Active; 'I' for Inactive)
REMARK    1  A    between atoms: O_3  and  C_15
REMARK    2  A    between atoms: O_4  and  C_20
REMARK    3  A    between atoms: C_10  and  C_18
REMARK    4  A    between atoms: C_12  and  C_20
REMARK    5  A    between atoms: C_12  and  C_21
REMARK    6  A    between atoms: C_13  and  C_23
REMARK    7  A    between atoms: C_23  and  C_24
REMARK    8  A    between atoms: C_30  and  C_31
REMARK    9  A    between atoms: C_32  and  C_33
REMARK                            x       y       z     vdW  Elec       q    Type
REMARK                         _______ _______ _______ _____ _____    ______ ____
ROOT
ATOM      1  S   UNL     1      -5.691 -10.979  12.570  0.00  0.00    -0.057 S 
ATOM      6  O   UNL     1      -8.846  -8.383  10.339  0.00  0.00    -0.270 OA
ATOM      7  N   UNL     1      -7.826  -9.547  12.859  0.00  0.00    -0.229 NA
ATOM      9  N   UNL     1      -6.951  -9.755  10.624  0.00  0.00    -0.261 N 
ATOM     10  C   UNL     1      -7.907 -10.647  16.554  0.00  0.00    -0.019 C 
ATOM     11  C   UNL     1      -6.321 -10.770  16.634  0.00  0.00    +0.011 C 
ATOM     12  C   UNL     1      -5.715 -11.338  17.975  0.00  0.00    +0.021 C 
ATOM     13  C   UNL     1      -8.265  -9.671  15.340  0.00  0.00    +0.054 C 
ATOM     14  C   UNL     1      -8.442 -10.014  17.864  0.00  0.00    +0.010 C 
ATOM     15  C   UNL     1      -6.391 -10.631  19.183  0.00  0.00    +0.123 C 
ATOM     16  C   UNL     1      -5.736 -11.431  15.351  0.00  0.00    +0.049 C 
ATOM     17  C   UNL     1      -7.914 -10.675  19.130  0.00  0.00    +0.032 C 
ATOM     18  C   UNL     1      -8.605 -12.012  16.340  0.00  0.00    +0.012 C 
ATOM     19  C   UNL     1      -7.474 -10.027  14.108  0.00  0.00    +0.058 A 
ATOM     21  C   UNL     1      -4.198 -10.997  18.029  0.00  0.00    +0.016 C 
ATOM     22  C   UNL     1      -6.333 -10.803  14.138  0.00  0.00    +0.015 A 
ATOM     25  C   UNL     1      -6.961  -9.990  11.973  0.00  0.00    +0.165 A 
ATOM     32  C   UNL     1      -7.872  -8.983   9.897  0.00  0.00    +0.250 C 
ATOM     41  H   UNL     1      -6.157 -10.170  10.146  0.00  0.00    +0.157 HD
ENDROOT
BRANCH  32  33
ATOM      2  F   UNL     1      -6.843  -8.561   4.392  0.00  0.00    -0.205 F 
ATOM     33  C   UNL     1      -7.599  -8.872   8.440  0.00  0.00    +0.037 A 
ATOM     34  C   UNL     1      -8.333  -7.977   7.659  0.00  0.00    +0.016 A 
ATOM     35  C   UNL     1      -6.611  -9.662   7.852  0.00  0.00    +0.016 A 
ATOM     36  C   UNL     1      -8.077  -7.872   6.293  0.00  0.00    +0.039 A 
ATOM     37  C   UNL     1      -6.355  -9.557   6.485  0.00  0.00    +0.039 A 
ATOM     38  C   UNL     1      -7.089  -8.662   5.705  0.00  0.00    +0.123 A 
ENDBRANCH  32  33
BRANCH  15   3
ATOM      3  O   UNL     1      -5.957 -11.213  20.413  0.00  0.00    -0.391 OA
ATOM     39  H   UNL     1      -4.986 -11.259  20.390  0.00  0.00    +0.210 HD
ENDBRANCH  15   3
BRANCH  12  20
ATOM     20  C   UNL     1      -5.799 -12.874  18.116  0.00  0.00    +0.165 C 
BRANCH  20   4
ATOM      4  O   UNL     1      -4.553 -13.334  18.589  0.00  0.00    -0.394 OA
ATOM     40  H   UNL     1      -4.045 -12.555  18.875  0.00  0.00    +0.209 HD
ENDBRANCH  20   4
ENDBRANCH  12  20
BRANCH  13  23
ATOM     23  C   UNL     1      -9.764  -9.559  15.034  0.00  0.00    +0.106 C 
BRANCH  23  24
ATOM      5  O   UNL     1      -9.707  -7.504  16.211  0.00  0.00    -0.276 OA
ATOM      8  N   UNL     1     -11.271  -7.675  14.502  0.00  0.00    -0.301 N 
ATOM     24  C   UNL     1     -10.239  -8.154  15.307  0.00  0.00    +0.216 C 
ATOM     26  C   UNL     1     -11.921  -8.423  13.420  0.00  0.00    +0.108 C 
ATOM     27  C   UNL     1     -11.759  -6.306  14.679  0.00  0.00    +0.108 C 
ATOM     28  C   UNL     1     -13.436  -8.451  13.615  0.00  0.00    +0.022 C 
ATOM     29  C   UNL     1     -13.270  -6.292  14.904  0.00  0.00    +0.022 C 
ATOM     30  C   UNL     1     -14.006  -7.034  13.777  0.00  0.00    -0.011 C 
ATOM     31  C   UNL     1     -15.508  -7.079  14.046  0.00  0.00    +0.007 C 
ENDBRANCH  23  24
ENDBRANCH  13  23
TORSDOF 6
ENDMDL
MODEL 5
REMARK VINA RESULT:      -6.6      6.474     11.771
REMARK  Name = 7135144
REMARK  9 active torsions:
REMARK  status: ('A' for Active; 'I' for Inactive)
REMARK    1  A    between atoms: O_3  and  C_15
REMARK    2  A    between atoms: O_4  and  C_20
REMARK    3  A    between atoms: C_10  and  C_18
REMARK    4  A    between atoms: C_12  and  C_20
REMARK    5  A    between atoms: C_12  and  C_21
REMARK    6  A    between atoms: C_13  and  C_23
REMARK    7  A    between atoms: C_23  and  C_24
REMARK    8  A    between atoms: C_30  and  C_31
REMARK    9  A    between atoms: C_32  and  C_33
REMARK                            x       y       z     vdW  Elec       q    Type
REMARK                         _______ _______ _______ _____ _____    ______ ____
ROOT
ATOM      1  S   UNL     1      -5.088  -9.616  10.136  0.00  0.00    -0.057 S 
ATOM      6  O   UNL     1      -9.544  -8.269  10.054  0.00  0.00    -0.270 OA
ATOM      7  N   UNL     1      -7.220  -9.297  11.567  0.00  0.00    -0.229 NA
ATOM      9  N   UNL     1      -7.385  -8.733   9.230  0.00  0.00    -0.261 N 
ATOM     10  C   UNL     1      -5.335 -10.936  14.505  0.00  0.00    -0.019 C 
ATOM     11  C   UNL     1      -3.925 -10.385  14.010  0.00  0.00    +0.011 C 
ATOM     12  C   UNL     1      -2.651 -10.860  14.810  0.00  0.00    +0.021 C 
ATOM     13  C   UNL     1      -6.474 -10.014  13.868  0.00  0.00    +0.054 C 
ATOM     14  C   UNL     1      -5.421 -10.821  16.049  0.00  0.00    +0.010 C 
ATOM     15  C   UNL     1      -2.923 -10.723  16.335  0.00  0.00    +0.123 C 
ATOM     16  C   UNL     1      -3.777 -10.508  12.465  0.00  0.00    +0.049 C 
ATOM     17  C   UNL     1      -4.215 -11.399  16.778  0.00  0.00    +0.032 C 
ATOM     18  C   UNL     1      -5.580 -12.410  14.102  0.00  0.00    +0.012 C 
ATOM     19  C   UNL     1      -6.229  -9.787  12.398  0.00  0.00    +0.058 A 
ATOM     21  C   UNL     1      -1.459  -9.923  14.467  0.00  0.00    +0.016 C 
ATOM     22  C   UNL     1      -5.006  -9.997  11.794  0.00  0.00    +0.015 A 
ATOM     25  C   UNL     1      -6.733  -9.175  10.350  0.00  0.00    +0.165 A 
ATOM     32  C   UNL     1      -8.722  -8.314   9.144  0.00  0.00    +0.250 C 
ATOM     41  H   UNL     1      -6.790  -8.685   8.408  0.00  0.00    +0.157 HD
ENDROOT
BRANCH  32  33
ATOM      2  F   UNL     1     -10.376  -6.572   4.068  0.00  0.00    -0.205 F 
ATOM     33  C   UNL     1      -9.160  -7.853   7.800  0.00  0.00    +0.037 A 
ATOM     34  C   UNL     1     -10.451  -7.355   7.620  0.00  0.00    +0.016 A 
ATOM     35  C   UNL     1      -8.281  -7.920   6.719  0.00  0.00    +0.016 A 
ATOM     36  C   UNL     1     -10.861  -6.922   6.359  0.00  0.00    +0.039 A 
ATOM     37  C   UNL     1      -8.692  -7.486   5.458  0.00  0.00    +0.039 A 
ATOM     38  C   UNL     1      -9.982  -6.988   5.279  0.00  0.00    +0.123 A 
ENDBRANCH  32  33
BRANCH  15   3
ATOM      3  O   UNL     1      -1.839 -11.264  17.090  0.00  0.00    -0.391 OA
ATOM     39  H   UNL     1      -1.014 -11.005  16.646  0.00  0.00    +0.210 HD
ENDBRANCH  15   3
BRANCH  12  20
ATOM     20  C   UNL     1      -2.170 -12.286  14.462  0.00  0.00    +0.165 C 
BRANCH  20   4
ATOM      4  O   UNL     1      -1.057 -12.169  13.605  0.00  0.00    -0.394 OA
ATOM     40  H   UNL     1      -1.337 -11.648  12.834  0.00  0.00    +0.209 HD
ENDBRANCH  20   4
ENDBRANCH  12  20
BRANCH  13  23
ATOM     23  C   UNL     1      -7.907 -10.499  14.130  0.00  0.00    +0.106 C 
BRANCH  23  24
ATOM      5  O   UNL     1      -8.476  -8.639  15.482  0.00  0.00    -0.276 OA
ATOM      8  N   UNL     1      -8.855 -10.739  16.398  0.00  0.00    -0.301 N 
ATOM     24  C   UNL     1      -8.437  -9.869  15.393  0.00  0.00    +0.216 C 
ATOM     26  C   UNL     1      -8.822 -12.205  16.321  0.00  0.00    +0.108 C 
ATOM     27  C   UNL     1      -9.419 -10.204  17.639  0.00  0.00    +0.108 C 
ATOM     28  C   UNL     1      -8.066 -12.793  17.512  0.00  0.00    +0.022 C 
ATOM     29  C   UNL     1      -8.672 -10.749  18.855  0.00  0.00    +0.022 C 
ATOM     30  C   UNL     1      -8.638 -12.286  18.844  0.00  0.00    -0.011 C 
ATOM     31  C   UNL     1      -7.829 -12.820  20.022  0.00  0.00    +0.007 C 
ENDBRANCH  23  24
ENDBRANCH  13  23
TORSDOF 6
ENDMDL
MODEL 6
REMARK VINA RESULT:      -6.5      5.402      9.127
REMARK  Name = 7135144
REMARK  9 active torsions:
REMARK  status: ('A' for Active; 'I' for Inactive)
REMARK    1  A    between atoms: O_3  and  C_15
REMARK    2  A    between atoms: O_4  and  C_20
REMARK    3  A    between atoms: C_10  and  C_18
REMARK    4  A    between atoms: C_12  and  C_20
REMARK    5  A    between atoms: C_12  and  C_21
REMARK    6  A    between atoms: C_13  and  C_23
REMARK    7  A    between atoms: C_23  and  C_24
REMARK    8  A    between atoms: C_30  and  C_31
REMARK    9  A    between atoms: C_32  and  C_33
REMARK                            x       y       z     vdW  Elec       q    Type
REMARK                         _______ _______ _______ _____ _____    ______ ____
ROOT
ATOM      1  S   UNL     1     -12.827 -12.448  20.395  0.00  0.00    -0.057 S 
ATOM      6  O   UNL     1     -10.073 -14.718  23.386  0.00  0.00    -0.270 OA
ATOM      7  N   UNL     1     -10.370 -12.956  21.028  0.00  0.00    -0.229 NA
ATOM      9  N   UNL     1     -12.077 -13.959  22.403  0.00  0.00    -0.261 N 
ATOM     10  C   UNL     1      -9.295 -11.086  17.832  0.00  0.00    -0.019 C 
ATOM     11  C   UNL     1     -10.548 -10.104  17.891  0.00  0.00    +0.011 C 
ATOM     12  C   UNL     1     -10.731  -9.105  16.684  0.00  0.00    +0.021 C 
ATOM     13  C   UNL     1      -9.058 -11.669  19.301  0.00  0.00    +0.054 C 
ATOM     14  C   UNL     1      -8.034 -10.288  17.413  0.00  0.00    +0.010 C 
ATOM     15  C   UNL     1      -9.368  -8.429  16.367  0.00  0.00    +0.123 C 
ATOM     16  C   UNL     1     -11.850 -10.866  18.277  0.00  0.00    +0.049 C 
ATOM     17  C   UNL     1      -8.232  -9.427  16.173  0.00  0.00    +0.032 C 
ATOM     18  C   UNL     1      -9.495 -12.257  16.839  0.00  0.00    +0.012 C 
ATOM     19  C   UNL     1     -10.352 -12.137  19.914  0.00  0.00    +0.058 A 
ATOM     21  C   UNL     1     -11.720  -7.980  17.103  0.00  0.00    +0.016 C 
ATOM     22  C   UNL     1     -11.593 -11.750  19.450  0.00  0.00    +0.015 A 
ATOM     25  C   UNL     1     -11.620 -13.191  21.365  0.00  0.00    +0.165 A 
ATOM     32  C   UNL     1     -11.297 -14.664  23.334  0.00  0.00    +0.250 C 
ATOM     41  H   UNL     1     -13.088 -13.959  22.491  0.00  0.00    +0.157 HD
ENDROOT
BRANCH  32  33
ATOM      2  F   UNL     1     -14.182 -17.421  27.286  0.00  0.00    -0.205 F 
ATOM     33  C   UNL     1     -12.061 -15.394  24.380  0.00  0.00    +0.037 A 
ATOM     34  C   UNL     1     -11.405 -15.883  25.510  0.00  0.00    +0.016 A 
ATOM     35  C   UNL     1     -13.434 -15.591  24.232  0.00  0.00    +0.016 A 
ATOM     36  C   UNL     1     -12.121 -16.567  26.491  0.00  0.00    +0.039 A 
ATOM     37  C   UNL     1     -14.151 -16.276  25.214  0.00  0.00    +0.039 A 
ATOM     38  C   UNL     1     -13.494 -16.764  26.343  0.00  0.00    +0.123 A 
ENDBRANCH  32  33
BRANCH  15   3
ATOM      3  O   UNL     1      -9.469  -7.615  15.198  0.00  0.00    -0.391 OA
ATOM     39  H   UNL     1      -8.976  -6.795  15.368  0.00  0.00    +0.210 HD
ENDBRANCH  15   3
BRANCH  12  20
ATOM     20  C   UNL     1     -11.340  -9.740  15.414  0.00  0.00    +0.165 C 
BRANCH  20   4
ATOM      4  O   UNL     1     -12.064  -8.738  14.735  0.00  0.00    -0.394 OA
ATOM     40  H   UNL     1     -11.429  -8.231  14.202  0.00  0.00    +0.209 HD
ENDBRANCH  20   4
ENDBRANCH  12  20
BRANCH  13  23
ATOM     23  C   UNL     1      -7.971 -12.749  19.389  0.00  0.00    +0.106 C 
BRANCH  23  24
ATOM      5  O   UNL     1      -6.415 -11.350  20.501  0.00  0.00    -0.276 OA
ATOM      8  N   UNL     1      -5.666 -12.403  18.570  0.00  0.00    -0.301 N 
ATOM     24  C   UNL     1      -6.617 -12.102  19.543  0.00  0.00    +0.216 C 
ATOM     26  C   UNL     1      -5.877 -13.292  17.422  0.00  0.00    +0.108 C 
ATOM     27  C   UNL     1      -4.316 -11.845  18.672  0.00  0.00    +0.108 C 
ATOM     28  C   UNL     1      -5.526 -12.583  16.115  0.00  0.00    +0.022 C 
ATOM     29  C   UNL     1      -3.936 -11.103  17.392  0.00  0.00    +0.022 C 
ATOM     30  C   UNL     1      -4.105 -12.003  16.157  0.00  0.00    -0.011 C 
ATOM     31  C   UNL     1      -3.793 -11.233  14.877  0.00  0.00    +0.007 C 
ENDBRANCH  23  24
ENDBRANCH  13  23
TORSDOF 6
ENDMDL
MODEL 7
REMARK VINA RESULT:      -6.5      5.453      9.909
REMARK  Name = 7135144
REMARK  9 active torsions:
REMARK  status: ('A' for Active; 'I' for Inactive)
REMARK    1  A    between atoms: O_3  and  C_15
REMARK    2  A    between atoms: O_4  and  C_20
REMARK    3  A    between atoms: C_10  and  C_18
REMARK    4  A    between atoms: C_12  and  C_20
REMARK    5  A    between atoms: C_12  and  C_21
REMARK    6  A    between atoms: C_13  and  C_23
REMARK    7  A    between atoms: C_23  and  C_24
REMARK    8  A    between atoms: C_30  and  C_31
REMARK    9  A    between atoms: C_32  and  C_33
REMARK                            x       y       z     vdW  Elec       q    Type
REMARK                         _______ _______ _______ _____ _____    ______ ____
ROOT
ATOM      1  S   UNL     1      -5.375 -10.960  12.373  0.00  0.00    -0.057 S 
ATOM      6  O   UNL     1      -8.750  -8.520  10.293  0.00  0.00    -0.270 OA
ATOM      7  N   UNL     1      -7.596  -9.689  12.753  0.00  0.00    -0.229 NA
ATOM      9  N   UNL     1      -6.759  -9.766  10.494  0.00  0.00    -0.261 N 
ATOM     10  C   UNL     1      -7.518 -10.908  16.410  0.00  0.00    -0.019 C 
ATOM     11  C   UNL     1      -5.926 -10.923  16.454  0.00  0.00    +0.011 C 
ATOM     12  C   UNL     1      -5.252 -11.489  17.762  0.00  0.00    +0.021 C 
ATOM     13  C   UNL     1      -7.969  -9.921  15.237  0.00  0.00    +0.054 C 
ATOM     14  C   UNL     1      -8.066 -10.354  17.751  0.00  0.00    +0.010 C 
ATOM     15  C   UNL     1      -5.948 -10.870  19.007  0.00  0.00    +0.123 C 
ATOM     16  C   UNL     1      -5.327 -11.501  15.139  0.00  0.00    +0.049 C 
ATOM     17  C   UNL     1      -7.465 -11.017  18.984  0.00  0.00    +0.032 C 
ATOM     18  C   UNL     1      -8.126 -12.311  16.166  0.00  0.00    +0.012 C 
ATOM     19  C   UNL     1      -7.184 -10.183  13.977  0.00  0.00    +0.058 A 
ATOM     21  C   UNL     1      -3.761 -11.047  17.797  0.00  0.00    +0.016 C 
ATOM     22  C   UNL     1      -5.992 -10.878  13.959  0.00  0.00    +0.015 A 
ATOM     25  C   UNL     1      -6.723 -10.044  11.835  0.00  0.00    +0.165 A 
ATOM     32  C   UNL     1      -7.747  -9.037   9.812  0.00  0.00    +0.250 C 
ATOM     41  H   UNL     1      -5.949 -10.110   9.987  0.00  0.00    +0.157 HD
ENDROOT
BRANCH  32  33
ATOM      2  F   UNL     1      -6.874  -8.372   4.305  0.00  0.00    -0.205 F 
ATOM     33  C   UNL     1      -7.516  -8.861   8.354  0.00  0.00    +0.037 A 
ATOM     34  C   UNL     1      -8.176  -7.846   7.661  0.00  0.00    +0.016 A 
ATOM     35  C   UNL     1      -6.640  -9.712   7.679  0.00  0.00    +0.016 A 
ATOM     36  C   UNL     1      -7.958  -7.681   6.293  0.00  0.00    +0.039 A 
ATOM     37  C   UNL     1      -6.423  -9.546   6.311  0.00  0.00    +0.039 A 
ATOM     38  C   UNL     1      -7.082  -8.532   5.618  0.00  0.00    +0.123 A 
ENDBRANCH  32  33
BRANCH  15   3
ATOM      3  O   UNL     1      -5.448 -11.458  20.208  0.00  0.00    -0.391 OA
ATOM     39  H   UNL     1      -4.492 -11.598  20.091  0.00  0.00    +0.210 HD
ENDBRANCH  15   3
BRANCH  12  20
ATOM     20  C   UNL     1      -5.228 -13.031  17.855  0.00  0.00    +0.165 C 
BRANCH  20   4
ATOM      4  O   UNL     1      -4.082 -13.402  18.589  0.00  0.00    -0.394 OA
ATOM     40  H   UNL     1      -3.482 -13.862  17.977  0.00  0.00    +0.209 HD
ENDBRANCH  20   4
ENDBRANCH  12  20
BRANCH  13  23
ATOM     23  C   UNL     1      -9.479  -9.903  14.965  0.00  0.00    +0.106 C 
BRANCH  23  24
ATOM      5  O   UNL     1      -9.844  -7.863  16.112  0.00  0.00    -0.276 OA
ATOM      8  N   UNL     1     -11.164  -9.663  16.755  0.00  0.00    -0.301 N 
ATOM     24  C   UNL     1     -10.174  -9.046  15.992  0.00  0.00    +0.216 C 
ATOM     26  C   UNL     1     -11.578 -11.066  16.635  0.00  0.00    +0.108 C 
ATOM     27  C   UNL     1     -11.912  -8.887  17.746  0.00  0.00    +0.108 C 
ATOM     28  C   UNL     1     -11.503 -11.772  17.988  0.00  0.00    +0.022 C 
ATOM     29  C   UNL     1     -11.839  -9.547  19.122  0.00  0.00    +0.022 C 
ATOM     30  C   UNL     1     -12.298 -11.012  19.060  0.00  0.00    -0.011 C 
ATOM     31  C   UNL     1     -12.152 -11.685  20.423  0.00  0.00    +0.007 C 
ENDBRANCH  23  24
ENDBRANCH  13  23
TORSDOF 6
ENDMDL
MODEL 8
REMARK VINA RESULT:      -6.4     15.027     17.308
REMARK  Name = 7135144
REMARK  9 active torsions:
REMARK  status: ('A' for Active; 'I' for Inactive)
REMARK    1  A    between atoms: O_3  and  C_15
REMARK    2  A    between atoms: O_4  and  C_20
REMARK    3  A    between atoms: C_10  and  C_18
REMARK    4  A    between atoms: C_12  and  C_20
REMARK    5  A    between atoms: C_12  and  C_21
REMARK    6  A    between atoms: C_13  and  C_23
REMARK    7  A    between atoms: C_23  and  C_24
REMARK    8  A    between atoms: C_30  and  C_31
REMARK    9  A    between atoms: C_32  and  C_33
REMARK                            x       y       z     vdW  Elec       q    Type
REMARK                         _______ _______ _______ _____ _____    ______ ____
ROOT
ATOM      1  S   UNL     1     -12.752   5.214  22.710  0.00  0.00    -0.057 S 
ATOM      6  O   UNL     1     -17.175   4.515  23.984  0.00  0.00    -0.270 OA
ATOM      7  N   UNL     1     -15.214   5.812  22.188  0.00  0.00    -0.229 NA
ATOM      9  N   UNL     1     -14.827   4.309  24.032  0.00  0.00    -0.261 N 
ATOM     10  C   UNL     1     -13.914   8.327  19.571  0.00  0.00    -0.019 C 
ATOM     11  C   UNL     1     -12.623   7.449  19.254  0.00  0.00    +0.011 C 
ATOM     12  C   UNL     1     -11.564   8.068  18.262  0.00  0.00    +0.021 C 
ATOM     13  C   UNL     1     -15.018   7.365  20.210  0.00  0.00    +0.054 C 
ATOM     14  C   UNL     1     -14.479   8.908  18.249  0.00  0.00    +0.010 C 
ATOM     15  C   UNL     1     -12.300   8.644  17.020  0.00  0.00    +0.123 C 
ATOM     16  C   UNL     1     -11.998   6.867  20.556  0.00  0.00    +0.049 C 
ATOM     17  C   UNL     1     -13.434   9.597  17.381  0.00  0.00    +0.032 C 
ATOM     18  C   UNL     1     -13.623   9.495  20.544  0.00  0.00    +0.012 C 
ATOM     19  C   UNL     1     -14.420   6.491  21.283  0.00  0.00    +0.058 A 
ATOM     21  C   UNL     1     -10.621   6.938  17.758  0.00  0.00    +0.016 C 
ATOM     22  C   UNL     1     -13.064   6.267  21.408  0.00  0.00    +0.015 A 
ATOM     25  C   UNL     1     -14.442   5.113  22.993  0.00  0.00    +0.165 A 
ATOM     32  C   UNL     1     -16.141   4.060  24.461  0.00  0.00    +0.250 C 
ATOM     41  H   UNL     1     -14.052   3.836  24.486  0.00  0.00    +0.157 HD
ENDROOT
BRANCH  32  33
ATOM      2  F   UNL     1     -16.625   0.491  28.770  0.00  0.00    -0.205 F 
ATOM     33  C   UNL     1     -16.269   3.115  25.602  0.00  0.00    +0.037 A 
ATOM     34  C   UNL     1     -16.659   1.795  25.374  0.00  0.00    +0.016 A 
ATOM     35  C   UNL     1     -16.001   3.549  26.901  0.00  0.00    +0.016 A 
ATOM     36  C   UNL     1     -16.779   0.909  26.444  0.00  0.00    +0.039 A 
ATOM     37  C   UNL     1     -16.121   2.662  27.971  0.00  0.00    +0.039 A 
ATOM     38  C   UNL     1     -16.510   1.342  27.742  0.00  0.00    +0.123 A 
ENDBRANCH  32  33
BRANCH  15   3
ATOM      3  O   UNL     1     -11.383   9.325  16.163  0.00  0.00    -0.391 OA
ATOM     39  H   UNL     1     -10.518   8.890  16.253  0.00  0.00    +0.210 HD
ENDBRANCH  15   3
BRANCH  12  20
ATOM     20  C   UNL     1     -10.637   9.129  18.895  0.00  0.00    +0.165 C 
BRANCH  20   4
ATOM      4  O   UNL     1      -9.484   9.232  18.089  0.00  0.00    -0.394 OA
ATOM     40  H   UNL     1      -8.725   8.964  18.633  0.00  0.00    +0.209 HD
ENDBRANCH  20   4
ENDBRANCH  12  20
BRANCH  13  23
ATOM     23  C   UNL     1     -16.278   8.084  20.709  0.00  0.00    +0.106 C 
BRANCH  23  24
ATOM      5  O   UNL     1     -17.763   6.414  19.922  0.00  0.00    -0.276 OA
ATOM      8  N   UNL     1     -18.201   8.592  19.244  0.00  0.00    -0.301 N 
ATOM     24  C   UNL     1     -17.479   7.615  19.926  0.00  0.00    +0.216 C 
ATOM     26  C   UNL     1     -17.888  10.026  19.230  0.00  0.00    +0.108 C 
ATOM     27  C   UNL     1     -19.403   8.221  18.494  0.00  0.00    +0.108 C 
ATOM     28  C   UNL     1     -17.766  10.541  17.797  0.00  0.00    +0.022 C 
ATOM     29  C   UNL     1     -19.308   8.696  17.045  0.00  0.00    +0.022 C 
ATOM     30  C   UNL     1     -19.017  10.203  16.972  0.00  0.00    -0.011 C 
ATOM     31  C   UNL     1     -18.851  10.655  15.524  0.00  0.00    +0.007 C 
ENDBRANCH  23  24
ENDBRANCH  13  23
TORSDOF 6
ENDMDL
MODEL 9
REMARK VINA RESULT:      -6.4     30.427     33.642
REMARK  Name = 7135144
REMARK  9 active torsions:
REMARK  status: ('A' for Active; 'I' for Inactive)
REMARK    1  A    between atoms: O_3  and  C_15
REMARK    2  A    between atoms: O_4  and  C_20
REMARK    3  A    between atoms: C_10  and  C_18
REMARK    4  A    between atoms: C_12  and  C_20
REMARK    5  A    between atoms: C_12  and  C_21
REMARK    6  A    between atoms: C_13  and  C_23
REMARK    7  A    between atoms: C_23  and  C_24
REMARK    8  A    between atoms: C_30  and  C_31
REMARK    9  A    between atoms: C_32  and  C_33
REMARK                            x       y       z     vdW  Elec       q    Type
REMARK                         _______ _______ _______ _____ _____    ______ ____
ROOT
ATOM      1  S   UNL     1      19.623  -5.952  20.268  0.00  0.00    -0.057 S 
ATOM      6  O   UNL     1      21.765  -9.874  21.576  0.00  0.00    -0.270 OA
ATOM      7  N   UNL     1      20.391  -7.356  22.300  0.00  0.00    -0.229 NA
ATOM      9  N   UNL     1      20.880  -8.248  20.116  0.00  0.00    -0.261 N 
ATOM     10  C   UNL     1      19.260  -4.451  24.570  0.00  0.00    -0.019 C 
ATOM     11  C   UNL     1      18.101  -4.016  23.568  0.00  0.00    +0.011 C 
ATOM     12  C   UNL     1      17.298  -2.707  23.928  0.00  0.00    +0.021 C 
ATOM     13  C   UNL     1      19.623  -5.978  24.269  0.00  0.00    +0.054 C 
ATOM     14  C   UNL     1      18.745  -4.350  26.029  0.00  0.00    +0.010 C 
ATOM     15  C   UNL     1      16.901  -2.747  25.431  0.00  0.00    +0.123 C 
ATOM     16  C   UNL     1      18.580  -4.070  22.087  0.00  0.00    +0.049 C 
ATOM     17  C   UNL     1      18.079  -3.020  26.358  0.00  0.00    +0.032 C 
ATOM     18  C   UNL     1      20.533  -3.582  24.431  0.00  0.00    +0.012 C 
ATOM     19  C   UNL     1      19.779  -6.216  22.789  0.00  0.00    +0.058 A 
ATOM     21  C   UNL     1      15.981  -2.676  23.102  0.00  0.00    +0.016 C 
ATOM     22  C   UNL     1      19.287  -5.357  21.828  0.00  0.00    +0.015 A 
ATOM     25  C   UNL     1      20.373  -7.320  20.985  0.00  0.00    +0.165 A 
ATOM     32  C   UNL     1      21.533  -9.446  20.450  0.00  0.00    +0.250 C 
ATOM     41  H   UNL     1      20.710  -8.024  19.140  0.00  0.00    +0.157 HD
ENDROOT
BRANCH  32  33
ATOM      2  F   UNL     1      23.126 -12.611  16.093  0.00  0.00    -0.205 F 
ATOM     33  C   UNL     1      21.955 -10.284  19.297  0.00  0.00    +0.037 A 
ATOM     34  C   UNL     1      21.085 -11.242  18.775  0.00  0.00    +0.016 A 
ATOM     35  C   UNL     1      23.221 -10.113  18.736  0.00  0.00    +0.016 A 
ATOM     36  C   UNL     1      21.481 -12.028  17.693  0.00  0.00    +0.039 A 
ATOM     37  C   UNL     1      23.616 -10.899  17.653  0.00  0.00    +0.039 A 
ATOM     38  C   UNL     1      22.746 -11.856  17.133  0.00  0.00    +0.123 A 
ENDBRANCH  32  33
BRANCH  15   3
ATOM      3  O   UNL     1      16.285  -1.520  25.821  0.00  0.00    -0.391 OA
ATOM     39  H   UNL     1      15.336  -1.589  25.617  0.00  0.00    +0.210 HD
ENDBRANCH  15   3
BRANCH  12  20
ATOM     20  C   UNL     1      18.032  -1.391  23.588  0.00  0.00    +0.165 C 
BRANCH  20   4
ATOM      4  O   UNL     1      17.470  -0.878  22.400  0.00  0.00    -0.394 OA
ATOM     40  H   UNL     1      18.205  -0.652  21.805  0.00  0.00    +0.209 HD
ENDBRANCH  20   4
ENDBRANCH  12  20
BRANCH  13  23
ATOM     23  C   UNL     1      20.827  -6.514  25.055  0.00  0.00    +0.106 C 
BRANCH  23  24
ATOM      5  O   UNL     1      19.778  -8.576  25.564  0.00  0.00    -0.276 OA
ATOM      8  N   UNL     1      20.677  -7.401  27.355  0.00  0.00    -0.301 N 
ATOM     24  C   UNL     1      20.378  -7.593  26.007  0.00  0.00    +0.216 C 
ATOM     26  C   UNL     1      21.389  -6.244  27.911  0.00  0.00    +0.108 C 
ATOM     27  C   UNL     1      20.309  -8.423  28.337  0.00  0.00    +0.108 C 
ATOM     28  C   UNL     1      20.578  -5.596  29.032  0.00  0.00    +0.022 C 
ATOM     29  C   UNL     1      19.473  -7.819  29.463  0.00  0.00    +0.022 C 
ATOM     30  C   UNL     1      20.190  -6.622  30.107  0.00  0.00    -0.011 C 
ATOM     31  C   UNL     1      19.317  -5.980  31.182  0.00  0.00    +0.007 C 
ENDBRANCH  23  24
ENDBRANCH  13  23
TORSDOF 6
ENDMDL
MODEL 10
REMARK VINA RESULT:      -6.3     15.879     18.756
REMARK  Name = 7135144
REMARK  9 active torsions:
REMARK  status: ('A' for Active; 'I' for Inactive)
REMARK    1  A    between atoms: O_3  and  C_15
REMARK    2  A    between atoms: O_4  and  C_20
REMARK    3  A    between atoms: C_10  and  C_18
REMARK    4  A    between atoms: C_12  and  C_20
REMARK    5  A    between atoms: C_12  and  C_21
REMARK    6  A    between atoms: C_13  and  C_23
REMARK    7  A    between atoms: C_23  and  C_24
REMARK    8  A    between atoms: C_30  and  C_31
REMARK    9  A    between atoms: C_32  and  C_33
REMARK                            x       y       z     vdW  Elec       q    Type
REMARK                         _______ _______ _______ _____ _____    ______ ____
ROOT
ATOM      1  S   UNL     1     -12.962   5.296  22.457  0.00  0.00    -0.057 S 
ATOM      6  O   UNL     1     -17.008   5.626  24.737  0.00  0.00    -0.270 OA
ATOM      7  N   UNL     1     -15.078   6.746  22.796  0.00  0.00    -0.229 NA
ATOM      9  N   UNL     1     -14.940   4.709  24.075  0.00  0.00    -0.261 N 
ATOM     10  C   UNL     1     -13.449   9.418  20.543  0.00  0.00    -0.019 C 
ATOM     11  C   UNL     1     -12.659   8.330  19.689  0.00  0.00    +0.011 C 
ATOM     12  C   UNL     1     -11.651   8.868  18.602  0.00  0.00    +0.021 C 
ATOM     13  C   UNL     1     -14.691   8.692  21.237  0.00  0.00    +0.054 C 
ATOM     14  C   UNL     1     -13.994  10.519  19.597  0.00  0.00    +0.010 C 
ATOM     15  C   UNL     1     -12.338   9.992  17.777  0.00  0.00    +0.123 C 
ATOM     16  C   UNL     1     -12.064   7.216  20.600  0.00  0.00    +0.049 C 
ATOM     17  C   UNL     1     -12.949  11.087  18.645  0.00  0.00    +0.032 C 
ATOM     18  C   UNL     1     -12.570  10.085  21.629  0.00  0.00    +0.012 C 
ATOM     19  C   UNL     1     -14.272   7.394  21.877  0.00  0.00    +0.058 A 
ATOM     21  C   UNL     1     -11.306   7.715  17.616  0.00  0.00    +0.016 C 
ATOM     22  C   UNL     1     -13.098   6.739  21.563  0.00  0.00    +0.015 A 
ATOM     25  C   UNL     1     -14.485   5.634  23.175  0.00  0.00    +0.165 A 
ATOM     32  C   UNL     1     -16.148   4.753  24.791  0.00  0.00    +0.250 C 
ATOM     41  H   UNL     1     -14.326   3.906  24.176  0.00  0.00    +0.157 HD
ENDROOT
BRANCH  32  33
ATOM      2  F   UNL     1     -17.109   0.364  28.160  0.00  0.00    -0.205 F 
ATOM     33  C   UNL     1     -16.402   3.592  25.683  0.00  0.00    +0.037 A 
ATOM     34  C   UNL     1     -16.529   2.312  25.142  0.00  0.00    +0.016 A 
ATOM     35  C   UNL     1     -16.515   3.781  27.060  0.00  0.00    +0.016 A 
ATOM     36  C   UNL     1     -16.767   1.222  25.979  0.00  0.00    +0.039 A 
ATOM     37  C   UNL     1     -16.754   2.690  27.897  0.00  0.00    +0.039 A 
ATOM     38  C   UNL     1     -16.880   1.411  27.356  0.00  0.00    +0.123 A 
ENDBRANCH  32  33
BRANCH  15   3
ATOM      3  O   UNL     1     -11.412  10.589  16.870  0.00  0.00    -0.391 OA
ATOM     39  H   UNL     1     -10.518  10.445  17.225  0.00  0.00    +0.210 HD
ENDBRANCH  15   3
BRANCH  12  20
ATOM     20  C   UNL     1     -10.296   9.349  19.167  0.00  0.00    +0.165 C 
BRANCH  20   4
ATOM      4  O   UNL     1      -9.360   9.336  18.113  0.00  0.00    -0.394 OA
ATOM     40  H   UNL     1      -9.568  10.085  17.529  0.00  0.00    +0.209 HD
ENDBRANCH  20   4
ENDBRANCH  12  20
BRANCH  13  23
ATOM     23  C   UNL     1     -15.478   9.573  22.217  0.00  0.00    +0.106 C 
BRANCH  23  24
ATOM      5  O   UNL     1     -17.449   9.535  20.903  0.00  0.00    -0.276 OA
ATOM      8  N   UNL     1     -16.683  11.627  21.561  0.00  0.00    -0.301 N 
ATOM     24  C   UNL     1     -16.628  10.236  21.501  0.00  0.00    +0.216 C 
ATOM     26  C   UNL     1     -15.722  12.486  22.264  0.00  0.00    +0.108 C 
ATOM     27  C   UNL     1     -17.791  12.341  20.924  0.00  0.00    +0.108 C 
ATOM     28  C   UNL     1     -15.159  13.551  21.324  0.00  0.00    +0.022 C 
ATOM     29  C   UNL     1     -17.269  13.400  19.954  0.00  0.00    +0.022 C 
ATOM     30  C   UNL     1     -16.283  14.352  20.649  0.00  0.00    -0.011 C 
ATOM     31  C   UNL     1     -15.711  15.360  19.656  0.00  0.00    +0.007 C 
ENDBRANCH  23  24
ENDBRANCH  13  23
TORSDOF 6
ENDMDL
