MODEL 1
REMARK VINA RESULT:      -7.6      0.000      0.000
REMARK  Name = 40779473
REMARK  7 active torsions:
REMARK  status: ('A' for Active; 'I' for Inactive)
REMARK    1  A    between atoms: S_1  and  N_6
REMARK    2  A    between atoms: S_1  and  C_21
REMARK    3  A    between atoms: N_5  and  C_19
REMARK    4  A    between atoms: N_6  and  C_15
REMARK    5  A    between atoms: C_9  and  C_16
REMARK    6  A    between atoms: C_10  and  C_15
REMARK    7  A    between atoms: C_18  and  C_20
REMARK                            x       y       z     vdW  Elec       q    Type
REMARK                         _______ _______ _______ _____ _____    ______ ____
ROOT
ATOM      5  N   UNL     1      15.221   7.093  19.078  0.00  0.00    -0.270 N 
ATOM      7  N   UNL     1      16.549   6.903  19.158  0.00  0.00    -0.171 NA
ATOM     16  C   UNL     1      14.630   7.362  20.278  0.00  0.00    +0.044 A 
ATOM     17  C   UNL     1      15.642   7.346  21.206  0.00  0.00    +0.053 A 
ATOM     18  C   UNL     1      16.800   7.059  20.459  0.00  0.00    +0.093 A 
ATOM     19  C   UNL     1      14.570   6.998  17.792  0.00  0.00    +0.172 C 
ENDROOT
BRANCH  18  20
ATOM     20  C   UNL     1      18.141   6.930  20.967  0.00  0.00    +0.003 A 
ATOM     22  C   UNL     1      18.966   5.904  20.503  0.00  0.00    +0.018 A 
ATOM     23  C   UNL     1      18.614   7.827  21.920  0.00  0.00    +0.011 A 
ATOM     24  C   UNL     1      20.277   5.764  20.988  0.00  0.00    -0.017 A 
ATOM     25  C   UNL     1      19.914   7.703  22.412  0.00  0.00    +0.009 A 
ATOM     26  C   UNL     1      20.758   6.677  21.957  0.00  0.00    -0.018 A 
ATOM     27  C   UNL     1      21.121   4.738  20.533  0.00  0.00    +0.008 A 
ATOM     28  C   UNL     1      22.068   6.538  22.441  0.00  0.00    +0.008 A 
ATOM     29  C   UNL     1      22.421   4.614  21.025  0.00  0.00    +0.001 A 
ATOM     30  C   UNL     1      22.893   5.512  21.977  0.00  0.00    +0.001 A 
ENDBRANCH  18  20
BRANCH  16   9
ATOM      4  N   UNL     1      11.609   8.766  22.071  0.00  0.00    -0.297 NA
ATOM      8  C   UNL     1      12.502   8.779  19.624  0.00  0.00    +0.002 C 
ATOM      9  C   UNL     1      13.136   7.610  20.429  0.00  0.00    +0.055 C 
ATOM     10  C   UNL     1      12.078  10.129  21.708  0.00  0.00    +0.072 C 
ATOM     11  C   UNL     1      12.798  10.112  20.343  0.00  0.00    +0.024 C 
ATOM     12  C   UNL     1      10.973   8.571  19.667  0.00  0.00    +0.019 C 
ATOM     13  C   UNL     1      12.716   7.790  21.916  0.00  0.00    +0.094 C 
ATOM     14  C   UNL     1      10.527   8.392  21.130  0.00  0.00    +0.085 C 
BRANCH  10  15
ATOM     15  C   UNL     1      12.944  10.758  22.802  0.00  0.00    +0.124 C 
BRANCH  15   6
ATOM      6  N   UNL     1      12.230  10.686  24.087  0.00  0.00    -0.193 NA
ATOM     31  H   UNL     1      12.463   9.851  24.641  0.00  0.00    +0.148 HD
BRANCH   6   1
ATOM      1  S   UNL     1      11.949  12.122  24.968  0.00  0.00    +0.027 S 
ATOM      2  O   UNL     1      12.941  12.257  26.016  0.00  0.00    -0.158 OA
ATOM      3  O   UNL     1      10.533  12.208  25.271  0.00  0.00    -0.158 OA
ATOM     21  C   UNL     1      12.300  13.342  23.722  0.00  0.00    +0.214 C 
ENDBRANCH   6   1
ENDBRANCH  15   6
ENDBRANCH  10  15
ENDBRANCH  16   9
TORSDOF 5
ENDMDL
MODEL 2
REMARK VINA RESULT:      -7.5      3.410      4.509
REMARK  Name = 40779473
REMARK  7 active torsions:
REMARK  status: ('A' for Active; 'I' for Inactive)
REMARK    1  A    between atoms: S_1  and  N_6
REMARK    2  A    between atoms: S_1  and  C_21
REMARK    3  A    between atoms: N_5  and  C_19
REMARK    4  A    between atoms: N_6  and  C_15
REMARK    5  A    between atoms: C_9  and  C_16
REMARK    6  A    between atoms: C_10  and  C_15
REMARK    7  A    between atoms: C_18  and  C_20
REMARK                            x       y       z     vdW  Elec       q    Type
REMARK                         _______ _______ _______ _____ _____    ______ ____
ROOT
ATOM      5  N   UNL     1      16.787  10.837  21.797  0.00  0.00    -0.270 N 
ATOM      7  N   UNL     1      17.853  10.027  21.682  0.00  0.00    -0.171 NA
ATOM     16  C   UNL     1      15.595  10.219  21.555  0.00  0.00    +0.044 A 
ATOM     17  C   UNL     1      15.904   8.913  21.262  0.00  0.00    +0.053 A 
ATOM     18  C   UNL     1      17.307   8.853  21.356  0.00  0.00    +0.093 A 
ATOM     19  C   UNL     1      16.990  12.224  22.147  0.00  0.00    +0.172 C 
ENDROOT
BRANCH  18  20
ATOM     20  C   UNL     1      18.135   7.695  21.138  0.00  0.00    +0.003 A 
ATOM     22  C   UNL     1      19.238   7.463  21.961  0.00  0.00    +0.018 A 
ATOM     23  C   UNL     1      17.835   6.809  20.108  0.00  0.00    +0.011 A 
ATOM     24  C   UNL     1      20.056   6.338  21.762  0.00  0.00    -0.017 A 
ATOM     25  C   UNL     1      18.637   5.686  19.897  0.00  0.00    +0.009 A 
ATOM     26  C   UNL     1      19.751   5.437  20.714  0.00  0.00    -0.018 A 
ATOM     27  C   UNL     1      21.170   6.089  22.580  0.00  0.00    +0.008 A 
ATOM     28  C   UNL     1      20.568   4.313  20.516  0.00  0.00    +0.008 A 
ATOM     29  C   UNL     1      21.971   4.966  22.369  0.00  0.00    +0.001 A 
ATOM     30  C   UNL     1      21.671   4.081  21.339  0.00  0.00    +0.001 A 
ENDBRANCH  18  20
BRANCH  16   9
ATOM      4  N   UNL     1      11.983  10.732  20.555  0.00  0.00    -0.297 NA
ATOM      8  C   UNL     1      13.299  10.594  22.799  0.00  0.00    +0.002 C 
ATOM      9  C   UNL     1      14.258  10.940  21.626  0.00  0.00    +0.055 C 
ATOM     10  C   UNL     1      11.650   9.468  21.262  0.00  0.00    +0.072 C 
ATOM     11  C   UNL     1      12.569   9.270  22.486  0.00  0.00    +0.024 C 
ATOM     12  C   UNL     1      12.226  11.703  22.839  0.00  0.00    +0.019 C 
ATOM     13  C   UNL     1      13.444  10.805  20.307  0.00  0.00    +0.094 C 
ATOM     14  C   UNL     1      11.606  11.861  21.439  0.00  0.00    +0.085 C 
BRANCH  10  15
ATOM     15  C   UNL     1      11.673   8.254  20.330  0.00  0.00    +0.124 C 
BRANCH  15   6
ATOM      6  N   UNL     1      10.954   8.584  19.089  0.00  0.00    -0.193 NA
ATOM     31  H   UNL     1      10.328   9.395  19.179  0.00  0.00    +0.148 HD
BRANCH   6   1
ATOM      1  S   UNL     1      11.754   8.412  17.589  0.00  0.00    +0.027 S 
ATOM      2  O   UNL     1      12.258   9.699  17.151  0.00  0.00    -0.158 OA
ATOM      3  O   UNL     1      10.927   7.603  16.715  0.00  0.00    -0.158 OA
ATOM     21  C   UNL     1      13.146   7.416  18.075  0.00  0.00    +0.214 C 
ENDBRANCH   6   1
ENDBRANCH  15   6
ENDBRANCH  10  15
ENDBRANCH  16   9
TORSDOF 5
ENDMDL
MODEL 3
REMARK VINA RESULT:      -7.3     26.979     29.883
REMARK  Name = 40779473
REMARK  7 active torsions:
REMARK  status: ('A' for Active; 'I' for Inactive)
REMARK    1  A    between atoms: S_1  and  N_6
REMARK    2  A    between atoms: S_1  and  C_21
REMARK    3  A    between atoms: N_5  and  C_19
REMARK    4  A    between atoms: N_6  and  C_15
REMARK    5  A    between atoms: C_9  and  C_16
REMARK    6  A    between atoms: C_10  and  C_15
REMARK    7  A    between atoms: C_18  and  C_20
REMARK                            x       y       z     vdW  Elec       q    Type
REMARK                         _______ _______ _______ _____ _____    ______ ____
ROOT
ATOM      5  N   UNL     1      -2.618 -10.664  14.885  0.00  0.00    -0.270 N 
ATOM      7  N   UNL     1      -2.462 -10.631  13.551  0.00  0.00    -0.171 NA
ATOM     16  C   UNL     1      -3.921 -10.669  15.289  0.00  0.00    +0.044 A 
ATOM     17  C   UNL     1      -4.669 -10.636  14.138  0.00  0.00    +0.053 A 
ATOM     18  C   UNL     1      -3.719 -10.614  13.100  0.00  0.00    +0.093 A 
ATOM     19  C   UNL     1      -1.447 -10.689  15.731  0.00  0.00    +0.172 C 
ENDROOT
BRANCH  18  20
ATOM     20  C   UNL     1      -3.989 -10.576  11.686  0.00  0.00    +0.003 A 
ATOM     22  C   UNL     1      -3.923 -11.749  10.933  0.00  0.00    +0.018 A 
ATOM     23  C   UNL     1      -4.315  -9.371  11.072  0.00  0.00    +0.011 A 
ATOM     24  C   UNL     1      -4.185 -11.729   9.552  0.00  0.00    -0.017 A 
ATOM     25  C   UNL     1      -4.578  -9.334   9.702  0.00  0.00    +0.009 A 
ATOM     26  C   UNL     1      -4.517 -10.503   8.928  0.00  0.00    -0.018 A 
ATOM     27  C   UNL     1      -4.124 -12.900   8.779  0.00  0.00    +0.008 A 
ATOM     28  C   UNL     1      -4.779 -10.484   7.549  0.00  0.00    +0.008 A 
ATOM     29  C   UNL     1      -4.387 -12.862   7.409  0.00  0.00    +0.001 A 
ATOM     30  C   UNL     1      -4.713 -11.657   6.796  0.00  0.00    +0.001 A 
ENDBRANCH  18  20
BRANCH  16   9
ATOM      4  N   UNL     1      -6.480 -10.556  18.073  0.00  0.00    -0.297 NA
ATOM      8  C   UNL     1      -4.470 -12.088  17.444  0.00  0.00    +0.002 C 
ATOM      9  C   UNL     1      -4.335 -10.703  16.752  0.00  0.00    +0.055 C 
ATOM     10  C   UNL     1      -6.974 -11.881  17.617  0.00  0.00    +0.072 C 
ATOM     11  C   UNL     1      -5.817 -12.728  17.046  0.00  0.00    +0.024 C 
ATOM     12  C   UNL     1      -4.526 -11.823  18.964  0.00  0.00    +0.019 C 
ATOM     13  C   UNL     1      -5.659  -9.926  17.009  0.00  0.00    +0.094 C 
ATOM     14  C   UNL     1      -5.615 -10.775  19.256  0.00  0.00    +0.085 C 
BRANCH  10  15
ATOM     15  C   UNL     1      -8.135 -11.761  16.627  0.00  0.00    +0.124 C 
BRANCH  15   6
ATOM      6  N   UNL     1      -9.147 -10.845  17.177  0.00  0.00    -0.193 NA
ATOM     31  H   UNL     1      -9.071 -10.710  18.193  0.00  0.00    +0.148 HD
BRANCH   6   1
ATOM      1  S   UNL     1      -9.617  -9.477  16.267  0.00  0.00    +0.027 S 
ATOM      2  O   UNL     1      -9.153  -8.269  16.922  0.00  0.00    -0.158 OA
ATOM      3  O   UNL     1     -11.010  -9.629  15.891  0.00  0.00    -0.158 OA
ATOM     21  C   UNL     1      -8.642  -9.712  14.798  0.00  0.00    +0.214 C 
ENDBRANCH   6   1
ENDBRANCH  15   6
ENDBRANCH  10  15
ENDBRANCH  16   9
TORSDOF 5
ENDMDL
MODEL 4
REMARK VINA RESULT:      -7.2     27.602     31.218
REMARK  Name = 40779473
REMARK  7 active torsions:
REMARK  status: ('A' for Active; 'I' for Inactive)
REMARK    1  A    between atoms: S_1  and  N_6
REMARK    2  A    between atoms: S_1  and  C_21
REMARK    3  A    between atoms: N_5  and  C_19
REMARK    4  A    between atoms: N_6  and  C_15
REMARK    5  A    between atoms: C_9  and  C_16
REMARK    6  A    between atoms: C_10  and  C_15
REMARK    7  A    between atoms: C_18  and  C_20
REMARK                            x       y       z     vdW  Elec       q    Type
REMARK                         _______ _______ _______ _____ _____    ______ ____
ROOT
ATOM      5  N   UNL     1      -9.275 -10.783  18.667  0.00  0.00    -0.270 N 
ATOM      7  N   UNL     1     -10.242  -9.972  18.204  0.00  0.00    -0.171 NA
ATOM     16  C   UNL     1      -8.095 -10.674  17.993  0.00  0.00    +0.044 A 
ATOM     17  C   UNL     1      -8.304  -9.726  17.021  0.00  0.00    +0.053 A 
ATOM     18  C   UNL     1      -9.643  -9.329  17.199  0.00  0.00    +0.093 A 
ATOM     19  C   UNL     1      -9.561 -11.656  19.782  0.00  0.00    +0.172 C 
ENDROOT
BRANCH  18  20
ATOM     20  C   UNL     1     -10.359  -8.348  16.426  0.00  0.00    +0.003 A 
ATOM     22  C   UNL     1     -10.849  -8.680  15.162  0.00  0.00    +0.018 A 
ATOM     23  C   UNL     1     -10.563  -7.071  16.939  0.00  0.00    +0.011 A 
ATOM     24  C   UNL     1     -11.551  -7.735  14.395  0.00  0.00    -0.017 A 
ATOM     25  C   UNL     1     -11.258  -6.120  16.190  0.00  0.00    +0.009 A 
ATOM     26  C   UNL     1     -11.758  -6.436  14.917  0.00  0.00    -0.018 A 
ATOM     27  C   UNL     1     -12.050  -8.051  13.122  0.00  0.00    +0.008 A 
ATOM     28  C   UNL     1     -12.459  -5.492  14.150  0.00  0.00    +0.008 A 
ATOM     29  C   UNL     1     -12.745  -7.100  12.373  0.00  0.00    +0.001 A 
ATOM     30  C   UNL     1     -12.948  -5.824  12.886  0.00  0.00    +0.001 A 
ENDBRANCH  18  20
BRANCH  16   9
ATOM      4  N   UNL     1      -5.072 -12.766  17.098  0.00  0.00    -0.297 NA
ATOM      8  C   UNL     1      -5.544 -10.739  18.664  0.00  0.00    +0.002 C 
ATOM      9  C   UNL     1      -6.863 -11.495  18.342  0.00  0.00    +0.055 C 
ATOM     10  C   UNL     1      -4.437 -11.540  16.548  0.00  0.00    +0.072 C 
ATOM     11  C   UNL     1      -4.876 -10.294  17.346  0.00  0.00    +0.024 C 
ATOM     12  C   UNL     1      -4.596 -11.760  19.330  0.00  0.00    +0.019 C 
ATOM     13  C   UNL     1      -6.533 -12.557  17.252  0.00  0.00    +0.094 C 
ATOM     14  C   UNL     1      -4.496 -13.013  18.442  0.00  0.00    +0.085 C 
BRANCH  10  15
ATOM     15  C   UNL     1      -4.692 -11.375  15.048  0.00  0.00    +0.124 C 
BRANCH  15   6
ATOM      6  N   UNL     1      -3.764 -10.368  14.507  0.00  0.00    -0.193 NA
ATOM     31  H   UNL     1      -3.911  -9.426  14.890  0.00  0.00    +0.148 HD
BRANCH   6   1
ATOM      1  S   UNL     1      -2.144 -10.810  14.192  0.00  0.00    +0.027 S 
ATOM      2  O   UNL     1      -1.980 -12.239  14.378  0.00  0.00    -0.158 OA
ATOM      3  O   UNL     1      -1.269  -9.870  14.865  0.00  0.00    -0.158 OA
ATOM     21  C   UNL     1      -2.047 -10.471  12.449  0.00  0.00    +0.214 C 
ENDBRANCH   6   1
ENDBRANCH  15   6
ENDBRANCH  10  15
ENDBRANCH  16   9
TORSDOF 5
ENDMDL
MODEL 5
REMARK VINA RESULT:      -7.2     18.384     21.902
REMARK  Name = 40779473
REMARK  7 active torsions:
REMARK  status: ('A' for Active; 'I' for Inactive)
REMARK    1  A    between atoms: S_1  and  N_6
REMARK    2  A    between atoms: S_1  and  C_21
REMARK    3  A    between atoms: N_5  and  C_19
REMARK    4  A    between atoms: N_6  and  C_15
REMARK    5  A    between atoms: C_9  and  C_16
REMARK    6  A    between atoms: C_10  and  C_15
REMARK    7  A    between atoms: C_18  and  C_20
REMARK                            x       y       z     vdW  Elec       q    Type
REMARK                         _______ _______ _______ _____ _____    ______ ____
ROOT
ATOM      5  N   UNL     1       9.658   7.755   0.393  0.00  0.00    -0.270 N 
ATOM      7  N   UNL     1       9.478   7.807   1.724  0.00  0.00    -0.171 NA
ATOM     16  C   UNL     1      10.115   6.550  -0.054  0.00  0.00    +0.044 A 
ATOM     17  C   UNL     1      10.242   5.760   1.062  0.00  0.00    +0.053 A 
ATOM     18  C   UNL     1       9.834   6.586   2.127  0.00  0.00    +0.093 A 
ATOM     19  C   UNL     1       9.369   8.925  -0.404  0.00  0.00    +0.172 C 
ENDROOT
BRANCH  18  20
ATOM     20  C   UNL     1       9.783   6.229   3.521  0.00  0.00    +0.003 A 
ATOM     22  C   UNL     1       9.353   7.164   4.463  0.00  0.00    +0.018 A 
ATOM     23  C   UNL     1      10.161   4.954   3.928  0.00  0.00    +0.011 A 
ATOM     24  C   UNL     1       9.296   6.833   5.828  0.00  0.00    -0.017 A 
ATOM     25  C   UNL     1      10.110   4.607   5.278  0.00  0.00    +0.009 A 
ATOM     26  C   UNL     1       9.681   5.535   6.241  0.00  0.00    -0.018 A 
ATOM     27  C   UNL     1       8.866   7.761   6.789  0.00  0.00    +0.008 A 
ATOM     28  C   UNL     1       9.624   5.204   7.604  0.00  0.00    +0.008 A 
ATOM     29  C   UNL     1       8.816   7.414   8.140  0.00  0.00    +0.001 A 
ATOM     30  C   UNL     1       9.194   6.139   8.546  0.00  0.00    +0.001 A 
ENDBRANCH  18  20
BRANCH  16   9
ATOM      4  N   UNL     1      12.381   5.630  -2.940  0.00  0.00    -0.297 NA
ATOM      8  C   UNL     1      10.054   4.848  -2.069  0.00  0.00    +0.002 C 
ATOM      9  C   UNL     1      10.393   6.263  -1.522  0.00  0.00    +0.055 C 
ATOM     10  C   UNL     1      12.486   4.261  -2.369  0.00  0.00    +0.072 C 
ATOM     11  C   UNL     1      11.172   3.864  -1.664  0.00  0.00    +0.024 C 
ATOM     12  C   UNL     1      10.077   4.949  -3.610  0.00  0.00    +0.019 C 
ATOM     13  C   UNL     1      11.867   6.571  -1.915  0.00  0.00    +0.094 C 
ATOM     14  C   UNL     1      11.407   5.583  -4.056  0.00  0.00    +0.085 C 
BRANCH  10  15
ATOM     15  C   UNL     1      13.697   4.106  -1.446  0.00  0.00    +0.124 C 
BRANCH  15   6
ATOM      6  N   UNL     1      13.354   3.188  -0.348  0.00  0.00    -0.193 NA
ATOM     31  H   UNL     1      13.485   2.197  -0.585  0.00  0.00    +0.148 HD
BRANCH   6   1
ATOM      1  S   UNL     1      13.723   3.636   1.259  0.00  0.00    +0.027 S 
ATOM      2  O   UNL     1      15.041   3.145   1.615  0.00  0.00    -0.158 OA
ATOM      3  O   UNL     1      12.574   3.345   2.095  0.00  0.00    -0.158 OA
ATOM     21  C   UNL     1      13.824   5.403   1.090  0.00  0.00    +0.214 C 
ENDBRANCH   6   1
ENDBRANCH  15   6
ENDBRANCH  10  15
ENDBRANCH  16   9
TORSDOF 5
ENDMDL
MODEL 6
REMARK VINA RESULT:      -7.1      4.885      9.802
REMARK  Name = 40779473
REMARK  7 active torsions:
REMARK  status: ('A' for Active; 'I' for Inactive)
REMARK    1  A    between atoms: S_1  and  N_6
REMARK    2  A    between atoms: S_1  and  C_21
REMARK    3  A    between atoms: N_5  and  C_19
REMARK    4  A    between atoms: N_6  and  C_15
REMARK    5  A    between atoms: C_9  and  C_16
REMARK    6  A    between atoms: C_10  and  C_15
REMARK    7  A    between atoms: C_18  and  C_20
REMARK                            x       y       z     vdW  Elec       q    Type
REMARK                         _______ _______ _______ _____ _____    ______ ____
ROOT
ATOM      5  N   UNL     1      21.884   6.541  20.607  0.00  0.00    -0.270 N 
ATOM      7  N   UNL     1      20.678   7.113  20.456  0.00  0.00    -0.171 NA
ATOM     16  C   UNL     1      21.850   5.178  20.626  0.00  0.00    +0.044 A 
ATOM     17  C   UNL     1      20.529   4.834  20.476  0.00  0.00    +0.053 A 
ATOM     18  C   UNL     1      19.854   6.066  20.375  0.00  0.00    +0.093 A 
ATOM     19  C   UNL     1      23.052   7.382  20.733  0.00  0.00    +0.172 C 
ENDROOT
BRANCH  18  20
ATOM     20  C   UNL     1      18.437   6.259  20.206  0.00  0.00    +0.003 A 
ATOM     22  C   UNL     1      17.703   6.925  21.188  0.00  0.00    +0.018 A 
ATOM     23  C   UNL     1      17.801   5.781  19.065  0.00  0.00    +0.011 A 
ATOM     24  C   UNL     1      16.320   7.123  21.038  0.00  0.00    -0.017 A 
ATOM     25  C   UNL     1      16.428   5.968  18.900  0.00  0.00    +0.009 A 
ATOM     26  C   UNL     1      15.673   6.636  19.877  0.00  0.00    -0.018 A 
ATOM     27  C   UNL     1      15.566   7.791  22.016  0.00  0.00    +0.008 A 
ATOM     28  C   UNL     1      14.291   6.834  19.728  0.00  0.00    +0.008 A 
ATOM     29  C   UNL     1      14.193   7.979  21.851  0.00  0.00    +0.001 A 
ATOM     30  C   UNL     1      13.557   7.500  20.709  0.00  0.00    +0.001 A 
ENDBRANCH  18  20
BRANCH  16   9
ATOM      4  N   UNL     1      24.894   3.977  22.525  0.00  0.00    -0.297 NA
ATOM      8  C   UNL     1      22.918   2.849  21.256  0.00  0.00    +0.002 C 
ATOM      9  C   UNL     1      23.096   4.320  20.788  0.00  0.00    +0.055 C 
ATOM     10  C   UNL     1      23.979   3.316  23.493  0.00  0.00    +0.072 C 
ATOM     11  C   UNL     1      22.700   2.823  22.784  0.00  0.00    +0.024 C 
ATOM     12  C   UNL     1      24.255   2.128  20.978  0.00  0.00    +0.019 C 
ATOM     13  C   UNL     1      24.149   4.980  21.725  0.00  0.00    +0.094 C 
ATOM     14  C   UNL     1      25.407   2.937  21.602  0.00  0.00    +0.085 C 
BRANCH  10  15
ATOM     15  C   UNL     1      23.656   4.209  24.693  0.00  0.00    +0.124 C 
BRANCH  15   6
ATOM      6  N   UNL     1      22.235   4.591  24.645  0.00  0.00    -0.193 NA
ATOM     31  H   UNL     1      21.629   3.991  25.220  0.00  0.00    +0.148 HD
BRANCH   6   1
ATOM      1  S   UNL     1      21.817   6.246  24.578  0.00  0.00    +0.027 S 
ATOM      2  O   UNL     1      20.561   6.406  23.870  0.00  0.00    -0.158 OA
ATOM      3  O   UNL     1      22.990   7.003  24.188  0.00  0.00    -0.158 OA
ATOM     21  C   UNL     1      21.520   6.576  26.300  0.00  0.00    +0.214 C 
ENDBRANCH   6   1
ENDBRANCH  15   6
ENDBRANCH  10  15
ENDBRANCH  16   9
TORSDOF 5
ENDMDL
MODEL 7
REMARK VINA RESULT:      -7.1      4.954      7.431
REMARK  Name = 40779473
REMARK  7 active torsions:
REMARK  status: ('A' for Active; 'I' for Inactive)
REMARK    1  A    between atoms: S_1  and  N_6
REMARK    2  A    between atoms: S_1  and  C_21
REMARK    3  A    between atoms: N_5  and  C_19
REMARK    4  A    between atoms: N_6  and  C_15
REMARK    5  A    between atoms: C_9  and  C_16
REMARK    6  A    between atoms: C_10  and  C_15
REMARK    7  A    between atoms: C_18  and  C_20
REMARK                            x       y       z     vdW  Elec       q    Type
REMARK                         _______ _______ _______ _____ _____    ______ ____
ROOT
ATOM      5  N   UNL     1      12.753  12.220  20.022  0.00  0.00    -0.270 N 
ATOM      7  N   UNL     1      13.605  12.854  19.197  0.00  0.00    -0.171 NA
ATOM     16  C   UNL     1      12.681  10.874  19.811  0.00  0.00    +0.044 A 
ATOM     17  C   UNL     1      13.545  10.610  18.777  0.00  0.00    +0.053 A 
ATOM     18  C   UNL     1      14.086  11.865  18.440  0.00  0.00    +0.093 A 
ATOM     19  C   UNL     1      12.024  12.985  21.006  0.00  0.00    +0.172 C 
ENDROOT
BRANCH  18  20
ATOM     20  C   UNL     1      15.052  12.136  17.408  0.00  0.00    +0.003 A 
ATOM     22  C   UNL     1      14.745  11.855  16.076  0.00  0.00    +0.018 A 
ATOM     23  C   UNL     1      16.290  12.678  17.737  0.00  0.00    +0.011 A 
ATOM     24  C   UNL     1      15.676  12.114  15.055  0.00  0.00    -0.017 A 
ATOM     25  C   UNL     1      17.226  12.942  16.737  0.00  0.00    +0.009 A 
ATOM     26  C   UNL     1      16.935  12.666  15.392  0.00  0.00    -0.018 A 
ATOM     27  C   UNL     1      15.384  11.837  13.710  0.00  0.00    +0.008 A 
ATOM     28  C   UNL     1      17.865  12.925  14.372  0.00  0.00    +0.008 A 
ATOM     29  C   UNL     1      16.320  12.101  12.710  0.00  0.00    +0.001 A 
ATOM     30  C   UNL     1      17.558  12.643  13.040  0.00  0.00    +0.001 A 
ENDBRANCH  18  20
BRANCH  16   9
ATOM      4  N   UNL     1      11.243   7.492  20.709  0.00  0.00    -0.297 NA
ATOM      8  C   UNL     1      12.281   9.489  22.021  0.00  0.00    +0.002 C 
ATOM      9  C   UNL     1      11.782   9.956  20.625  0.00  0.00    +0.055 C 
ATOM     10  C   UNL     1      12.577   7.111  21.242  0.00  0.00    +0.072 C 
ATOM     11  C   UNL     1      13.295   8.339  21.841  0.00  0.00    +0.024 C 
ATOM     12  C   UNL     1      11.058   8.902  22.758  0.00  0.00    +0.019 C 
ATOM     13  C   UNL     1      11.366   8.683  19.832  0.00  0.00    +0.094 C 
ATOM     14  C   UNL     1      10.380   7.852  21.859  0.00  0.00    +0.085 C 
BRANCH  10  15
ATOM     15  C   UNL     1      13.441   6.400  20.197  0.00  0.00    +0.124 C 
BRANCH  15   6
ATOM      6  N   UNL     1      14.774   6.144  20.765  0.00  0.00    -0.193 NA
ATOM     31  H   UNL     1      14.849   5.238  21.247  0.00  0.00    +0.148 HD
BRANCH   6   1
ATOM      1  S   UNL     1      16.160   6.659  19.909  0.00  0.00    +0.027 S 
ATOM      2  O   UNL     1      16.037   8.066  19.579  0.00  0.00    -0.158 OA
ATOM      3  O   UNL     1      16.458   5.680  18.881  0.00  0.00    -0.158 OA
ATOM     21  C   UNL     1      17.402   6.499  21.171  0.00  0.00    +0.214 C 
ENDBRANCH   6   1
ENDBRANCH  15   6
ENDBRANCH  10  15
ENDBRANCH  16   9
TORSDOF 5
ENDMDL
MODEL 8
REMARK VINA RESULT:      -7.0     27.143     30.021
REMARK  Name = 40779473
REMARK  7 active torsions:
REMARK  status: ('A' for Active; 'I' for Inactive)
REMARK    1  A    between atoms: S_1  and  N_6
REMARK    2  A    between atoms: S_1  and  C_21
REMARK    3  A    between atoms: N_5  and  C_19
REMARK    4  A    between atoms: N_6  and  C_15
REMARK    5  A    between atoms: C_9  and  C_16
REMARK    6  A    between atoms: C_10  and  C_15
REMARK    7  A    between atoms: C_18  and  C_20
REMARK                            x       y       z     vdW  Elec       q    Type
REMARK                         _______ _______ _______ _____ _____    ______ ____
ROOT
ATOM      5  N   UNL     1      -2.755 -10.694  14.888  0.00  0.00    -0.270 N 
ATOM      7  N   UNL     1      -2.681 -10.523  13.557  0.00  0.00    -0.171 NA
ATOM     16  C   UNL     1      -4.027 -10.658  15.378  0.00  0.00    +0.044 A 
ATOM     17  C   UNL     1      -4.841 -10.448  14.292  0.00  0.00    +0.053 A 
ATOM     18  C   UNL     1      -3.958 -10.374  13.199  0.00  0.00    +0.093 A 
ATOM     19  C   UNL     1      -1.539 -10.889  15.643  0.00  0.00    +0.172 C 
ENDROOT
BRANCH  18  20
ATOM     20  C   UNL     1      -4.312 -10.162  11.819  0.00  0.00    +0.003 A 
ATOM     22  C   UNL     1      -5.612 -10.426  11.386  0.00  0.00    +0.018 A 
ATOM     23  C   UNL     1      -3.359  -9.694  10.920  0.00  0.00    +0.011 A 
ATOM     24  C   UNL     1      -5.975 -10.223  10.043  0.00  0.00    -0.017 A 
ATOM     25  C   UNL     1      -3.702  -9.487   9.583  0.00  0.00    +0.009 A 
ATOM     26  C   UNL     1      -5.005  -9.747   9.129  0.00  0.00    -0.018 A 
ATOM     27  C   UNL     1      -7.277 -10.483   9.590  0.00  0.00    +0.008 A 
ATOM     28  C   UNL     1      -5.367  -9.545   7.788  0.00  0.00    +0.008 A 
ATOM     29  C   UNL     1      -7.621 -10.276   8.253  0.00  0.00    +0.001 A 
ATOM     30  C   UNL     1      -6.667  -9.809   7.354  0.00  0.00    +0.001 A 
ENDBRANCH  18  20
BRANCH  16   9
ATOM      4  N   UNL     1      -6.405 -10.756  18.320  0.00  0.00    -0.297 NA
ATOM      8  C   UNL     1      -4.488 -12.270  17.415  0.00  0.00    +0.002 C 
ATOM      9  C   UNL     1      -4.351 -10.827  16.855  0.00  0.00    +0.055 C 
ATOM     10  C   UNL     1      -6.969 -12.016  17.769  0.00  0.00    +0.072 C 
ATOM     11  C   UNL     1      -5.877 -12.831  17.045  0.00  0.00    +0.024 C 
ATOM     12  C   UNL     1      -4.441 -12.156  18.955  0.00  0.00    +0.019 C 
ATOM     13  C   UNL     1      -5.631 -10.045  17.272  0.00  0.00    +0.094 C 
ATOM     14  C   UNL     1      -5.476 -11.115  19.418  0.00  0.00    +0.085 C 
BRANCH  10  15
ATOM     15  C   UNL     1      -8.184 -11.768  16.873  0.00  0.00    +0.124 C 
BRANCH  15   6
ATOM      6  N   UNL     1      -9.179 -10.975  17.614  0.00  0.00    -0.193 NA
ATOM     31  H   UNL     1      -9.027 -10.973  18.630  0.00  0.00    +0.148 HD
BRANCH   6   1
ATOM      1  S   UNL     1      -9.761  -9.520  16.933  0.00  0.00    +0.027 S 
ATOM      2  O   UNL     1     -10.304  -9.779  15.614  0.00  0.00    -0.158 OA
ATOM      3  O   UNL     1      -8.766  -8.485  17.136  0.00  0.00    -0.158 OA
ATOM     21  C   UNL     1     -11.121  -9.172  18.026  0.00  0.00    +0.214 C 
ENDBRANCH   6   1
ENDBRANCH  15   6
ENDBRANCH  10  15
ENDBRANCH  16   9
TORSDOF 5
ENDMDL
MODEL 9
REMARK VINA RESULT:      -7.0     14.066     16.319
REMARK  Name = 40779473
REMARK  7 active torsions:
REMARK  status: ('A' for Active; 'I' for Inactive)
REMARK    1  A    between atoms: S_1  and  N_6
REMARK    2  A    between atoms: S_1  and  C_21
REMARK    3  A    between atoms: N_5  and  C_19
REMARK    4  A    between atoms: N_6  and  C_15
REMARK    5  A    between atoms: C_9  and  C_16
REMARK    6  A    between atoms: C_10  and  C_15
REMARK    7  A    between atoms: C_18  and  C_20
REMARK                            x       y       z     vdW  Elec       q    Type
REMARK                         _______ _______ _______ _____ _____    ______ ____
ROOT
ATOM      5  N   UNL     1      17.027  -8.307  26.227  0.00  0.00    -0.270 N 
ATOM      7  N   UNL     1      16.418  -8.192  27.419  0.00  0.00    -0.171 NA
ATOM     16  C   UNL     1      17.294  -7.112  25.626  0.00  0.00    +0.044 A 
ATOM     17  C   UNL     1      16.827  -6.148  26.487  0.00  0.00    +0.053 A 
ATOM     18  C   UNL     1      16.300  -6.871  27.573  0.00  0.00    +0.093 A 
ATOM     19  C   UNL     1      17.326  -9.623  25.712  0.00  0.00    +0.172 C 
ENDROOT
BRANCH  18  20
ATOM     20  C   UNL     1      15.684  -6.323  28.754  0.00  0.00    +0.003 A 
ATOM     22  C   UNL     1      14.415  -6.755  29.141  0.00  0.00    +0.018 A 
ATOM     23  C   UNL     1      16.353  -5.364  29.507  0.00  0.00    +0.011 A 
ATOM     24  C   UNL     1      13.799  -6.231  30.291  0.00  0.00    -0.017 A 
ATOM     25  C   UNL     1      15.757  -4.833  30.651  0.00  0.00    +0.009 A 
ATOM     26  C   UNL     1      14.481  -5.255  31.056  0.00  0.00    -0.018 A 
ATOM     27  C   UNL     1      12.523  -6.654  30.695  0.00  0.00    +0.008 A 
ATOM     28  C   UNL     1      13.866  -4.732  32.205  0.00  0.00    +0.008 A 
ATOM     29  C   UNL     1      11.927  -6.123  31.840  0.00  0.00    +0.001 A 
ATOM     30  C   UNL     1      12.597  -5.164  32.592  0.00  0.00    +0.001 A 
ENDBRANCH  18  20
BRANCH  16   9
ATOM      4  N   UNL     1      18.481  -5.179  22.599  0.00  0.00    -0.297 NA
ATOM      8  C   UNL     1      19.527  -6.914  24.235  0.00  0.00    +0.002 C 
ATOM      9  C   UNL     1      17.975  -6.999  24.271  0.00  0.00    +0.055 C 
ATOM     10  C   UNL     1      19.488  -4.515  23.468  0.00  0.00    +0.072 C 
ATOM     11  C   UNL     1      19.967  -5.475  24.578  0.00  0.00    +0.024 C 
ATOM     12  C   UNL     1      19.954  -7.183  22.776  0.00  0.00    +0.019 C 
ATOM     13  C   UNL     1      17.427  -5.809  23.432  0.00  0.00    +0.094 C 
ATOM     14  C   UNL     1      19.170  -6.247  21.838  0.00  0.00    +0.085 C 
BRANCH  10  15
ATOM     15  C   UNL     1      18.981  -3.190  24.041  0.00  0.00    +0.124 C 
BRANCH  15   6
ATOM      6  N   UNL     1      18.232  -2.467  22.999  0.00  0.00    -0.193 NA
ATOM     31  H   UNL     1      18.311  -2.893  22.066  0.00  0.00    +0.148 HD
BRANCH   6   1
ATOM      1  S   UNL     1      16.720  -1.774  23.387  0.00  0.00    +0.027 S 
ATOM      2  O   UNL     1      15.866  -2.772  24.001  0.00  0.00    -0.158 OA
ATOM      3  O   UNL     1      16.260  -1.003  22.248  0.00  0.00    -0.158 OA
ATOM     21  C   UNL     1      17.206  -0.618  24.649  0.00  0.00    +0.214 C 
ENDBRANCH   6   1
ENDBRANCH  15   6
ENDBRANCH  10  15
ENDBRANCH  16   9
TORSDOF 5
ENDMDL
MODEL 10
REMARK VINA RESULT:      -6.9     17.148     20.367
REMARK  Name = 40779473
REMARK  7 active torsions:
REMARK  status: ('A' for Active; 'I' for Inactive)
REMARK    1  A    between atoms: S_1  and  N_6
REMARK    2  A    between atoms: S_1  and  C_21
REMARK    3  A    between atoms: N_5  and  C_19
REMARK    4  A    between atoms: N_6  and  C_15
REMARK    5  A    between atoms: C_9  and  C_16
REMARK    6  A    between atoms: C_10  and  C_15
REMARK    7  A    between atoms: C_18  and  C_20
REMARK                            x       y       z     vdW  Elec       q    Type
REMARK                         _______ _______ _______ _____ _____    ______ ____
ROOT
ATOM      5  N   UNL     1      12.422   6.596   3.918  0.00  0.00    -0.270 N 
ATOM      7  N   UNL     1      12.720   6.265   2.650  0.00  0.00    -0.171 NA
ATOM     16  C   UNL     1      11.392   5.875   4.449  0.00  0.00    +0.044 A 
ATOM     17  C   UNL     1      10.990   5.013   3.458  0.00  0.00    +0.053 A 
ATOM     18  C   UNL     1      11.843   5.297   2.375  0.00  0.00    +0.093 A 
ATOM     19  C   UNL     1      13.180   7.637   4.573  0.00  0.00    +0.172 C 
ENDROOT
BRANCH  18  20
ATOM     20  C   UNL     1      11.833   4.663   1.083  0.00  0.00    +0.003 A 
ATOM     22  C   UNL     1      10.859   5.007   0.145  0.00  0.00    +0.018 A 
ATOM     23  C   UNL     1      12.794   3.707   0.770  0.00  0.00    +0.011 A 
ATOM     24  C   UNL     1      10.836   4.398  -1.121  0.00  0.00    -0.017 A 
ATOM     25  C   UNL     1      12.785   3.092  -0.483  0.00  0.00    +0.009 A 
ATOM     26  C   UNL     1      11.813   3.426  -1.439  0.00  0.00    -0.018 A 
ATOM     27  C   UNL     1       9.863   4.733  -2.077  0.00  0.00    +0.008 A 
ATOM     28  C   UNL     1      11.790   2.818  -2.704  0.00  0.00    +0.008 A 
ATOM     29  C   UNL     1       9.855   4.118  -3.329  0.00  0.00    +0.001 A 
ATOM     30  C   UNL     1      10.816   3.162  -3.642  0.00  0.00    +0.001 A 
ENDBRANCH  18  20
BRANCH  16   9
ATOM      4  N   UNL     1       9.602   7.844   7.137  0.00  0.00    -0.297 NA
ATOM      8  C   UNL     1       9.552   5.387   6.275  0.00  0.00    +0.002 C 
ATOM      9  C   UNL     1      10.882   6.079   5.867  0.00  0.00    +0.055 C 
ATOM     10  C   UNL     1       8.325   7.582   6.422  0.00  0.00    +0.072 C 
ATOM     11  C   UNL     1       8.363   6.204   5.728  0.00  0.00    +0.024 C 
ATOM     12  C   UNL     1       9.473   5.448   7.816  0.00  0.00    +0.019 C 
ATOM     13  C   UNL     1      10.751   7.586   6.235  0.00  0.00    +0.094 C 
ATOM     14  C   UNL     1       9.686   6.901   8.277  0.00  0.00    +0.085 C 
BRANCH  10  15
ATOM     15  C   UNL     1       7.964   8.703   5.444  0.00  0.00    +0.124 C 
BRANCH  15   6
ATOM      6  N   UNL     1       7.624   8.115   4.138  0.00  0.00    -0.193 NA
ATOM     31  H   UNL     1       6.627   7.886   4.037  0.00  0.00    +0.148 HD
BRANCH   6   1
ATOM      1  S   UNL     1       8.415   8.686   2.735  0.00  0.00    +0.027 S 
ATOM      2  O   UNL     1       7.509   9.517   1.966  0.00  0.00    -0.158 OA
ATOM      3  O   UNL     1       9.111   7.576   2.114  0.00  0.00    -0.158 OA
ATOM     21  C   UNL     1       9.645   9.745   3.462  0.00  0.00    +0.214 C 
ENDBRANCH   6   1
ENDBRANCH  15   6
ENDBRANCH  10  15
ENDBRANCH  16   9
TORSDOF 5
ENDMDL
