MODEL 1
REMARK VINA RESULT:      -6.0      0.000      0.000
REMARK  Name = 75536890
REMARK  5 active torsions:
REMARK  status: ('A' for Active; 'I' for Inactive)
REMARK    1  A    between atoms: S_1  and  C_20
REMARK    2  A    between atoms: S_1  and  C_23
REMARK    3  A    between atoms: O_4  and  C_14
REMARK    4  A    between atoms: O_4  and  C_17
REMARK    5  A    between atoms: C_8  and  C_11
REMARK                            x       y       z     vdW  Elec       q    Type
REMARK                         _______ _______ _______ _____ _____    ______ ____
ROOT
ATOM      2  O   UNL     1     -10.434   7.592  16.380  0.00  0.00    -0.275 OA
ATOM      3  O   UNL     1     -11.617  12.455  17.570  0.00  0.00    -0.375 OA
ATOM      7  N   UNL     1     -10.329   9.921  16.535  0.00  0.00    -0.295 N 
ATOM     11  C   UNL     1     -10.515   8.702  15.862  0.00  0.00    +0.219 C 
ATOM     12  C   UNL     1     -10.039   9.896  17.969  0.00  0.00    +0.154 C 
ATOM     13  C   UNL     1     -10.440  11.215  15.851  0.00  0.00    +0.136 C 
ATOM     14  C   UNL     1     -11.235  10.355  18.803  0.00  0.00    +0.216 C 
ATOM     15  C   UNL     1     -10.462  12.453  16.737  0.00  0.00    +0.179 C 
ATOM     16  C   UNL     1     -11.393  11.873  18.848  0.00  0.00    +0.206 C 
ENDROOT
BRANCH  11   8
ATOM      8  C   UNL     1     -10.858   8.770  14.406  0.00  0.00    +0.075 C 
ATOM      9  C   UNL     1     -11.867   7.812  13.871  0.00  0.00    +0.013 C 
ATOM     10  C   UNL     1     -10.418   7.655  13.521  0.00  0.00    +0.013 C 
ENDBRANCH  11   8
BRANCH  14   4
ATOM      4  O   UNL     1     -11.050   9.878  20.134  0.00  0.00    -0.485 OA
BRANCH   4  17
ATOM     17  C   UNL     1     -11.921   8.916  20.568  0.00  0.00    +0.121 A 
ATOM     18  C   UNL     1     -13.195   9.275  21.006  0.00  0.00    +0.047 A 
ATOM     19  C   UNL     1     -11.534   7.575  20.571  0.00  0.00    +0.047 A 
ATOM     20  C   UNL     1     -13.696   6.953  21.452  0.00  0.00    +0.088 A 
ATOM     21  C   UNL     1     -14.083   8.293  21.448  0.00  0.00    +0.030 A 
ATOM     22  C   UNL     1     -12.421   6.595  21.012  0.00  0.00    +0.030 A 
BRANCH  20   1
ATOM      1  S   UNL     1     -14.809   5.726  22.002  0.00  0.00    -0.006 S 
ATOM      5  O   UNL     1     -14.159   4.425  21.913  0.00  0.00    -0.170 OA
ATOM      6  O   UNL     1     -15.372   6.169  23.269  0.00  0.00    -0.170 OA
ATOM     23  C   UNL     1     -16.112   5.736  20.790  0.00  0.00    +0.200 C 
ENDBRANCH  20   1
ENDBRANCH   4  17
ENDBRANCH  14   4
TORSDOF 4
ENDMDL
MODEL 2
REMARK VINA RESULT:      -5.7     18.975     21.552
REMARK  Name = 75536890
REMARK  5 active torsions:
REMARK  status: ('A' for Active; 'I' for Inactive)
REMARK    1  A    between atoms: S_1  and  C_20
REMARK    2  A    between atoms: S_1  and  C_23
REMARK    3  A    between atoms: O_4  and  C_14
REMARK    4  A    between atoms: O_4  and  C_17
REMARK    5  A    between atoms: C_8  and  C_11
REMARK                            x       y       z     vdW  Elec       q    Type
REMARK                         _______ _______ _______ _____ _____    ______ ____
ROOT
ATOM      2  O   UNL     1      -8.479  -8.529  16.825  0.00  0.00    -0.275 OA
ATOM      3  O   UNL     1      -7.031 -13.083  18.730  0.00  0.00    -0.375 OA
ATOM      7  N   UNL     1      -8.188 -10.322  18.296  0.00  0.00    -0.295 N 
ATOM     11  C   UNL     1      -8.934  -9.483  17.450  0.00  0.00    +0.219 C 
ATOM     12  C   UNL     1      -6.752 -10.077  18.442  0.00  0.00    +0.154 C 
ATOM     13  C   UNL     1      -8.798 -11.446  19.014  0.00  0.00    +0.136 C 
ATOM     14  C   UNL     1      -5.915 -11.132  17.719  0.00  0.00    +0.216 C 
ATOM     15  C   UNL     1      -7.842 -12.417  19.693  0.00  0.00    +0.179 C 
ATOM     16  C   UNL     1      -5.785 -12.438  18.499  0.00  0.00    +0.206 C 
ENDROOT
BRANCH  11   8
ATOM      8  C   UNL     1     -10.389  -9.795  17.288  0.00  0.00    +0.075 C 
ATOM      9  C   UNL     1     -11.192  -8.959  16.351  0.00  0.00    +0.013 C 
ATOM     10  C   UNL     1     -11.386  -8.830  17.831  0.00  0.00    +0.013 C 
ENDBRANCH  11   8
BRANCH  14   4
ATOM      4  O   UNL     1      -4.610 -10.592  17.516  0.00  0.00    -0.485 OA
BRANCH   4  17
ATOM     17  C   UNL     1      -4.139 -10.595  16.231  0.00  0.00    +0.121 A 
ATOM     18  C   UNL     1      -5.032 -10.580  15.160  0.00  0.00    +0.047 A 
ATOM     19  C   UNL     1      -2.764 -10.611  15.993  0.00  0.00    +0.047 A 
ATOM     20  C   UNL     1      -3.177 -10.600  13.613  0.00  0.00    +0.088 A 
ATOM     21  C   UNL     1      -4.551 -10.583  13.851  0.00  0.00    +0.030 A 
ATOM     22  C   UNL     1      -2.284 -10.614  14.684  0.00  0.00    +0.030 A 
BRANCH  20   1
ATOM      1  S   UNL     1      -2.576 -10.599  11.973  0.00  0.00    -0.006 S 
ATOM      5  O   UNL     1      -1.357  -9.805  11.917  0.00  0.00    -0.170 OA
ATOM      6  O   UNL     1      -2.564 -11.977  11.501  0.00  0.00    -0.170 OA
ATOM     23  C   UNL     1      -3.813  -9.715  11.049  0.00  0.00    +0.200 C 
ENDBRANCH  20   1
ENDBRANCH   4  17
ENDBRANCH  14   4
TORSDOF 4
ENDMDL
MODEL 3
REMARK VINA RESULT:      -5.7     19.136     21.511
REMARK  Name = 75536890
REMARK  5 active torsions:
REMARK  status: ('A' for Active; 'I' for Inactive)
REMARK    1  A    between atoms: S_1  and  C_20
REMARK    2  A    between atoms: S_1  and  C_23
REMARK    3  A    between atoms: O_4  and  C_14
REMARK    4  A    between atoms: O_4  and  C_17
REMARK    5  A    between atoms: C_8  and  C_11
REMARK                            x       y       z     vdW  Elec       q    Type
REMARK                         _______ _______ _______ _____ _____    ______ ____
ROOT
ATOM      2  O   UNL     1      -7.832  -9.028  16.916  0.00  0.00    -0.275 OA
ATOM      3  O   UNL     1      -9.892 -12.981  19.485  0.00  0.00    -0.375 OA
ATOM      7  N   UNL     1      -9.026 -10.252  18.510  0.00  0.00    -0.295 N 
ATOM     11  C   UNL     1      -8.898  -9.386  17.410  0.00  0.00    +0.219 C 
ATOM     12  C   UNL     1      -7.814 -10.803  19.116  0.00  0.00    +0.154 C 
ATOM     13  C   UNL     1     -10.335 -10.637  19.050  0.00  0.00    +0.136 C 
ATOM     14  C   UNL     1      -7.633 -12.285  18.788  0.00  0.00    +0.216 C 
ATOM     15  C   UNL     1     -10.342 -11.765  20.073  0.00  0.00    +0.179 C 
ATOM     16  C   UNL     1      -8.497 -13.204  19.647  0.00  0.00    +0.206 C 
ENDROOT
BRANCH  11   8
ATOM      8  C   UNL     1     -10.162  -8.882  16.786  0.00  0.00    +0.075 C 
ATOM      9  C   UNL     1     -10.061  -7.832  15.732  0.00  0.00    +0.013 C 
ATOM     10  C   UNL     1     -10.596  -7.489  17.090  0.00  0.00    +0.013 C 
ENDBRANCH  11   8
BRANCH  14   4
ATOM      4  O   UNL     1      -6.263 -12.617  19.004  0.00  0.00    -0.485 OA
BRANCH   4  17
ATOM     17  C   UNL     1      -5.390 -12.305  17.997  0.00  0.00    +0.121 A 
ATOM     18  C   UNL     1      -4.370 -11.380  18.220  0.00  0.00    +0.047 A 
ATOM     19  C   UNL     1      -5.520 -12.912  16.748  0.00  0.00    +0.047 A 
ATOM     20  C   UNL     1      -3.611 -11.669  15.944  0.00  0.00    +0.088 A 
ATOM     21  C   UNL     1      -3.481 -11.061  17.193  0.00  0.00    +0.030 A 
ATOM     22  C   UNL     1      -4.630 -12.594  15.722  0.00  0.00    +0.030 A 
BRANCH  20   1
ATOM      1  S   UNL     1      -2.495 -11.272  14.661  0.00  0.00    -0.006 S 
ATOM      5  O   UNL     1      -1.819 -12.488  14.231  0.00  0.00    -0.170 OA
ATOM      6  O   UNL     1      -3.205 -10.455  13.687  0.00  0.00    -0.170 OA
ATOM     23  C   UNL     1      -1.268 -10.249  15.443  0.00  0.00    +0.200 C 
ENDBRANCH  20   1
ENDBRANCH   4  17
ENDBRANCH  14   4
TORSDOF 4
ENDMDL
MODEL 4
REMARK VINA RESULT:      -5.5      1.676      1.951
REMARK  Name = 75536890
REMARK  5 active torsions:
REMARK  status: ('A' for Active; 'I' for Inactive)
REMARK    1  A    between atoms: S_1  and  C_20
REMARK    2  A    between atoms: S_1  and  C_23
REMARK    3  A    between atoms: O_4  and  C_14
REMARK    4  A    between atoms: O_4  and  C_17
REMARK    5  A    between atoms: C_8  and  C_11
REMARK                            x       y       z     vdW  Elec       q    Type
REMARK                         _______ _______ _______ _____ _____    ______ ____
ROOT
ATOM      2  O   UNL     1     -12.145   8.105  14.804  0.00  0.00    -0.275 OA
ATOM      3  O   UNL     1     -10.605  11.564  18.286  0.00  0.00    -0.375 OA
ATOM      7  N   UNL     1     -10.911   9.787  15.858  0.00  0.00    -0.295 N 
ATOM     11  C   UNL     1     -11.783   9.276  14.881  0.00  0.00    +0.219 C 
ATOM     12  C   UNL     1     -10.399   8.881  16.887  0.00  0.00    +0.154 C 
ATOM     13  C   UNL     1     -10.519  11.201  15.890  0.00  0.00    +0.136 C 
ATOM     14  C   UNL     1     -11.044   9.140  18.249  0.00  0.00    +0.216 C 
ATOM     15  C   UNL     1      -9.776  11.671  17.133  0.00  0.00    +0.179 C 
ATOM     16  C   UNL     1     -10.445  10.336  18.984  0.00  0.00    +0.206 C 
ENDROOT
BRANCH  11   8
ATOM      8  C   UNL     1     -12.325  10.243  13.875  0.00  0.00    +0.075 C 
ATOM      9  C   UNL     1     -13.304   9.743  12.868  0.00  0.00    +0.013 C 
ATOM     10  C   UNL     1     -11.907  10.093  12.452  0.00  0.00    +0.013 C 
ENDBRANCH  11   8
BRANCH  14   4
ATOM      4  O   UNL     1     -10.858   7.974  19.050  0.00  0.00    -0.485 OA
BRANCH   4  17
ATOM     17  C   UNL     1     -11.959   7.503  19.713  0.00  0.00    +0.121 A 
ATOM     18  C   UNL     1     -13.238   7.838  19.268  0.00  0.00    +0.047 A 
ATOM     19  C   UNL     1     -11.802   6.688  20.834  0.00  0.00    +0.047 A 
ATOM     20  C   UNL     1     -14.202   6.543  21.064  0.00  0.00    +0.088 A 
ATOM     21  C   UNL     1     -14.359   7.359  19.944  0.00  0.00    +0.030 A 
ATOM     22  C   UNL     1     -12.924   6.207  21.509  0.00  0.00    +0.030 A 
BRANCH  20   1
ATOM      1  S   UNL     1     -15.608   5.940  21.907  0.00  0.00    -0.006 S 
ATOM      5  O   UNL     1     -16.426   7.068  22.329  0.00  0.00    -0.170 OA
ATOM      6  O   UNL     1     -16.196   4.883  21.097  0.00  0.00    -0.170 OA
ATOM     23  C   UNL     1     -14.952   5.196  23.384  0.00  0.00    +0.200 C 
ENDBRANCH  20   1
ENDBRANCH   4  17
ENDBRANCH  14   4
TORSDOF 4
ENDMDL
MODEL 5
REMARK VINA RESULT:      -5.5     19.228     20.882
REMARK  Name = 75536890
REMARK  5 active torsions:
REMARK  status: ('A' for Active; 'I' for Inactive)
REMARK    1  A    between atoms: S_1  and  C_20
REMARK    2  A    between atoms: S_1  and  C_23
REMARK    3  A    between atoms: O_4  and  C_14
REMARK    4  A    between atoms: O_4  and  C_17
REMARK    5  A    between atoms: C_8  and  C_11
REMARK                            x       y       z     vdW  Elec       q    Type
REMARK                         _______ _______ _______ _____ _____    ______ ____
ROOT
ATOM      2  O   UNL     1      -6.377 -10.996  13.963  0.00  0.00    -0.275 OA
ATOM      3  O   UNL     1      -1.429 -10.077  15.027  0.00  0.00    -0.375 OA
ATOM      7  N   UNL     1      -4.043 -11.086  13.889  0.00  0.00    -0.295 N 
ATOM     11  C   UNL     1      -5.316 -10.749  13.397  0.00  0.00    +0.219 C 
ATOM     12  C   UNL     1      -3.945 -11.763  15.183  0.00  0.00    +0.154 C 
ATOM     13  C   UNL     1      -2.813 -10.760  13.157  0.00  0.00    +0.136 C 
ATOM     14  C   UNL     1      -3.415 -10.834  16.275  0.00  0.00    +0.216 C 
ATOM     15  C   UNL     1      -1.504 -10.955  13.909  0.00  0.00    +0.179 C 
ATOM     16  C   UNL     1      -1.898 -10.660  16.236  0.00  0.00    +0.206 C 
ENDROOT
BRANCH  11   8
ATOM      8  C   UNL     1      -5.373 -10.015  12.094  0.00  0.00    +0.075 C 
ATOM      9  C   UNL     1      -6.323  -8.873  11.966  0.00  0.00    +0.013 C 
ATOM     10  C   UNL     1      -6.592 -10.162  11.250  0.00  0.00    +0.013 C 
ENDBRANCH  11   8
BRANCH  14   4
ATOM      4  O   UNL     1      -3.775 -11.392  17.537  0.00  0.00    -0.485 OA
BRANCH   4  17
ATOM     17  C   UNL     1      -5.101 -11.338  17.876  0.00  0.00    +0.121 A 
ATOM     18  C   UNL     1      -5.692 -12.406  18.550  0.00  0.00    +0.047 A 
ATOM     19  C   UNL     1      -5.859 -10.215  17.546  0.00  0.00    +0.047 A 
ATOM     20  C   UNL     1      -7.801 -11.228  18.565  0.00  0.00    +0.088 A 
ATOM     21  C   UNL     1      -7.042 -12.351  18.894  0.00  0.00    +0.030 A 
ATOM     22  C   UNL     1      -7.209 -10.160  17.891  0.00  0.00    +0.030 A 
BRANCH  20   1
ATOM      1  S   UNL     1      -9.491 -11.159  19.000  0.00  0.00    -0.006 S 
ATOM      5  O   UNL     1     -10.138 -12.392  18.576  0.00  0.00    -0.170 OA
ATOM      6  O   UNL     1      -9.577 -10.737  20.391  0.00  0.00    -0.170 OA
ATOM     23  C   UNL     1     -10.155  -9.853  17.991  0.00  0.00    +0.200 C 
ENDBRANCH  20   1
ENDBRANCH   4  17
ENDBRANCH  14   4
TORSDOF 4
ENDMDL
MODEL 6
REMARK VINA RESULT:      -5.4     23.869     25.800
REMARK  Name = 75536890
REMARK  5 active torsions:
REMARK  status: ('A' for Active; 'I' for Inactive)
REMARK    1  A    between atoms: S_1  and  C_20
REMARK    2  A    between atoms: S_1  and  C_23
REMARK    3  A    between atoms: O_4  and  C_14
REMARK    4  A    between atoms: O_4  and  C_17
REMARK    5  A    between atoms: C_8  and  C_11
REMARK                            x       y       z     vdW  Elec       q    Type
REMARK                         _______ _______ _______ _____ _____    ______ ____
ROOT
ATOM      2  O   UNL     1      14.937  11.308  24.347  0.00  0.00    -0.275 OA
ATOM      3  O   UNL     1      10.910  14.500  24.600  0.00  0.00    -0.375 OA
ATOM      7  N   UNL     1      13.360  12.822  25.175  0.00  0.00    -0.295 N 
ATOM     11  C   UNL     1      14.641  12.431  24.747  0.00  0.00    +0.219 C 
ATOM     12  C   UNL     1      12.274  11.843  25.129  0.00  0.00    +0.154 C 
ATOM     13  C   UNL     1      13.076  14.184  25.643  0.00  0.00    +0.136 C 
ATOM     14  C   UNL     1      11.285  12.139  24.001  0.00  0.00    +0.216 C 
ATOM     15  C   UNL     1      11.610  14.543  25.840  0.00  0.00    +0.179 C 
ATOM     16  C   UNL     1      10.291  13.246  24.344  0.00  0.00    +0.206 C 
ENDROOT
BRANCH  11   8
ATOM      8  C   UNL     1      15.715  13.474  24.763  0.00  0.00    +0.075 C 
ATOM      9  C   UNL     1      17.099  13.070  24.385  0.00  0.00    +0.013 C 
ATOM     10  C   UNL     1      16.769  13.389  25.812  0.00  0.00    +0.013 C 
ENDBRANCH  11   8
BRANCH  14   4
ATOM      4  O   UNL     1      10.556  10.943  23.732  0.00  0.00    -0.485 OA
BRANCH   4  17
ATOM     17  C   UNL     1      10.918  10.243  22.612  0.00  0.00    +0.121 A 
ATOM     18  C   UNL     1      11.622  10.879  21.590  0.00  0.00    +0.047 A 
ATOM     19  C   UNL     1      10.582   8.895  22.494  0.00  0.00    +0.047 A 
ATOM     20  C   UNL     1      11.653   8.818  20.330  0.00  0.00    +0.088 A 
ATOM     21  C   UNL     1      11.989  10.167  20.449  0.00  0.00    +0.030 A 
ATOM     22  C   UNL     1      10.950   8.182  21.353  0.00  0.00    +0.030 A 
BRANCH  20   1
ATOM      1  S   UNL     1      12.118   7.926  18.903  0.00  0.00    -0.006 S 
ATOM      5  O   UNL     1      12.273   6.521  19.253  0.00  0.00    -0.170 OA
ATOM      6  O   UNL     1      11.217   8.307  17.824  0.00  0.00    -0.170 OA
ATOM     23  C   UNL     1      13.739   8.542  18.504  0.00  0.00    +0.200 C 
ENDBRANCH  20   1
ENDBRANCH   4  17
ENDBRANCH  14   4
TORSDOF 4
ENDMDL
MODEL 7
REMARK VINA RESULT:      -5.4     24.535     28.059
REMARK  Name = 75536890
REMARK  5 active torsions:
REMARK  status: ('A' for Active; 'I' for Inactive)
REMARK    1  A    between atoms: S_1  and  C_20
REMARK    2  A    between atoms: S_1  and  C_23
REMARK    3  A    between atoms: O_4  and  C_14
REMARK    4  A    between atoms: O_4  and  C_17
REMARK    5  A    between atoms: C_8  and  C_11
REMARK                            x       y       z     vdW  Elec       q    Type
REMARK                         _______ _______ _______ _____ _____    ______ ____
ROOT
ATOM      2  O   UNL     1       9.517   4.559   6.176  0.00  0.00    -0.275 OA
ATOM      3  O   UNL     1       9.635   9.641   5.387  0.00  0.00    -0.375 OA
ATOM      7  N   UNL     1       8.948   6.825   6.251  0.00  0.00    -0.295 N 
ATOM     11  C   UNL     1       9.420   5.617   6.793  0.00  0.00    +0.219 C 
ATOM     12  C   UNL     1       8.558   6.860   4.841  0.00  0.00    +0.154 C 
ATOM     13  C   UNL     1       8.859   8.054   7.048  0.00  0.00    +0.136 C 
ATOM     14  C   UNL     1       9.574   7.616   3.985  0.00  0.00    +0.216 C 
ATOM     15  C   UNL     1       8.571   9.340   6.285  0.00  0.00    +0.179 C 
ATOM     16  C   UNL     1       9.430   9.133   4.075  0.00  0.00    +0.206 C 
ENDROOT
BRANCH  11   8
ATOM      8  C   UNL     1       9.856   5.633   8.225  0.00  0.00    +0.075 C 
ATOM      9  C   UNL     1       9.910   4.339   8.963  0.00  0.00    +0.013 C 
ATOM     10  C   UNL     1       8.842   5.343   9.277  0.00  0.00    +0.013 C 
ENDBRANCH  11   8
BRANCH  14   4
ATOM      4  O   UNL     1       9.382   7.222   2.628  0.00  0.00    -0.485 OA
BRANCH   4  17
ATOM     17  C   UNL     1      10.334   6.401   2.087  0.00  0.00    +0.121 A 
ATOM     18  C   UNL     1      11.473   6.074   2.823  0.00  0.00    +0.047 A 
ATOM     19  C   UNL     1      10.165   5.891   0.799  0.00  0.00    +0.047 A 
ATOM     20  C   UNL     1      12.275   4.728   0.984  0.00  0.00    +0.088 A 
ATOM     21  C   UNL     1      12.444   5.238   2.271  0.00  0.00    +0.030 A 
ATOM     22  C   UNL     1      11.135   5.054   0.248  0.00  0.00    +0.030 A 
BRANCH  20   1
ATOM      1  S   UNL     1      13.489   3.678   0.296  0.00  0.00    -0.006 S 
ATOM      5  O   UNL     1      14.259   3.076   1.376  0.00  0.00    -0.170 OA
ATOM      6  O   UNL     1      12.837   2.827  -0.690  0.00  0.00    -0.170 OA
ATOM     23  C   UNL     1      14.585   4.778  -0.571  0.00  0.00    +0.200 C 
ENDBRANCH  20   1
ENDBRANCH   4  17
ENDBRANCH  14   4
TORSDOF 4
ENDMDL
MODEL 8
REMARK VINA RESULT:      -5.4     18.233     20.100
REMARK  Name = 75536890
REMARK  5 active torsions:
REMARK  status: ('A' for Active; 'I' for Inactive)
REMARK    1  A    between atoms: S_1  and  C_20
REMARK    2  A    between atoms: S_1  and  C_23
REMARK    3  A    between atoms: O_4  and  C_14
REMARK    4  A    between atoms: O_4  and  C_17
REMARK    5  A    between atoms: C_8  and  C_11
REMARK                            x       y       z     vdW  Elec       q    Type
REMARK                         _______ _______ _______ _____ _____    ______ ____
ROOT
ATOM      2  O   UNL     1      -5.664 -10.398  11.921  0.00  0.00    -0.275 OA
ATOM      3  O   UNL     1      -2.307 -10.341  15.819  0.00  0.00    -0.375 OA
ATOM      7  N   UNL     1      -3.821 -10.913  13.263  0.00  0.00    -0.295 N 
ATOM     11  C   UNL     1      -4.454 -10.375  12.130  0.00  0.00    +0.219 C 
ATOM     12  C   UNL     1      -4.645 -11.534  14.301  0.00  0.00    +0.154 C 
ATOM     13  C   UNL     1      -2.367 -10.850  13.449  0.00  0.00    +0.136 C 
ATOM     14  C   UNL     1      -4.735 -10.666  15.556  0.00  0.00    +0.216 C 
ATOM     15  C   UNL     1      -1.839 -11.243  14.821  0.00  0.00    +0.179 C 
ATOM     16  C   UNL     1      -3.504 -10.771  16.453  0.00  0.00    +0.206 C 
ENDROOT
BRANCH  11   8
ATOM      8  C   UNL     1      -3.582  -9.704  11.114  0.00  0.00    +0.075 C 
ATOM      9  C   UNL     1      -4.220  -8.783  10.131  0.00  0.00    +0.013 C 
ATOM     10  C   UNL     1      -3.706 -10.119   9.689  0.00  0.00    +0.013 C 
ENDBRANCH  11   8
BRANCH  14   4
ATOM      4  O   UNL     1      -5.876 -11.089  16.300  0.00  0.00    -0.485 OA
BRANCH   4  17
ATOM     17  C   UNL     1      -6.992 -10.300  16.214  0.00  0.00    +0.121 A 
ATOM     18  C   UNL     1      -7.391  -9.535  17.310  0.00  0.00    +0.047 A 
ATOM     19  C   UNL     1      -7.729 -10.261  15.031  0.00  0.00    +0.047 A 
ATOM     20  C   UNL     1      -9.265  -8.693  16.039  0.00  0.00    +0.088 A 
ATOM     21  C   UNL     1      -8.528  -8.732  17.223  0.00  0.00    +0.030 A 
ATOM     22  C   UNL     1      -8.865  -9.457  14.943  0.00  0.00    +0.030 A 
BRANCH  20   1
ATOM      1  S   UNL     1     -10.685  -7.683  15.930  0.00  0.00    -0.006 S 
ATOM      5  O   UNL     1     -11.532  -7.932  17.089  0.00  0.00    -0.170 OA
ATOM      6  O   UNL     1     -10.248  -6.327  15.631  0.00  0.00    -0.170 OA
ATOM     23  C   UNL     1     -11.559  -8.302  14.509  0.00  0.00    +0.200 C 
ENDBRANCH  20   1
ENDBRANCH   4  17
ENDBRANCH  14   4
TORSDOF 4
ENDMDL
MODEL 9
REMARK VINA RESULT:      -5.4     25.568     27.367
REMARK  Name = 75536890
REMARK  5 active torsions:
REMARK  status: ('A' for Active; 'I' for Inactive)
REMARK    1  A    between atoms: S_1  and  C_20
REMARK    2  A    between atoms: S_1  and  C_23
REMARK    3  A    between atoms: O_4  and  C_14
REMARK    4  A    between atoms: O_4  and  C_17
REMARK    5  A    between atoms: C_8  and  C_11
REMARK                            x       y       z     vdW  Elec       q    Type
REMARK                         _______ _______ _______ _____ _____    ______ ____
ROOT
ATOM      2  O   UNL     1      17.487  10.304  21.683  0.00  0.00    -0.275 OA
ATOM      3  O   UNL     1      15.007   6.113  20.027  0.00  0.00    -0.375 OA
ATOM      7  N   UNL     1      16.944   8.398  20.445  0.00  0.00    -0.295 N 
ATOM     11  C   UNL     1      17.704   9.137  21.368  0.00  0.00    +0.219 C 
ATOM     12  C   UNL     1      15.788   9.035  19.814  0.00  0.00    +0.154 C 
ATOM     13  C   UNL     1      17.261   7.003  20.114  0.00  0.00    +0.136 C 
ATOM     14  C   UNL     1      14.467   8.494  20.361  0.00  0.00    +0.216 C 
ATOM     15  C   UNL     1      16.223   6.246  19.297  0.00  0.00    +0.179 C 
ATOM     16  C   UNL     1      14.070   7.148  19.758  0.00  0.00    +0.206 C 
ENDROOT
BRANCH  11   8
ATOM      8  C   UNL     1      18.849   8.435  22.029  0.00  0.00    +0.075 C 
ATOM      9  C   UNL     1      19.782   9.239  22.868  0.00  0.00    +0.013 C 
ATOM     10  C   UNL     1      20.228   8.713  21.538  0.00  0.00    +0.013 C 
ENDBRANCH  11   8
BRANCH  14   4
ATOM      4  O   UNL     1      13.446   9.443  20.060  0.00  0.00    -0.485 OA
BRANCH   4  17
ATOM     17  C   UNL     1      12.896  10.109  21.123  0.00  0.00    +0.121 A 
ATOM     18  C   UNL     1      13.627  11.100  21.779  0.00  0.00    +0.047 A 
ATOM     19  C   UNL     1      11.605   9.797  21.548  0.00  0.00    +0.047 A 
ATOM     20  C   UNL     1      11.775  11.465  23.287  0.00  0.00    +0.088 A 
ATOM     21  C   UNL     1      13.066  11.777  22.862  0.00  0.00    +0.030 A 
ATOM     22  C   UNL     1      11.045  10.475  22.630  0.00  0.00    +0.030 A 
BRANCH  20   1
ATOM      1  S   UNL     1      11.074  12.317  24.640  0.00  0.00    -0.006 S 
ATOM      5  O   UNL     1      10.045  13.222  24.146  0.00  0.00    -0.170 OA
ATOM      6  O   UNL     1      10.743  11.336  25.664  0.00  0.00    -0.170 OA
ATOM     23  C   UNL     1      12.398  13.330  25.260  0.00  0.00    +0.200 C 
ENDBRANCH  20   1
ENDBRANCH   4  17
ENDBRANCH  14   4
TORSDOF 4
ENDMDL
MODEL 10
REMARK VINA RESULT:      -5.4     28.827     30.319
REMARK  Name = 75536890
REMARK  5 active torsions:
REMARK  status: ('A' for Active; 'I' for Inactive)
REMARK    1  A    between atoms: S_1  and  C_20
REMARK    2  A    between atoms: S_1  and  C_23
REMARK    3  A    between atoms: O_4  and  C_14
REMARK    4  A    between atoms: O_4  and  C_17
REMARK    5  A    between atoms: C_8  and  C_11
REMARK                            x       y       z     vdW  Elec       q    Type
REMARK                         _______ _______ _______ _____ _____    ______ ____
ROOT
ATOM      2  O   UNL     1      10.734  -8.799  31.994  0.00  0.00    -0.275 OA
ATOM      3  O   UNL     1       8.329  -4.580  33.689  0.00  0.00    -0.375 OA
ATOM      7  N   UNL     1      10.178  -6.941  33.298  0.00  0.00    -0.295 N 
ATOM     11  C   UNL     1      10.980  -7.667  32.400  0.00  0.00    +0.219 C 
ATOM     12  C   UNL     1       8.938  -7.549  33.783  0.00  0.00    +0.154 C 
ATOM     13  C   UNL     1      10.533  -5.589  33.743  0.00  0.00    +0.136 C 
ATOM     14  C   UNL     1       7.702  -6.903  33.158  0.00  0.00    +0.216 C 
ATOM     15  C   UNL     1       9.465  -4.824  34.513  0.00  0.00    +0.179 C 
ATOM     16  C   UNL     1       7.320  -5.575  33.807  0.00  0.00    +0.206 C 
ENDROOT
BRANCH  11   8
ATOM      8  C   UNL     1      12.215  -6.992  31.888  0.00  0.00    +0.075 C 
ATOM      9  C   UNL     1      12.201  -6.450  30.500  0.00  0.00    +0.013 C 
ATOM     10  C   UNL     1      13.004  -7.673  30.824  0.00  0.00    +0.013 C 
ENDBRANCH  11   8
BRANCH  14   4
ATOM      4  O   UNL     1       6.611  -7.810  33.306  0.00  0.00    -0.485 OA
BRANCH   4  17
ATOM     17  C   UNL     1       6.643  -8.939  32.532  0.00  0.00    +0.121 A 
ATOM     18  C   UNL     1       6.787  -8.833  31.149  0.00  0.00    +0.047 A 
ATOM     19  C   UNL     1       6.531 -10.195  33.128  0.00  0.00    +0.047 A 
ATOM     20  C   UNL     1       6.707 -11.239  30.956  0.00  0.00    +0.088 A 
ATOM     21  C   UNL     1       6.819  -9.983  30.361  0.00  0.00    +0.030 A 
ATOM     22  C   UNL     1       6.564 -11.346  32.340  0.00  0.00    +0.030 A 
BRANCH  20   1
ATOM      1  S   UNL     1       6.751 -12.679  29.969  0.00  0.00    -0.006 S 
ATOM      5  O   UNL     1       5.388 -13.143  29.749  0.00  0.00    -0.170 OA
ATOM      6  O   UNL     1       7.618 -12.413  28.829  0.00  0.00    -0.170 OA
ATOM     23  C   UNL     1       7.552 -13.893  30.993  0.00  0.00    +0.200 C 
ENDBRANCH  20   1
ENDBRANCH   4  17
ENDBRANCH  14   4
TORSDOF 4
ENDMDL
