MODEL 1
REMARK VINA RESULT:      -6.1      0.000      0.000
REMARK  Name = 7662560
REMARK  11 active torsions:
REMARK  status: ('A' for Active; 'I' for Inactive)
REMARK    1  A    between atoms: O_4  and  C_29
REMARK    2  A    between atoms: O_4  and  C_35
REMARK    3  A    between atoms: N_7  and  C_11
REMARK    4  A    between atoms: N_9  and  C_25
REMARK    5  A    between atoms: N_10  and  C_32
REMARK    6  A    between atoms: N_10  and  C_33
REMARK    7  A    between atoms: N_10  and  C_34
REMARK    8  A    between atoms: C_17  and  C_22
REMARK    9  A    between atoms: C_23  and  C_24
REMARK   10  A    between atoms: C_25  and  C_28
REMARK   11  A    between atoms: C_25  and  C_29
REMARK                            x       y       z     vdW  Elec       q    Type
REMARK                         _______ _______ _______ _____ _____    ______ ____
ROOT
ATOM      1  O   UNL     1      -9.170 -11.622  14.418  0.00  0.00    -0.253 OA
ATOM      3  O   UNL     1      -3.772  -8.873  10.272  0.00  0.00    -0.270 OA
ATOM      6  N   UNL     1      -7.199 -10.740  13.554  0.00  0.00    -0.271 N 
ATOM      7  N   UNL     1      -7.532 -10.954  15.886  0.00  0.00    -0.296 N 
ATOM      8  N   UNL     1      -5.521 -10.063  11.267  0.00  0.00    -0.294 N 
ATOM     17  C   UNL     1      -5.933 -10.013  13.730  0.00  0.00    +0.181 C 
ATOM     18  C   UNL     1      -5.511  -9.241  12.479  0.00  0.00    +0.140 C 
ATOM     19  C   UNL     1      -7.673 -10.910  12.178  0.00  0.00    +0.129 C 
ATOM     20  C   UNL     1      -6.531 -11.126  11.193  0.00  0.00    +0.127 C 
ATOM     21  C   UNL     1      -8.048 -11.139  14.607  0.00  0.00    +0.303 C 
ATOM     23  C   UNL     1      -4.628  -9.758  10.234  0.00  0.00    +0.247 C 
ATOM     36  H   UNL     1      -6.568 -10.670  16.004  0.00  0.00    +0.151 HD
ENDROOT
BRANCH   7  11
ATOM     11  C   UNL     1      -8.274 -11.314  17.073  0.00  0.00    +0.074 C 
ATOM     12  C   UNL     1      -8.049 -10.295  18.195  0.00  0.00    +0.022 C 
ATOM     13  C   UNL     1      -7.921 -12.733  17.533  0.00  0.00    +0.022 C 
ATOM     14  C   UNL     1      -6.646 -10.386  18.796  0.00  0.00    +0.002 C 
ATOM     15  C   UNL     1      -6.519 -12.821  18.135  0.00  0.00    +0.002 C 
ATOM     16  C   UNL     1      -6.323 -11.804  19.256  0.00  0.00    +0.000 C 
ENDBRANCH   7  11
BRANCH  23  24
ATOM     24  C   UNL     1      -4.702 -10.550   8.997  0.00  0.00    +0.037 A 
ATOM     26  C   UNL     1      -5.261  -9.996   7.845  0.00  0.00    +0.015 A 
ATOM     27  C   UNL     1      -4.212 -11.857   8.975  0.00  0.00    +0.015 A 
ATOM     30  C   UNL     1      -5.330 -10.747   6.673  0.00  0.00    +0.024 A 
ATOM     31  C   UNL     1      -4.281 -12.608   7.801  0.00  0.00    +0.024 A 
ATOM     32  C   UNL     1      -4.841 -12.053   6.650  0.00  0.00    +0.029 A 
BRANCH  32  10
ATOM     10  N   UNL     1      -4.912 -12.813   5.464  0.00  0.00    -0.336 N 
ATOM     33  C   UNL     1      -5.260 -14.219   5.514  0.00  0.00    +0.129 C 
ATOM     34  C   UNL     1      -4.625 -12.202   4.182  0.00  0.00    +0.129 C 
ENDBRANCH  32  10
ENDBRANCH  23  24
BRANCH  17  22
ATOM      2  O   UNL     1      -5.146 -12.197  14.295  0.00  0.00    -0.274 OA
ATOM      9  N   UNL     1      -3.618 -10.445  14.176  0.00  0.00    -0.301 N 
ATOM     22  C   UNL     1      -4.876 -11.017  14.090  0.00  0.00    +0.236 C 
ATOM     37  H   UNL     1      -3.501  -9.471  13.911  0.00  0.00    +0.150 HD
BRANCH   9  25
ATOM     25  C   UNL     1      -2.433 -11.192  14.530  0.00  0.00    +0.179 C 
ATOM     28  C   UNL     1      -1.435 -10.293  15.243  0.00  0.00    +0.040 C 
BRANCH  25  29
ATOM      5  O   UNL     1      -1.794 -11.316  12.204  0.00  0.00    -0.249 OA
ATOM     29  C   UNL     1      -1.787 -11.839  13.314  0.00  0.00    +0.327 C 
BRANCH  29   4
ATOM      4  O   UNL     1      -1.209 -13.036  13.612  0.00  0.00    -0.467 OA
ATOM     35  C   UNL     1      -2.107 -14.085  13.990  0.00  0.00    +0.280 C 
ENDBRANCH  29   4
ENDBRANCH  25  29
ENDBRANCH   9  25
ENDBRANCH  17  22
TORSDOF 7
ENDMDL
MODEL 2
REMARK VINA RESULT:      -5.7      1.871      2.580
REMARK  Name = 7662560
REMARK  11 active torsions:
REMARK  status: ('A' for Active; 'I' for Inactive)
REMARK    1  A    between atoms: O_4  and  C_29
REMARK    2  A    between atoms: O_4  and  C_35
REMARK    3  A    between atoms: N_7  and  C_11
REMARK    4  A    between atoms: N_9  and  C_25
REMARK    5  A    between atoms: N_10  and  C_32
REMARK    6  A    between atoms: N_10  and  C_33
REMARK    7  A    between atoms: N_10  and  C_34
REMARK    8  A    between atoms: C_17  and  C_22
REMARK    9  A    between atoms: C_23  and  C_24
REMARK   10  A    between atoms: C_25  and  C_28
REMARK   11  A    between atoms: C_25  and  C_29
REMARK                            x       y       z     vdW  Elec       q    Type
REMARK                         _______ _______ _______ _____ _____    ______ ____
ROOT
ATOM      1  O   UNL     1     -10.592 -10.276  12.470  0.00  0.00    -0.253 OA
ATOM      3  O   UNL     1      -3.816  -9.120   9.894  0.00  0.00    -0.270 OA
ATOM      6  N   UNL     1      -8.322  -9.882  12.158  0.00  0.00    -0.271 N 
ATOM      7  N   UNL     1      -9.318  -9.706  14.296  0.00  0.00    -0.296 N 
ATOM      8  N   UNL     1      -5.978  -9.834  10.422  0.00  0.00    -0.294 N 
ATOM     17  C   UNL     1      -7.030  -9.370  12.640  0.00  0.00    +0.181 C 
ATOM     18  C   UNL     1      -6.130  -8.866  11.510  0.00  0.00    +0.140 C 
ATOM     19  C   UNL     1      -8.425 -10.157  10.722  0.00  0.00    +0.129 C 
ATOM     20  C   UNL     1      -7.127 -10.704  10.142  0.00  0.00    +0.127 C 
ATOM     21  C   UNL     1      -9.490  -9.975  12.942  0.00  0.00    +0.303 C 
ATOM     23  C   UNL     1      -4.793  -9.838   9.679  0.00  0.00    +0.247 C 
ATOM     36  H   UNL     1      -8.386  -9.581  14.670  0.00  0.00    +0.151 HD
ENDROOT
BRANCH   7  11
ATOM     11  C   UNL     1     -10.414  -9.762  15.236  0.00  0.00    +0.074 C 
ATOM     12  C   UNL     1     -11.130  -8.411  15.329  0.00  0.00    +0.022 C 
ATOM     13  C   UNL     1      -9.934 -10.232  16.614  0.00  0.00    +0.022 C 
ATOM     14  C   UNL     1     -10.296  -7.354  16.053  0.00  0.00    +0.002 C 
ATOM     15  C   UNL     1      -9.101  -9.173  17.336  0.00  0.00    +0.002 C 
ATOM     16  C   UNL     1      -9.840  -7.841  17.425  0.00  0.00    +0.000 C 
ENDBRANCH   7  11
BRANCH  23  24
ATOM     24  C   UNL     1      -4.688 -10.770   8.546  0.00  0.00    +0.037 A 
ATOM     26  C   UNL     1      -5.090 -10.367   7.271  0.00  0.00    +0.015 A 
ATOM     27  C   UNL     1      -4.186 -12.056   8.744  0.00  0.00    +0.015 A 
ATOM     30  C   UNL     1      -4.989 -11.252   6.197  0.00  0.00    +0.024 A 
ATOM     31  C   UNL     1      -4.086 -12.940   7.670  0.00  0.00    +0.024 A 
ATOM     32  C   UNL     1      -4.488 -12.538   6.396  0.00  0.00    +0.029 A 
BRANCH  32  10
ATOM     10  N   UNL     1      -4.388 -13.432   5.310  0.00  0.00    -0.336 N 
ATOM     33  C   UNL     1      -4.207 -12.931   3.962  0.00  0.00    +0.129 C 
ATOM     34  C   UNL     1      -4.479 -14.862   5.525  0.00  0.00    +0.129 C 
ENDBRANCH  32  10
ENDBRANCH  23  24
BRANCH  17  22
ATOM      2  O   UNL     1      -6.778 -11.632  13.367  0.00  0.00    -0.274 OA
ATOM      9  N   UNL     1      -5.222 -10.046  14.061  0.00  0.00    -0.301 N 
ATOM     22  C   UNL     1      -6.344 -10.482  13.379  0.00  0.00    +0.236 C 
ATOM     37  H   UNL     1      -4.914  -9.085  13.937  0.00  0.00    +0.150 HD
BRANCH   9  25
ATOM     25  C   UNL     1      -4.398 -10.916  14.868  0.00  0.00    +0.179 C 
ATOM     28  C   UNL     1      -4.390 -10.445  16.314  0.00  0.00    +0.040 C 
BRANCH  25  29
ATOM      5  O   UNL     1      -2.066 -11.537  14.964  0.00  0.00    -0.249 OA
ATOM     29  C   UNL     1      -2.977 -11.007  14.334  0.00  0.00    +0.327 C 
BRANCH  29   4
ATOM      4  O   UNL     1      -2.851 -10.448  13.098  0.00  0.00    -0.467 OA
ATOM     35  C   UNL     1      -2.208 -11.259  12.109  0.00  0.00    +0.280 C 
ENDBRANCH  29   4
ENDBRANCH  25  29
ENDBRANCH   9  25
ENDBRANCH  17  22
TORSDOF 7
ENDMDL
MODEL 3
REMARK VINA RESULT:      -5.6     24.544     27.691
REMARK  Name = 7662560
REMARK  11 active torsions:
REMARK  status: ('A' for Active; 'I' for Inactive)
REMARK    1  A    between atoms: O_4  and  C_29
REMARK    2  A    between atoms: O_4  and  C_35
REMARK    3  A    between atoms: N_7  and  C_11
REMARK    4  A    between atoms: N_9  and  C_25
REMARK    5  A    between atoms: N_10  and  C_32
REMARK    6  A    between atoms: N_10  and  C_33
REMARK    7  A    between atoms: N_10  and  C_34
REMARK    8  A    between atoms: C_17  and  C_22
REMARK    9  A    between atoms: C_23  and  C_24
REMARK   10  A    between atoms: C_25  and  C_28
REMARK   11  A    between atoms: C_25  and  C_29
REMARK                            x       y       z     vdW  Elec       q    Type
REMARK                         _______ _______ _______ _____ _____    ______ ____
ROOT
ATOM      1  O   UNL     1      15.360   7.128   3.405  0.00  0.00    -0.253 OA
ATOM      3  O   UNL     1       8.776  10.093   4.727  0.00  0.00    -0.270 OA
ATOM      6  N   UNL     1      13.100   7.648   3.571  0.00  0.00    -0.271 N 
ATOM      7  N   UNL     1      13.854   5.862   2.216  0.00  0.00    -0.296 N 
ATOM      8  N   UNL     1      10.948   9.228   4.746  0.00  0.00    -0.294 N 
ATOM     17  C   UNL     1      11.714   7.518   3.095  0.00  0.00    +0.181 C 
ATOM     18  C   UNL     1      10.874   8.768   3.358  0.00  0.00    +0.140 C 
ATOM     19  C   UNL     1      13.375   8.751   4.497  0.00  0.00    +0.129 C 
ATOM     20  C   UNL     1      12.216   9.009   5.452  0.00  0.00    +0.127 C 
ATOM     21  C   UNL     1      14.189   6.896   3.085  0.00  0.00    +0.303 C 
ATOM     23  C   UNL     1       9.850   9.898   5.297  0.00  0.00    +0.247 C 
ATOM     36  H   UNL     1      12.882   5.623   2.069  0.00  0.00    +0.151 HD
ENDROOT
BRANCH   7  11
ATOM     11  C   UNL     1      14.853   4.995   1.632  0.00  0.00    +0.074 C 
ATOM     12  C   UNL     1      15.176   5.416   0.195  0.00  0.00    +0.022 C 
ATOM     13  C   UNL     1      14.413   3.528   1.696  0.00  0.00    +0.022 C 
ATOM     14  C   UNL     1      14.039   5.100  -0.777  0.00  0.00    +0.002 C 
ATOM     15  C   UNL     1      13.277   3.215   0.722  0.00  0.00    +0.002 C 
ATOM     16  C   UNL     1      13.627   3.633  -0.703  0.00  0.00    +0.000 C 
ENDBRANCH   7  11
BRANCH  23  24
ATOM     24  C   UNL     1       9.970  10.414   6.669  0.00  0.00    +0.037 A 
ATOM     26  C   UNL     1       9.488   9.663   7.743  0.00  0.00    +0.015 A 
ATOM     27  C   UNL     1      10.567  11.654   6.899  0.00  0.00    +0.015 A 
ATOM     30  C   UNL     1       9.604  10.153   9.043  0.00  0.00    +0.024 A 
ATOM     31  C   UNL     1      10.682  12.143   8.200  0.00  0.00    +0.024 A 
ATOM     32  C   UNL     1      10.199  11.393   9.272  0.00  0.00    +0.029 A 
BRANCH  32  10
ATOM     10  N   UNL     1      10.314  11.889  10.588  0.00  0.00    -0.336 N 
ATOM     33  C   UNL     1       9.131  12.115  11.392  0.00  0.00    +0.129 C 
ATOM     34  C   UNL     1      11.617  12.191  11.147  0.00  0.00    +0.129 C 
ENDBRANCH  32  10
ENDBRANCH  23  24
BRANCH  17  22
ATOM      2  O   UNL     1      11.287   5.186   3.403  0.00  0.00    -0.274 OA
ATOM      9  N   UNL     1      10.315   6.712   4.868  0.00  0.00    -0.301 N 
ATOM     22  C   UNL     1      11.101   6.337   3.792  0.00  0.00    +0.236 C 
ATOM     37  H   UNL     1      10.294   7.691   5.144  0.00  0.00    +0.150 HD
BRANCH   9  25
ATOM     25  C   UNL     1       9.596   5.767   5.690  0.00  0.00    +0.179 C 
ATOM     28  C   UNL     1       8.134   6.170   5.804  0.00  0.00    +0.040 C 
BRANCH  25  29
ATOM      5  O   UNL     1      11.046   6.425   7.507  0.00  0.00    -0.249 OA
ATOM     29  C   UNL     1      10.216   5.632   7.073  0.00  0.00    +0.327 C 
BRANCH  29   4
ATOM      4  O   UNL     1       9.740   4.550   7.749  0.00  0.00    -0.467 OA
ATOM     35  C   UNL     1       9.428   4.765   9.130  0.00  0.00    +0.280 C 
ENDBRANCH  29   4
ENDBRANCH  25  29
ENDBRANCH   9  25
ENDBRANCH  17  22
TORSDOF 7
ENDMDL
MODEL 4
REMARK VINA RESULT:      -5.5     25.814     28.570
REMARK  Name = 7662560
REMARK  11 active torsions:
REMARK  status: ('A' for Active; 'I' for Inactive)
REMARK    1  A    between atoms: O_4  and  C_29
REMARK    2  A    between atoms: O_4  and  C_35
REMARK    3  A    between atoms: N_7  and  C_11
REMARK    4  A    between atoms: N_9  and  C_25
REMARK    5  A    between atoms: N_10  and  C_32
REMARK    6  A    between atoms: N_10  and  C_33
REMARK    7  A    between atoms: N_10  and  C_34
REMARK    8  A    between atoms: C_17  and  C_22
REMARK    9  A    between atoms: C_23  and  C_24
REMARK   10  A    between atoms: C_25  and  C_28
REMARK   11  A    between atoms: C_25  and  C_29
REMARK                            x       y       z     vdW  Elec       q    Type
REMARK                         _______ _______ _______ _____ _____    ______ ____
ROOT
ATOM      1  O   UNL     1      17.490   7.953   0.017  0.00  0.00    -0.253 OA
ATOM      3  O   UNL     1      12.333   2.876   1.247  0.00  0.00    -0.270 OA
ATOM      6  N   UNL     1      15.855   6.546   0.886  0.00  0.00    -0.271 N 
ATOM      7  N   UNL     1      17.097   7.997   2.281  0.00  0.00    -0.296 N 
ATOM      8  N   UNL     1      13.730   4.588   0.485  0.00  0.00    -0.294 N 
ATOM     17  C   UNL     1      15.198   5.894   2.029  0.00  0.00    +0.181 C 
ATOM     18  C   UNL     1      14.589   4.538   1.671  0.00  0.00    +0.140 C 
ATOM     19  C   UNL     1      15.546   6.010  -0.443  0.00  0.00    +0.129 C 
ATOM     20  C   UNL     1      14.099   5.550  -0.561  0.00  0.00    +0.127 C 
ATOM     21  C   UNL     1      16.861   7.529   0.993  0.00  0.00    +0.303 C 
ATOM     23  C   UNL     1      12.662   3.691   0.384  0.00  0.00    +0.247 C 
ATOM     36  H   UNL     1      16.486   7.719   3.038  0.00  0.00    +0.151 HD
ENDROOT
BRANCH   7  11
ATOM     11  C   UNL     1      18.093   9.007   2.562  0.00  0.00    +0.074 C 
ATOM     12  C   UNL     1      19.455   8.372   2.858  0.00  0.00    +0.022 C 
ATOM     13  C   UNL     1      17.643   9.919   3.709  0.00  0.00    +0.022 C 
ATOM     14  C   UNL     1      19.491   7.669   4.215  0.00  0.00    +0.002 C 
ATOM     15  C   UNL     1      17.681   9.214   5.065  0.00  0.00    +0.002 C 
ATOM     16  C   UNL     1      19.050   8.599   5.342  0.00  0.00    +0.000 C 
ENDBRANCH   7  11
BRANCH  23  24
ATOM     24  C   UNL     1      11.855   3.710  -0.846  0.00  0.00    +0.037 A 
ATOM     26  C   UNL     1      10.811   4.627  -0.981  0.00  0.00    +0.015 A 
ATOM     27  C   UNL     1      12.133   2.813  -1.877  0.00  0.00    +0.015 A 
ATOM     30  C   UNL     1      10.047   4.645  -2.148  0.00  0.00    +0.024 A 
ATOM     31  C   UNL     1      11.368   2.832  -3.043  0.00  0.00    +0.024 A 
ATOM     32  C   UNL     1      10.324   3.748  -3.178  0.00  0.00    +0.029 A 
BRANCH  32  10
ATOM     10  N   UNL     1       9.550   3.766  -4.357  0.00  0.00    -0.336 N 
ATOM     33  C   UNL     1       8.510   4.758  -4.536  0.00  0.00    +0.129 C 
ATOM     34  C   UNL     1       9.776   2.783  -5.399  0.00  0.00    +0.129 C 
ENDBRANCH  32  10
ENDBRANCH  23  24
BRANCH  17  22
ATOM      2  O   UNL     1      13.988   7.955   2.078  0.00  0.00    -0.274 OA
ATOM      9  N   UNL     1      13.362   6.246   3.530  0.00  0.00    -0.301 N 
ATOM     22  C   UNL     1      14.124   6.819   2.526  0.00  0.00    +0.236 C 
ATOM     37  H   UNL     1      13.518   5.271   3.769  0.00  0.00    +0.150 HD
BRANCH   9  25
ATOM     25  C   UNL     1      12.280   6.936   4.193  0.00  0.00    +0.179 C 
ATOM     28  C   UNL     1      12.800   7.698   5.402  0.00  0.00    +0.040 C 
BRANCH  25  29
ATOM      5  O   UNL     1      10.883   4.980   3.960  0.00  0.00    -0.249 OA
ATOM     29  C   UNL     1      11.169   5.983   4.607  0.00  0.00    +0.327 C 
BRANCH  29   4
ATOM      4  O   UNL     1      10.556   6.372   5.759  0.00  0.00    -0.467 OA
ATOM     35  C   UNL     1       9.859   5.345   6.473  0.00  0.00    +0.280 C 
ENDBRANCH  29   4
ENDBRANCH  25  29
ENDBRANCH   9  25
ENDBRANCH  17  22
TORSDOF 7
ENDMDL
MODEL 5
REMARK VINA RESULT:      -5.5      1.482      2.131
REMARK  Name = 7662560
REMARK  11 active torsions:
REMARK  status: ('A' for Active; 'I' for Inactive)
REMARK    1  A    between atoms: O_4  and  C_29
REMARK    2  A    between atoms: O_4  and  C_35
REMARK    3  A    between atoms: N_7  and  C_11
REMARK    4  A    between atoms: N_9  and  C_25
REMARK    5  A    between atoms: N_10  and  C_32
REMARK    6  A    between atoms: N_10  and  C_33
REMARK    7  A    between atoms: N_10  and  C_34
REMARK    8  A    between atoms: C_17  and  C_22
REMARK    9  A    between atoms: C_23  and  C_24
REMARK   10  A    between atoms: C_25  and  C_28
REMARK   11  A    between atoms: C_25  and  C_29
REMARK                            x       y       z     vdW  Elec       q    Type
REMARK                         _______ _______ _______ _____ _____    ______ ____
ROOT
ATOM      1  O   UNL     1      -9.494 -11.290  13.229  0.00  0.00    -0.253 OA
ATOM      3  O   UNL     1      -4.224  -8.469   8.969  0.00  0.00    -0.270 OA
ATOM      6  N   UNL     1      -7.539 -10.428  12.313  0.00  0.00    -0.271 N 
ATOM      7  N   UNL     1      -7.748 -10.794  14.640  0.00  0.00    -0.296 N 
ATOM      8  N   UNL     1      -5.964  -9.656   9.982  0.00  0.00    -0.294 N 
ATOM     17  C   UNL     1      -6.234  -9.766  12.462  0.00  0.00    +0.181 C 
ATOM     18  C   UNL     1      -5.850  -8.924  11.245  0.00  0.00    +0.140 C 
ATOM     19  C   UNL     1      -8.097 -10.480  10.958  0.00  0.00    +0.129 C 
ATOM     20  C   UNL     1      -7.022 -10.670   9.895  0.00  0.00    +0.127 C 
ATOM     21  C   UNL     1      -8.344 -10.866  13.385  0.00  0.00    +0.303 C 
ATOM     23  C   UNL     1      -5.118  -9.314   8.921  0.00  0.00    +0.247 C 
ATOM     36  H   UNL     1      -6.768 -10.557  14.719  0.00  0.00    +0.151 HD
ENDROOT
BRANCH   7  11
ATOM     11  C   UNL     1      -8.437 -11.208  15.842  0.00  0.00    +0.074 C 
ATOM     12  C   UNL     1      -8.855  -9.998  16.683  0.00  0.00    +0.022 C 
ATOM     13  C   UNL     1      -7.581 -12.183  16.658  0.00  0.00    +0.022 C 
ATOM     14  C   UNL     1      -7.666  -9.313  17.356  0.00  0.00    +0.002 C 
ATOM     15  C   UNL     1      -6.393 -11.496  17.331  0.00  0.00    +0.002 C 
ATOM     16  C   UNL     1      -6.836 -10.301  18.171  0.00  0.00    +0.000 C 
ENDBRANCH   7  11
BRANCH  23  24
ATOM     24  C   UNL     1      -5.297 -10.012   7.639  0.00  0.00    +0.037 A 
ATOM     26  C   UNL     1      -4.549 -11.157   7.358  0.00  0.00    +0.015 A 
ATOM     27  C   UNL     1      -6.214  -9.532   6.704  0.00  0.00    +0.015 A 
ATOM     30  C   UNL     1      -4.719 -11.819   6.142  0.00  0.00    +0.024 A 
ATOM     31  C   UNL     1      -6.383 -10.195   5.489  0.00  0.00    +0.024 A 
ATOM     32  C   UNL     1      -5.635 -11.338   5.207  0.00  0.00    +0.029 A 
BRANCH  32  10
ATOM     10  N   UNL     1      -5.806 -12.008   3.978  0.00  0.00    -0.336 N 
ATOM     33  C   UNL     1      -6.994 -11.784   3.179  0.00  0.00    +0.129 C 
ATOM     34  C   UNL     1      -4.802 -12.939   3.503  0.00  0.00    +0.129 C 
ENDBRANCH  32  10
ENDBRANCH  23  24
BRANCH  17  22
ATOM      2  O   UNL     1      -5.517 -11.997  12.928  0.00  0.00    -0.274 OA
ATOM      9  N   UNL     1      -3.912 -10.340  12.617  0.00  0.00    -0.301 N 
ATOM     22  C   UNL     1      -5.203 -10.834  12.689  0.00  0.00    +0.236 C 
ATOM     37  H   UNL     1      -3.770  -9.373  12.339  0.00  0.00    +0.150 HD
BRANCH   9  25
ATOM     25  C   UNL     1      -2.740 -11.159  12.821  0.00  0.00    +0.179 C 
ATOM     28  C   UNL     1      -2.769 -12.364  11.894  0.00  0.00    +0.040 C 
BRANCH  25  29
ATOM      5  O   UNL     1      -2.708 -12.784  14.608  0.00  0.00    -0.249 OA
ATOM     29  C   UNL     1      -2.606 -11.609  14.268  0.00  0.00    +0.327 C 
BRANCH  29   4
ATOM      4  O   UNL     1      -2.358 -10.568  15.112  0.00  0.00    -0.467 OA
ATOM     35  C   UNL     1      -1.080 -10.579  15.757  0.00  0.00    +0.280 C 
ENDBRANCH  29   4
ENDBRANCH  25  29
ENDBRANCH   9  25
ENDBRANCH  17  22
TORSDOF 7
ENDMDL
MODEL 6
REMARK VINA RESULT:      -5.4     24.230     26.360
REMARK  Name = 7662560
REMARK  11 active torsions:
REMARK  status: ('A' for Active; 'I' for Inactive)
REMARK    1  A    between atoms: O_4  and  C_29
REMARK    2  A    between atoms: O_4  and  C_35
REMARK    3  A    between atoms: N_7  and  C_11
REMARK    4  A    between atoms: N_9  and  C_25
REMARK    5  A    between atoms: N_10  and  C_32
REMARK    6  A    between atoms: N_10  and  C_33
REMARK    7  A    between atoms: N_10  and  C_34
REMARK    8  A    between atoms: C_17  and  C_22
REMARK    9  A    between atoms: C_23  and  C_24
REMARK   10  A    between atoms: C_25  and  C_28
REMARK   11  A    between atoms: C_25  and  C_29
REMARK                            x       y       z     vdW  Elec       q    Type
REMARK                         _______ _______ _______ _____ _____    ______ ____
ROOT
ATOM      1  O   UNL     1      12.568  10.612   6.795  0.00  0.00    -0.253 OA
ATOM      3  O   UNL     1       9.815   3.978   5.279  0.00  0.00    -0.270 OA
ATOM      6  N   UNL     1      11.313   8.661   6.633  0.00  0.00    -0.271 N 
ATOM      7  N   UNL     1      10.779  10.339   8.212  0.00  0.00    -0.296 N 
ATOM      8  N   UNL     1      10.742   6.124   5.312  0.00  0.00    -0.294 N 
ATOM     17  C   UNL     1      10.307   7.734   7.172  0.00  0.00    +0.181 C 
ATOM     18  C   UNL     1      10.551   6.282   6.756  0.00  0.00    +0.140 C 
ATOM     19  C   UNL     1      12.154   8.157   5.544  0.00  0.00    +0.129 C 
ATOM     20  C   UNL     1      11.392   7.233   4.603  0.00  0.00    +0.127 C 
ATOM     21  C   UNL     1      11.622   9.921   7.188  0.00  0.00    +0.303 C 
ATOM     23  C   UNL     1      10.361   4.922   4.707  0.00  0.00    +0.247 C 
ATOM     36  H   UNL     1       9.946   9.807   8.428  0.00  0.00    +0.151 HD
ENDROOT
BRANCH   7  11
ATOM     11  C   UNL     1      10.956  11.607   8.884  0.00  0.00    +0.074 C 
ATOM     12  C   UNL     1      10.483  11.532  10.339  0.00  0.00    +0.022 C 
ATOM     13  C   UNL     1      10.246  12.735   8.126  0.00  0.00    +0.022 C 
ATOM     14  C   UNL     1       8.960  11.451  10.456  0.00  0.00    +0.002 C 
ATOM     15  C   UNL     1       8.724  12.652   8.246  0.00  0.00    +0.002 C 
ATOM     16  C   UNL     1       8.277  12.589   9.704  0.00  0.00    +0.000 C 
ENDBRANCH   7  11
BRANCH  23  24
ATOM     24  C   UNL     1      10.627   4.755   3.269  0.00  0.00    +0.037 A 
ATOM     26  C   UNL     1       9.915   5.511   2.336  0.00  0.00    +0.015 A 
ATOM     27  C   UNL     1      11.590   3.842   2.839  0.00  0.00    +0.015 A 
ATOM     30  C   UNL     1      10.168   5.353   0.974  0.00  0.00    +0.024 A 
ATOM     31  C   UNL     1      11.841   3.685   1.476  0.00  0.00    +0.024 A 
ATOM     32  C   UNL     1      11.130   4.440   0.543  0.00  0.00    +0.029 A 
BRANCH  32  10
ATOM     10  N   UNL     1      11.384   4.280  -0.835  0.00  0.00    -0.336 N 
ATOM     33  C   UNL     1      10.634   5.043  -1.813  0.00  0.00    +0.129 C 
ATOM     34  C   UNL     1      12.389   3.341  -1.292  0.00  0.00    +0.129 C 
ENDBRANCH  32  10
ENDBRANCH  23  24
BRANCH  17  22
ATOM      2  O   UNL     1       7.918   7.703   7.117  0.00  0.00    -0.274 OA
ATOM      9  N   UNL     1       9.059   9.156   5.701  0.00  0.00    -0.301 N 
ATOM     22  C   UNL     1       8.961   8.185   6.682  0.00  0.00    +0.236 C 
ATOM     37  H   UNL     1       9.975   9.534   5.472  0.00  0.00    +0.150 HD
BRANCH   9  25
ATOM     25  C   UNL     1       7.910   9.741   5.049  0.00  0.00    +0.179 C 
ATOM     28  C   UNL     1       7.643   9.044   3.724  0.00  0.00    +0.040 C 
BRANCH  25  29
ATOM      5  O   UNL     1       9.138  11.738   4.470  0.00  0.00    -0.249 OA
ATOM     29  C   UNL     1       8.079  11.237   4.836  0.00  0.00    +0.327 C 
BRANCH  29   4
ATOM      4  O   UNL     1       6.933  11.929   5.089  0.00  0.00    -0.467 OA
ATOM     35  C   UNL     1       6.198  12.359   3.938  0.00  0.00    +0.280 C 
ENDBRANCH  29   4
ENDBRANCH  25  29
ENDBRANCH   9  25
ENDBRANCH  17  22
TORSDOF 7
ENDMDL
MODEL 7
REMARK VINA RESULT:      -5.4     21.774     24.998
REMARK  Name = 7662560
REMARK  11 active torsions:
REMARK  status: ('A' for Active; 'I' for Inactive)
REMARK    1  A    between atoms: O_4  and  C_29
REMARK    2  A    between atoms: O_4  and  C_35
REMARK    3  A    between atoms: N_7  and  C_11
REMARK    4  A    between atoms: N_9  and  C_25
REMARK    5  A    between atoms: N_10  and  C_32
REMARK    6  A    between atoms: N_10  and  C_33
REMARK    7  A    between atoms: N_10  and  C_34
REMARK    8  A    between atoms: C_17  and  C_22
REMARK    9  A    between atoms: C_23  and  C_24
REMARK   10  A    between atoms: C_25  and  C_28
REMARK   11  A    between atoms: C_25  and  C_29
REMARK                            x       y       z     vdW  Elec       q    Type
REMARK                         _______ _______ _______ _____ _____    ______ ____
ROOT
ATOM      1  O   UNL     1       4.818  -9.389  37.113  0.00  0.00    -0.253 OA
ATOM      3  O   UNL     1       7.120  -8.655  30.181  0.00  0.00    -0.270 OA
ATOM      6  N   UNL     1       5.780  -8.730  35.101  0.00  0.00    -0.271 N 
ATOM      7  N   UNL     1       5.817  -7.322  37.001  0.00  0.00    -0.296 N 
ATOM      8  N   UNL     1       6.530  -9.317  32.344  0.00  0.00    -0.294 N 
ATOM     17  C   UNL     1       6.354  -7.691  34.232  0.00  0.00    +0.181 C 
ATOM     18  C   UNL     1       6.128  -7.967  32.745  0.00  0.00    +0.140 C 
ATOM     19  C   UNL     1       5.407  -9.992  34.457  0.00  0.00    +0.129 C 
ATOM     20  C   UNL     1       6.370 -10.381  33.342  0.00  0.00    +0.127 C 
ATOM     21  C   UNL     1       5.427  -8.540  36.453  0.00  0.00    +0.303 C 
ATOM     23  C   UNL     1       6.976  -9.530  31.035  0.00  0.00    +0.247 C 
ATOM     36  H   UNL     1       6.416  -6.701  36.473  0.00  0.00    +0.151 HD
ENDROOT
BRANCH   7  11
ATOM     11  C   UNL     1       5.536  -6.973  38.376  0.00  0.00    +0.074 C 
ATOM     12  C   UNL     1       4.577  -5.781  38.457  0.00  0.00    +0.022 C 
ATOM     13  C   UNL     1       6.830  -6.698  39.150  0.00  0.00    +0.022 C 
ATOM     14  C   UNL     1       5.241  -4.466  38.045  0.00  0.00    +0.002 C 
ATOM     15  C   UNL     1       7.491  -5.383  38.737  0.00  0.00    +0.002 C 
ATOM     16  C   UNL     1       6.519  -4.210  38.836  0.00  0.00    +0.000 C 
ENDBRANCH   7  11
BRANCH  23  24
ATOM     24  C   UNL     1       7.308 -10.905  30.632  0.00  0.00    +0.037 A 
ATOM     26  C   UNL     1       6.312 -11.745  30.130  0.00  0.00    +0.015 A 
ATOM     27  C   UNL     1       8.618 -11.371  30.750  0.00  0.00    +0.015 A 
ATOM     30  C   UNL     1       6.628 -13.048  29.747  0.00  0.00    +0.024 A 
ATOM     31  C   UNL     1       8.932 -12.674  30.366  0.00  0.00    +0.024 A 
ATOM     32  C   UNL     1       7.937 -13.513  29.865  0.00  0.00    +0.029 A 
BRANCH  32  10
ATOM     10  N   UNL     1       8.255 -14.832  29.478  0.00  0.00    -0.336 N 
ATOM     33  C   UNL     1       9.461 -15.104  28.723  0.00  0.00    +0.129 C 
ATOM     34  C   UNL     1       7.372 -15.930  29.819  0.00  0.00    +0.129 C 
ENDBRANCH  32  10
ENDBRANCH  23  24
BRANCH  17  22
ATOM      2  O   UNL     1       8.332  -8.214  35.467  0.00  0.00    -0.274 OA
ATOM      9  N   UNL     1       8.496  -6.805  33.621  0.00  0.00    -0.301 N 
ATOM     22  C   UNL     1       7.826  -7.618  34.519  0.00  0.00    +0.236 C 
ATOM     37  H   UNL     1       7.986  -6.422  32.829  0.00  0.00    +0.150 HD
BRANCH   9  25
ATOM     25  C   UNL     1       9.916  -6.550  33.691  0.00  0.00    +0.179 C 
ATOM     28  C   UNL     1      10.184  -5.053  33.695  0.00  0.00    +0.040 C 
BRANCH  25  29
ATOM      5  O   UNL     1      10.296  -8.270  32.039  0.00  0.00    -0.249 OA
ATOM     29  C   UNL     1      10.670  -7.220  32.553  0.00  0.00    +0.327 C 
BRANCH  29   4
ATOM      4  O   UNL     1      11.778  -6.519  32.183  0.00  0.00    -0.467 OA
ATOM     35  C   UNL     1      12.134  -6.599  30.799  0.00  0.00    +0.280 C 
ENDBRANCH  29   4
ENDBRANCH  25  29
ENDBRANCH   9  25
ENDBRANCH  17  22
TORSDOF 7
ENDMDL
MODEL 8
REMARK VINA RESULT:      -5.1     23.875     27.225
REMARK  Name = 7662560
REMARK  11 active torsions:
REMARK  status: ('A' for Active; 'I' for Inactive)
REMARK    1  A    between atoms: O_4  and  C_29
REMARK    2  A    between atoms: O_4  and  C_35
REMARK    3  A    between atoms: N_7  and  C_11
REMARK    4  A    between atoms: N_9  and  C_25
REMARK    5  A    between atoms: N_10  and  C_32
REMARK    6  A    between atoms: N_10  and  C_33
REMARK    7  A    between atoms: N_10  and  C_34
REMARK    8  A    between atoms: C_17  and  C_22
REMARK    9  A    between atoms: C_23  and  C_24
REMARK   10  A    between atoms: C_25  and  C_28
REMARK   11  A    between atoms: C_25  and  C_29
REMARK                            x       y       z     vdW  Elec       q    Type
REMARK                         _______ _______ _______ _____ _____    ______ ____
ROOT
ATOM      1  O   UNL     1       9.934  -3.095  36.959  0.00  0.00    -0.253 OA
ATOM      3  O   UNL     1      11.402  -9.322  33.358  0.00  0.00    -0.270 OA
ATOM      6  N   UNL     1       9.889  -5.151  35.873  0.00  0.00    -0.271 N 
ATOM      7  N   UNL     1       8.002  -4.336  37.042  0.00  0.00    -0.296 N 
ATOM      8  N   UNL     1      11.176  -7.143  34.174  0.00  0.00    -0.294 N 
ATOM     17  C   UNL     1       9.258  -6.455  35.619  0.00  0.00    +0.181 C 
ATOM     18  C   UNL     1      10.267  -7.544  35.251  0.00  0.00    +0.140 C 
ATOM     19  C   UNL     1      11.273  -4.992  35.417  0.00  0.00    +0.129 C 
ATOM     20  C   UNL     1      11.539  -5.722  34.107  0.00  0.00    +0.127 C 
ATOM     21  C   UNL     1       9.318  -4.121  36.649  0.00  0.00    +0.303 C 
ATOM     23  C   UNL     1      11.692  -8.125  33.322  0.00  0.00    +0.247 C 
ATOM     36  H   UNL     1       7.489  -5.127  36.673  0.00  0.00    +0.151 HD
ENDROOT
BRANCH   7  11
ATOM     11  C   UNL     1       7.271  -3.376  37.838  0.00  0.00    +0.074 C 
ATOM     12  C   UNL     1       7.567  -3.556  39.330  0.00  0.00    +0.022 C 
ATOM     13  C   UNL     1       5.766  -3.460  37.556  0.00  0.00    +0.022 C 
ATOM     14  C   UNL     1       6.931  -4.822  39.905  0.00  0.00    +0.002 C 
ATOM     15  C   UNL     1       5.133  -4.726  38.133  0.00  0.00    +0.002 C 
ATOM     16  C   UNL     1       5.433  -4.877  39.622  0.00  0.00    +0.000 C 
ENDBRANCH   7  11
BRANCH  23  24
ATOM     24  C   UNL     1      12.658  -7.712  32.293  0.00  0.00    +0.037 A 
ATOM     26  C   UNL     1      12.208  -7.123  31.110  0.00  0.00    +0.015 A 
ATOM     27  C   UNL     1      14.024  -7.908  32.499  0.00  0.00    +0.015 A 
ATOM     30  C   UNL     1      13.125  -6.731  30.135  0.00  0.00    +0.024 A 
ATOM     31  C   UNL     1      14.939  -7.516  31.523  0.00  0.00    +0.024 A 
ATOM     32  C   UNL     1      14.490  -6.928  30.340  0.00  0.00    +0.029 A 
BRANCH  32  10
ATOM     10  N   UNL     1      15.417  -6.532  29.353  0.00  0.00    -0.336 N 
ATOM     33  C   UNL     1      15.447  -7.199  28.067  0.00  0.00    +0.129 C 
ATOM     34  C   UNL     1      16.359  -5.464  29.617  0.00  0.00    +0.129 C 
ENDBRANCH  32  10
ENDBRANCH  23  24
BRANCH  17  22
ATOM      2  O   UNL     1       8.003  -5.166  34.047  0.00  0.00    -0.274 OA
ATOM      9  N   UNL     1       7.717  -7.475  34.092  0.00  0.00    -0.301 N 
ATOM     22  C   UNL     1       8.272  -6.275  34.501  0.00  0.00    +0.236 C 
ATOM     37  H   UNL     1       8.071  -8.342  34.490  0.00  0.00    +0.150 HD
BRANCH   9  25
ATOM     25  C   UNL     1       6.725  -7.573  33.048  0.00  0.00    +0.179 C 
ATOM     28  C   UNL     1       5.534  -8.390  33.525  0.00  0.00    +0.040 C 
BRANCH  25  29
ATOM      5  O   UNL     1       6.745  -8.063  30.683  0.00  0.00    -0.249 OA
ATOM     29  C   UNL     1       7.299  -8.171  31.773  0.00  0.00    +0.327 C 
BRANCH  29   4
ATOM      4  O   UNL     1       8.479  -8.817  31.990  0.00  0.00    -0.467 OA
ATOM     35  C   UNL     1       8.531 -10.181  31.560  0.00  0.00    +0.280 C 
ENDBRANCH  29   4
ENDBRANCH  25  29
ENDBRANCH   9  25
ENDBRANCH  17  22
TORSDOF 7
ENDMDL
MODEL 9
REMARK VINA RESULT:      -5.1     26.805     30.230
REMARK  Name = 7662560
REMARK  11 active torsions:
REMARK  status: ('A' for Active; 'I' for Inactive)
REMARK    1  A    between atoms: O_4  and  C_29
REMARK    2  A    between atoms: O_4  and  C_35
REMARK    3  A    between atoms: N_7  and  C_11
REMARK    4  A    between atoms: N_9  and  C_25
REMARK    5  A    between atoms: N_10  and  C_32
REMARK    6  A    between atoms: N_10  and  C_33
REMARK    7  A    between atoms: N_10  and  C_34
REMARK    8  A    between atoms: C_17  and  C_22
REMARK    9  A    between atoms: C_23  and  C_24
REMARK   10  A    between atoms: C_25  and  C_28
REMARK   11  A    between atoms: C_25  and  C_29
REMARK                            x       y       z     vdW  Elec       q    Type
REMARK                         _______ _______ _______ _____ _____    ______ ____
ROOT
ATOM      1  O   UNL     1      20.978  -8.429  -0.783  0.00  0.00    -0.253 OA
ATOM      3  O   UNL     1      16.606  -2.798  -2.535  0.00  0.00    -0.270 OA
ATOM      6  N   UNL     1      20.035  -6.372  -1.320  0.00  0.00    -0.271 N 
ATOM      7  N   UNL     1      22.283  -6.545  -0.605  0.00  0.00    -0.296 N 
ATOM      8  N   UNL     1      17.787  -4.804  -2.318  0.00  0.00    -0.294 N 
ATOM     17  C   UNL     1      20.070  -4.902  -1.308  0.00  0.00    +0.181 C 
ATOM     18  C   UNL     1      18.676  -4.273  -1.282  0.00  0.00    +0.140 C 
ATOM     19  C   UNL     1      18.749  -6.996  -1.648  0.00  0.00    +0.129 C 
ATOM     20  C   UNL     1      17.974  -6.209  -2.697  0.00  0.00    +0.127 C 
ATOM     21  C   UNL     1      21.091  -7.203  -0.893  0.00  0.00    +0.303 C 
ATOM     23  C   UNL     1      16.783  -3.979  -2.836  0.00  0.00    +0.247 C 
ATOM     36  H   UNL     1      22.379  -5.561  -0.819  0.00  0.00    +0.151 HD
ENDROOT
BRANCH   7  11
ATOM     11  C   UNL     1      23.462  -7.252  -0.158  0.00  0.00    +0.074 C 
ATOM     12  C   UNL     1      23.597  -7.192   1.367  0.00  0.00    +0.022 C 
ATOM     13  C   UNL     1      24.720  -6.714  -0.849  0.00  0.00    +0.022 C 
ATOM     14  C   UNL     1      23.993  -5.802   1.865  0.00  0.00    +0.002 C 
ATOM     15  C   UNL     1      25.114  -5.325  -0.348  0.00  0.00    +0.002 C 
ATOM     16  C   UNL     1      25.253  -5.293   1.172  0.00  0.00    +0.000 C 
ENDBRANCH   7  11
BRANCH  23  24
ATOM     24  C   UNL     1      15.856  -4.552  -3.824  0.00  0.00    +0.037 A 
ATOM     26  C   UNL     1      16.154  -4.478  -5.186  0.00  0.00    +0.015 A 
ATOM     27  C   UNL     1      14.680  -5.172  -3.400  0.00  0.00    +0.015 A 
ATOM     30  C   UNL     1      15.275  -5.023  -6.122  0.00  0.00    +0.024 A 
ATOM     31  C   UNL     1      13.802  -5.716  -4.337  0.00  0.00    +0.024 A 
ATOM     32  C   UNL     1      14.099  -5.641  -5.698  0.00  0.00    +0.029 A 
BRANCH  32  10
ATOM     10  N   UNL     1      13.210  -6.191  -6.645  0.00  0.00    -0.336 N 
ATOM     33  C   UNL     1      13.108  -7.627  -6.809  0.00  0.00    +0.129 C 
ATOM     34  C   UNL     1      12.397  -5.326  -7.477  0.00  0.00    +0.129 C 
ENDBRANCH  32  10
ENDBRANCH  23  24
BRANCH  17  22
ATOM      2  O   UNL     1      21.069  -5.227  -3.455  0.00  0.00    -0.274 OA
ATOM      9  N   UNL     1      21.156  -3.114  -2.480  0.00  0.00    -0.301 N 
ATOM     22  C   UNL     1      20.808  -4.453  -2.537  0.00  0.00    +0.236 C 
ATOM     37  H   UNL     1      20.820  -2.552  -1.702  0.00  0.00    +0.150 HD
BRANCH   9  25
ATOM     25  C   UNL     1      21.891  -2.443  -3.526  0.00  0.00    +0.179 C 
ATOM     28  C   UNL     1      23.386  -2.649  -3.337  0.00  0.00    +0.040 C 
BRANCH  25  29
ATOM      5  O   UNL     1      20.462  -0.537  -3.920  0.00  0.00    -0.249 OA
ATOM     29  C   UNL     1      21.565  -0.959  -3.586  0.00  0.00    +0.327 C 
BRANCH  29   4
ATOM      4  O   UNL     1      22.624  -0.181  -3.225  0.00  0.00    -0.467 OA
ATOM     35  C   UNL     1      22.416   1.233  -3.307  0.00  0.00    +0.280 C 
ENDBRANCH  29   4
ENDBRANCH  25  29
ENDBRANCH   9  25
ENDBRANCH  17  22
TORSDOF 7
ENDMDL
MODEL 10
REMARK VINA RESULT:      -5.0     25.006     27.595
REMARK  Name = 7662560
REMARK  11 active torsions:
REMARK  status: ('A' for Active; 'I' for Inactive)
REMARK    1  A    between atoms: O_4  and  C_29
REMARK    2  A    between atoms: O_4  and  C_35
REMARK    3  A    between atoms: N_7  and  C_11
REMARK    4  A    between atoms: N_9  and  C_25
REMARK    5  A    between atoms: N_10  and  C_32
REMARK    6  A    between atoms: N_10  and  C_33
REMARK    7  A    between atoms: N_10  and  C_34
REMARK    8  A    between atoms: C_17  and  C_22
REMARK    9  A    between atoms: C_23  and  C_24
REMARK   10  A    between atoms: C_25  and  C_28
REMARK   11  A    between atoms: C_25  and  C_29
REMARK                            x       y       z     vdW  Elec       q    Type
REMARK                         _______ _______ _______ _____ _____    ______ ____
ROOT
ATOM      1  O   UNL     1       7.339 -10.978  34.413  0.00  0.00    -0.253 OA
ATOM      3  O   UNL     1       9.270  -3.961  33.458  0.00  0.00    -0.270 OA
ATOM      6  N   UNL     1       7.567  -8.664  34.449  0.00  0.00    -0.271 N 
ATOM      7  N   UNL     1       5.735  -9.736  35.492  0.00  0.00    -0.296 N 
ATOM      8  N   UNL     1       9.100  -6.264  33.819  0.00  0.00    -0.294 N 
ATOM     17  C   UNL     1       7.014  -7.323  34.694  0.00  0.00    +0.181 C 
ATOM     18  C   UNL     1       7.635  -6.250  33.799  0.00  0.00    +0.140 C 
ATOM     19  C   UNL     1       8.815  -8.730  33.683  0.00  0.00    +0.129 C 
ATOM     20  C   UNL     1       9.749  -7.568  33.996  0.00  0.00    +0.127 C 
ATOM     21  C   UNL     1       6.909  -9.873  34.759  0.00  0.00    +0.303 C 
ATOM     23  C   UNL     1       9.791  -5.066  33.608  0.00  0.00    +0.247 C 
ATOM     36  H   UNL     1       5.475  -8.830  35.862  0.00  0.00    +0.151 HD
ENDROOT
BRANCH   7  11
ATOM     11  C   UNL     1       4.943 -10.876  35.895  0.00  0.00    +0.074 C 
ATOM     12  C   UNL     1       3.652 -10.969  35.075  0.00  0.00    +0.022 C 
ATOM     13  C   UNL     1       4.644 -10.836  37.398  0.00  0.00    +0.022 C 
ATOM     14  C   UNL     1       2.644  -9.881  35.445  0.00  0.00    +0.002 C 
ATOM     15  C   UNL     1       3.635  -9.748  37.765  0.00  0.00    +0.002 C 
ATOM     16  C   UNL     1       2.355  -9.868  36.943  0.00  0.00    +0.000 C 
ENDBRANCH   7  11
BRANCH  23  24
ATOM     24  C   UNL     1      11.261  -5.113  33.561  0.00  0.00    +0.037 A 
ATOM     26  C   UNL     1      11.924  -5.003  32.338  0.00  0.00    +0.015 A 
ATOM     27  C   UNL     1      11.992  -5.267  34.739  0.00  0.00    +0.015 A 
ATOM     30  C   UNL     1      13.317  -5.047  32.295  0.00  0.00    +0.024 A 
ATOM     31  C   UNL     1      13.385  -5.311  34.695  0.00  0.00    +0.024 A 
ATOM     32  C   UNL     1      14.048  -5.202  33.472  0.00  0.00    +0.029 A 
BRANCH  32  10
ATOM     10  N   UNL     1      15.457  -5.248  33.428  0.00  0.00    -0.336 N 
ATOM     33  C   UNL     1      16.169  -6.413  33.913  0.00  0.00    +0.129 C 
ATOM     34  C   UNL     1      16.212  -4.124  32.909  0.00  0.00    +0.129 C 
ENDBRANCH  32  10
ENDBRANCH  23  24
BRANCH  17  22
ATOM      2  O   UNL     1       7.704  -7.812  36.929  0.00  0.00    -0.274 OA
ATOM      9  N   UNL     1       6.896  -5.684  36.439  0.00  0.00    -0.301 N 
ATOM     22  C   UNL     1       7.256  -6.986  36.137  0.00  0.00    +0.236 C 
ATOM     37  H   UNL     1       6.606  -5.067  35.685  0.00  0.00    +0.150 HD
BRANCH   9  25
ATOM     25  C   UNL     1       7.009  -5.119  37.763  0.00  0.00    +0.179 C 
ATOM     28  C   UNL     1       5.629  -4.874  38.352  0.00  0.00    +0.040 C 
BRANCH  25  29
ATOM      5  O   UNL     1       7.340  -2.748  38.076  0.00  0.00    -0.249 OA
ATOM     29  C   UNL     1       7.821  -3.833  37.764  0.00  0.00    +0.327 C 
BRANCH  29   4
ATOM      4  O   UNL     1       9.115  -4.038  37.393  0.00  0.00    -0.467 OA
ATOM     35  C   UNL     1       9.930  -2.865  37.298  0.00  0.00    +0.280 C 
ENDBRANCH  29   4
ENDBRANCH  25  29
ENDBRANCH   9  25
ENDBRANCH  17  22
TORSDOF 7
ENDMDL
