MODEL 1
REMARK VINA RESULT:      -7.2      0.000      0.000
REMARK  Name = 23843913
REMARK  13 active torsions:
REMARK  status: ('A' for Active; 'I' for Inactive)
REMARK    1  A    between atoms: O_4  and  C_18
REMARK    2  A    between atoms: O_4  and  C_28
REMARK    3  A    between atoms: O_5  and  C_19
REMARK    4  A    between atoms: O_6  and  C_24
REMARK    5  A    between atoms: O_9  and  C_32
REMARK    6  A    between atoms: N_11  and  C_33
REMARK    7  A    between atoms: C_12  and  C_22
REMARK    8  A    between atoms: C_14  and  C_24
REMARK    9  A    between atoms: C_14  and  C_25
REMARK   10  A    between atoms: C_15  and  C_23
REMARK   11  A    between atoms: C_23  and  C_26
REMARK   12  A    between atoms: C_27  and  C_32
REMARK   13  A    between atoms: C_36  and  C_39
REMARK                            x       y       z     vdW  Elec       q    Type
REMARK                         _______ _______ _______ _____ _____    ______ ____
ROOT
ATOM     12  C   UNL     1     -15.319   5.917  22.526  0.00  0.00    -0.023 C 
ATOM     13  C   UNL     1     -16.438   4.950  21.995  0.00  0.00    +0.007 C 
ATOM     14  C   UNL     1     -17.262   4.175  23.102  0.00  0.00    +0.031 C 
ATOM     15  C   UNL     1     -14.493   6.450  21.282  0.00  0.00    +0.032 C 
ATOM     16  C   UNL     1     -14.353   5.118  23.463  0.00  0.00    +0.011 C 
ATOM     17  C   UNL     1     -17.321   5.625  20.923  0.00  0.00    +0.007 C 
ATOM     18  C   UNL     1     -16.369   3.822  24.336  0.00  0.00    +0.186 C 
ATOM     19  C   UNL     1     -15.367   7.053  20.156  0.00  0.00    +0.119 C 
ATOM     20  C   UNL     1     -14.890   3.777  23.974  0.00  0.00    +0.046 C 
ATOM     21  C   UNL     1     -16.488   6.108  19.738  0.00  0.00    +0.032 C 
ATOM     22  C   UNL     1     -15.903   7.104  23.329  0.00  0.00    +0.012 C 
ATOM     25  C   UNL     1     -17.719   2.824  22.479  0.00  0.00    +0.017 C 
ENDROOT
BRANCH  19   5
ATOM      5  O   UNL     1     -15.946   8.299  20.528  0.00  0.00    -0.391 OA
ATOM     40  H   UNL     1     -16.910   8.224  20.418  0.00  0.00    +0.210 HD
ENDBRANCH  19   5
BRANCH  18   4
ATOM      4  O   UNL     1     -16.521   4.734  25.422  0.00  0.00    -0.446 OA
BRANCH   4  28
ATOM      8  O   UNL     1     -17.942   4.265  27.152  0.00  0.00    -0.226 OA
ATOM     11  N   UNL     1     -15.713   3.550  27.143  0.00  0.00    -0.251 N 
ATOM     28  C   UNL     1     -16.833   4.182  26.638  0.00  0.00    +0.405 C 
ATOM     42  H   UNL     1     -14.877   3.589  26.565  0.00  0.00    +0.158 HD
BRANCH  11  33
ATOM     33  C   UNL     1     -15.584   2.851  28.365  0.00  0.00    +0.037 A 
ATOM     34  C   UNL     1     -14.852   3.408  29.413  0.00  0.00    +0.035 A 
ATOM     35  C   UNL     1     -16.190   1.604  28.522  0.00  0.00    +0.023 A 
ATOM     36  C   UNL     1     -14.726   2.719  30.619  0.00  0.00    +0.057 A 
ATOM     37  C   UNL     1     -16.063   0.915  29.728  0.00  0.00    +0.002 A 
ATOM     38  C   UNL     1     -15.331   1.473  30.777  0.00  0.00    +0.012 A 
BRANCH  36  39
ATOM      1  F   UNL     1     -12.642   3.577  31.421  0.00  0.00    -0.166 F 
ATOM      2  F   UNL     1     -14.447   4.502  32.189  0.00  0.00    -0.166 F 
ATOM      3  F   UNL     1     -13.894   2.501  32.836  0.00  0.00    -0.166 F 
ATOM     39  C   UNL     1     -13.943   3.314  31.741  0.00  0.00    +0.417 C 
ENDBRANCH  36  39
ENDBRANCH  11  33
ENDBRANCH   4  28
ENDBRANCH  18   4
BRANCH  15  23
ATOM     23  C   UNL     1     -13.353   7.414  21.647  0.00  0.00    +0.102 C 
BRANCH  23  26
ATOM      7  O   UNL     1     -11.935   6.660  19.891  0.00  0.00    -0.276 OA
ATOM     10  N   UNL     1     -12.285   8.941  20.057  0.00  0.00    -0.296 N 
ATOM     26  C   UNL     1     -12.459   7.624  20.450  0.00  0.00    +0.216 C 
ATOM     27  C   UNL     1     -11.530   9.314  18.859  0.00  0.00    +0.101 C 
ATOM     29  C   UNL     1     -12.886  10.113  20.690  0.00  0.00    +0.108 C 
ATOM     30  C   UNL     1     -11.968  10.755  18.587  0.00  0.00    +0.026 C 
ATOM     31  C   UNL     1     -12.264  11.303  19.978  0.00  0.00    +0.021 C 
BRANCH  27  32
ATOM     32  C   UNL     1     -10.024   9.204  19.093  0.00  0.00    +0.178 C 
BRANCH  32   9
ATOM      9  O   UNL     1      -9.371   9.257  17.838  0.00  0.00    -0.393 OA
ATOM     43  H   UNL     1      -9.934   9.781  17.242  0.00  0.00    +0.209 HD
ENDBRANCH  32   9
ENDBRANCH  27  32
ENDBRANCH  23  26
ENDBRANCH  15  23
BRANCH  14  24
ATOM     24  C   UNL     1     -18.552   4.906  23.529  0.00  0.00    +0.166 C 
BRANCH  24   6
ATOM      6  O   UNL     1     -19.297   4.031  24.347  0.00  0.00    -0.394 OA
ATOM     41  H   UNL     1     -19.931   4.571  24.847  0.00  0.00    +0.209 HD
ENDBRANCH  24   6
ENDBRANCH  14  24
TORSDOF 11
ENDMDL
MODEL 2
REMARK VINA RESULT:      -7.1     29.808     34.437
REMARK  Name = 23843913
REMARK  13 active torsions:
REMARK  status: ('A' for Active; 'I' for Inactive)
REMARK    1  A    between atoms: O_4  and  C_18
REMARK    2  A    between atoms: O_4  and  C_28
REMARK    3  A    between atoms: O_5  and  C_19
REMARK    4  A    between atoms: O_6  and  C_24
REMARK    5  A    between atoms: O_9  and  C_32
REMARK    6  A    between atoms: N_11  and  C_33
REMARK    7  A    between atoms: C_12  and  C_22
REMARK    8  A    between atoms: C_14  and  C_24
REMARK    9  A    between atoms: C_14  and  C_25
REMARK   10  A    between atoms: C_15  and  C_23
REMARK   11  A    between atoms: C_23  and  C_26
REMARK   12  A    between atoms: C_27  and  C_32
REMARK   13  A    between atoms: C_36  and  C_39
REMARK                            x       y       z     vdW  Elec       q    Type
REMARK                         _______ _______ _______ _____ _____    ______ ____
ROOT
ATOM     12  C   UNL     1      11.125   5.070  -0.342  0.00  0.00    -0.023 C 
ATOM     13  C   UNL     1      12.663   4.745  -0.378  0.00  0.00    +0.007 C 
ATOM     14  C   UNL     1      13.406   4.773   1.019  0.00  0.00    +0.031 C 
ATOM     15  C   UNL     1      10.606   5.175  -1.836  0.00  0.00    +0.032 C 
ATOM     16  C   UNL     1      10.908   6.450   0.362  0.00  0.00    +0.011 C 
ATOM     17  C   UNL     1      12.966   3.486  -1.219  0.00  0.00    +0.007 C 
ATOM     18  C   UNL     1      12.803   5.862   1.965  0.00  0.00    +0.186 C 
ATOM     19  C   UNL     1      10.975   3.959  -2.720  0.00  0.00    +0.119 C 
ATOM     20  C   UNL     1      12.094   6.963   1.186  0.00  0.00    +0.046 C 
ATOM     21  C   UNL     1      12.463   3.637  -2.652  0.00  0.00    +0.032 C 
ATOM     22  C   UNL     1      10.320   3.998   0.431  0.00  0.00    +0.012 C 
ATOM     25  C   UNL     1      14.884   5.182   0.749  0.00  0.00    +0.017 C 
ENDROOT
BRANCH  19   5
ATOM      5  O   UNL     1      10.246   2.789  -2.364  0.00  0.00    -0.391 OA
ATOM     40  H   UNL     1      10.778   2.017  -2.622  0.00  0.00    +0.210 HD
ENDBRANCH  19   5
BRANCH  18   4
ATOM      4  O   UNL     1      11.878   5.336   2.912  0.00  0.00    -0.446 OA
BRANCH   4  28
ATOM      8  O   UNL     1      12.530   6.882   4.466  0.00  0.00    -0.226 OA
ATOM     11  N   UNL     1      10.527   5.688   4.664  0.00  0.00    -0.251 N 
ATOM     28  C   UNL     1      11.718   6.055   4.069  0.00  0.00    +0.405 C 
ATOM     42  H   UNL     1       9.982   4.979   4.178  0.00  0.00    +0.158 HD
BRANCH  11  33
ATOM     33  C   UNL     1       9.967   6.176   5.867  0.00  0.00    +0.037 A 
ATOM     34  C   UNL     1       9.950   5.371   7.006  0.00  0.00    +0.035 A 
ATOM     35  C   UNL     1       9.432   7.463   5.914  0.00  0.00    +0.023 A 
ATOM     36  C   UNL     1       9.398   5.854   8.193  0.00  0.00    +0.057 A 
ATOM     37  C   UNL     1       8.881   7.946   7.101  0.00  0.00    +0.002 A 
ATOM     38  C   UNL     1       8.864   7.141   8.240  0.00  0.00    +0.012 A 
BRANCH  36  39
ATOM      1  F   UNL     1      10.462   5.174  10.225  0.00  0.00    -0.166 F 
ATOM      2  F   UNL     1       8.293   5.202  10.212  0.00  0.00    -0.166 F 
ATOM      3  F   UNL     1       9.364   3.661   9.113  0.00  0.00    -0.166 F 
ATOM     39  C   UNL     1       9.380   4.994   9.411  0.00  0.00    +0.417 C 
ENDBRANCH  36  39
ENDBRANCH  11  33
ENDBRANCH   4  28
ENDBRANCH  18   4
BRANCH  15  23
ATOM     23  C   UNL     1       9.106   5.491  -1.963  0.00  0.00    +0.102 C 
BRANCH  23  26
ATOM      7  O   UNL     1       9.231   7.831  -2.381  0.00  0.00    -0.276 OA
ATOM     10  N   UNL     1       8.371   6.502  -4.069  0.00  0.00    -0.296 N 
ATOM     26  C   UNL     1       8.915   6.722  -2.814  0.00  0.00    +0.216 C 
ATOM     27  C   UNL     1       8.208   7.571  -5.056  0.00  0.00    +0.101 C 
ATOM     29  C   UNL     1       7.981   5.207  -4.621  0.00  0.00    +0.108 C 
ATOM     30  C   UNL     1       8.007   6.820  -6.376  0.00  0.00    +0.026 C 
ATOM     31  C   UNL     1       7.311   5.533  -5.947  0.00  0.00    +0.021 C 
BRANCH  27  32
ATOM     32  C   UNL     1       7.019   8.468  -4.718  0.00  0.00    +0.178 C 
BRANCH  32   9
ATOM      9  O   UNL     1       7.450   9.458  -3.802  0.00  0.00    -0.393 OA
ATOM     43  H   UNL     1       8.371   9.251  -3.568  0.00  0.00    +0.209 HD
ENDBRANCH  32   9
ENDBRANCH  27  32
ENDBRANCH  23  26
ENDBRANCH  15  23
BRANCH  14  24
ATOM     24  C   UNL     1      13.464   3.394   1.708  0.00  0.00    +0.166 C 
BRANCH  24   6
ATOM      6  O   UNL     1      14.801   3.154   2.088  0.00  0.00    -0.394 OA
ATOM     41  H   UNL     1      14.957   3.636   2.917  0.00  0.00    +0.209 HD
ENDBRANCH  24   6
ENDBRANCH  14  24
TORSDOF 11
ENDMDL
MODEL 3
REMARK VINA RESULT:      -6.7     28.377     32.550
REMARK  Name = 23843913
REMARK  13 active torsions:
REMARK  status: ('A' for Active; 'I' for Inactive)
REMARK    1  A    between atoms: O_4  and  C_18
REMARK    2  A    between atoms: O_4  and  C_28
REMARK    3  A    between atoms: O_5  and  C_19
REMARK    4  A    between atoms: O_6  and  C_24
REMARK    5  A    between atoms: O_9  and  C_32
REMARK    6  A    between atoms: N_11  and  C_33
REMARK    7  A    between atoms: C_12  and  C_22
REMARK    8  A    between atoms: C_14  and  C_24
REMARK    9  A    between atoms: C_14  and  C_25
REMARK   10  A    between atoms: C_15  and  C_23
REMARK   11  A    between atoms: C_23  and  C_26
REMARK   12  A    between atoms: C_27  and  C_32
REMARK   13  A    between atoms: C_36  and  C_39
REMARK                            x       y       z     vdW  Elec       q    Type
REMARK                         _______ _______ _______ _____ _____    ______ ____
ROOT
ATOM     12  C   UNL     1      11.384   7.075   4.481  0.00  0.00    -0.023 C 
ATOM     13  C   UNL     1      10.859   6.125   5.617  0.00  0.00    +0.007 C 
ATOM     14  C   UNL     1      10.346   6.840   6.932  0.00  0.00    +0.031 C 
ATOM     15  C   UNL     1      12.018   6.179   3.338  0.00  0.00    +0.032 C 
ATOM     16  C   UNL     1      12.499   8.006   5.064  0.00  0.00    +0.011 C 
ATOM     17  C   UNL     1       9.887   5.056   5.070  0.00  0.00    +0.007 C 
ATOM     18  C   UNL     1      11.170   8.132   7.238  0.00  0.00    +0.186 C 
ATOM     19  C   UNL     1      11.091   5.046   2.836  0.00  0.00    +0.119 C 
ATOM     20  C   UNL     1      12.550   8.093   6.593  0.00  0.00    +0.046 C 
ATOM     21  C   UNL     1      10.544   4.207   3.985  0.00  0.00    +0.032 C 
ATOM     22  C   UNL     1      10.261   7.968   3.900  0.00  0.00    +0.012 C 
ATOM     25  C   UNL     1      10.591   5.861   8.118  0.00  0.00    +0.017 C 
ENDROOT
BRANCH  19   5
ATOM      5  O   UNL     1       9.992   5.541   2.079  0.00  0.00    -0.391 OA
ATOM     40  H   UNL     1       9.547   6.223   2.610  0.00  0.00    +0.210 HD
ENDBRANCH  19   5
BRANCH  18   4
ATOM      4  O   UNL     1      10.524   9.328   6.808  0.00  0.00    -0.446 OA
BRANCH   4  28
ATOM      8  O   UNL     1      11.672  11.047   7.787  0.00  0.00    -0.226 OA
ATOM     11  N   UNL     1       9.416  10.633   8.253  0.00  0.00    -0.251 N 
ATOM     28  C   UNL     1      10.635  10.411   7.642  0.00  0.00    +0.405 C 
ATOM     42  H   UNL     1       8.666   9.993   8.002  0.00  0.00    +0.158 HD
BRANCH  11  33
ATOM     33  C   UNL     1       9.079  11.641   9.184  0.00  0.00    +0.037 A 
ATOM     34  C   UNL     1       9.523  11.550  10.503  0.00  0.00    +0.035 A 
ATOM     35  C   UNL     1       8.302  12.728   8.783  0.00  0.00    +0.023 A 
ATOM     36  C   UNL     1       9.190  12.546  11.421  0.00  0.00    +0.057 A 
ATOM     37  C   UNL     1       7.970  13.724   9.701  0.00  0.00    +0.002 A 
ATOM     38  C   UNL     1       8.414  13.633  11.021  0.00  0.00    +0.012 A 
BRANCH  36  39
ATOM      1  F   UNL     1      10.277  13.583  13.283  0.00  0.00    -0.166 F 
ATOM      2  F   UNL     1       8.666  12.202  13.730  0.00  0.00    -0.166 F 
ATOM      3  F   UNL     1      10.575  11.446  13.012  0.00  0.00    -0.166 F 
ATOM     39  C   UNL     1       9.665  12.449  12.832  0.00  0.00    +0.417 C 
ENDBRANCH  36  39
ENDBRANCH  11  33
ENDBRANCH   4  28
ENDBRANCH  18   4
BRANCH  15  23
ATOM     23  C   UNL     1      12.580   6.976   2.148  0.00  0.00    +0.102 C 
BRANCH  23  26
ATOM      7  O   UNL     1      14.921   6.921   2.573  0.00  0.00    -0.276 OA
ATOM     10  N   UNL     1      14.147   5.697   0.768  0.00  0.00    -0.296 N 
ATOM     26  C   UNL     1      13.993   6.534   1.861  0.00  0.00    +0.216 C 
ATOM     27  C   UNL     1      15.435   5.100   0.407  0.00  0.00    +0.101 C 
ATOM     29  C   UNL     1      13.078   5.216  -0.103  0.00  0.00    +0.108 C 
ATOM     30  C   UNL     1      15.054   3.954  -0.535  0.00  0.00    +0.026 C 
ATOM     31  C   UNL     1      13.790   4.465  -1.218  0.00  0.00    +0.021 C 
BRANCH  27  32
ATOM     32  C   UNL     1      16.353   6.117  -0.266  0.00  0.00    +0.178 C 
BRANCH  32   9
ATOM      9  O   UNL     1      17.289   6.579   0.690  0.00  0.00    -0.393 OA
ATOM     43  H   UNL     1      17.871   5.831   0.908  0.00  0.00    +0.209 HD
ENDBRANCH  32   9
ENDBRANCH  27  32
ENDBRANCH  23  26
ENDBRANCH  15  23
BRANCH  14  24
ATOM     24  C   UNL     1       8.829   7.125   6.921  0.00  0.00    +0.166 C 
BRANCH  24   6
ATOM      6  O   UNL     1       8.488   7.704   8.161  0.00  0.00    -0.394 OA
ATOM     41  H   UNL     1       8.793   8.627   8.144  0.00  0.00    +0.209 HD
ENDBRANCH  24   6
ENDBRANCH  14  24
TORSDOF 11
ENDMDL
MODEL 4
REMARK VINA RESULT:      -6.6     29.802     35.378
REMARK  Name = 23843913
REMARK  13 active torsions:
REMARK  status: ('A' for Active; 'I' for Inactive)
REMARK    1  A    between atoms: O_4  and  C_18
REMARK    2  A    between atoms: O_4  and  C_28
REMARK    3  A    between atoms: O_5  and  C_19
REMARK    4  A    between atoms: O_6  and  C_24
REMARK    5  A    between atoms: O_9  and  C_32
REMARK    6  A    between atoms: N_11  and  C_33
REMARK    7  A    between atoms: C_12  and  C_22
REMARK    8  A    between atoms: C_14  and  C_24
REMARK    9  A    between atoms: C_14  and  C_25
REMARK   10  A    between atoms: C_15  and  C_23
REMARK   11  A    between atoms: C_23  and  C_26
REMARK   12  A    between atoms: C_27  and  C_32
REMARK   13  A    between atoms: C_36  and  C_39
REMARK                            x       y       z     vdW  Elec       q    Type
REMARK                         _______ _______ _______ _____ _____    ______ ____
ROOT
ATOM     12  C   UNL     1      13.788   5.616   0.784  0.00  0.00    -0.023 C 
ATOM     13  C   UNL     1      14.529   6.998   0.682  0.00  0.00    +0.007 C 
ATOM     14  C   UNL     1      14.480   7.904   1.979  0.00  0.00    +0.031 C 
ATOM     15  C   UNL     1      13.790   4.945  -0.652  0.00  0.00    +0.032 C 
ATOM     16  C   UNL     1      12.306   5.859   1.222  0.00  0.00    +0.011 C 
ATOM     17  C   UNL     1      15.943   6.850   0.080  0.00  0.00    +0.007 C 
ATOM     18  C   UNL     1      13.126   7.736   2.742  0.00  0.00    +0.186 C 
ATOM     19  C   UNL     1      15.188   4.866  -1.310  0.00  0.00    +0.119 C 
ATOM     20  C   UNL     1      12.015   7.236   1.827  0.00  0.00    +0.046 C 
ATOM     21  C   UNL     1      15.896   6.215  -1.307  0.00  0.00    +0.032 C 
ATOM     22  C   UNL     1      14.451   4.672   1.817  0.00  0.00    +0.012 C 
ATOM     25  C   UNL     1      14.548   9.387   1.511  0.00  0.00    +0.017 C 
ENDROOT
BRANCH  19   5
ATOM      5  O   UNL     1      16.034   3.915  -0.673  0.00  0.00    -0.391 OA
ATOM     40  H   UNL     1      15.925   3.064  -1.131  0.00  0.00    +0.210 HD
ENDBRANCH  19   5
BRANCH  18   4
ATOM      4  O   UNL     1      13.211   6.842   3.849  0.00  0.00    -0.446 OA
BRANCH   4  28
ATOM      8  O   UNL     1      13.210   8.086   5.769  0.00  0.00    -0.226 OA
ATOM     11  N   UNL     1      11.434   6.669   5.203  0.00  0.00    -0.251 N 
ATOM     28  C   UNL     1      12.661   7.280   5.027  0.00  0.00    +0.405 C 
ATOM     42  H   UNL     1      11.145   6.024   4.471  0.00  0.00    +0.158 HD
BRANCH  11  33
ATOM     33  C   UNL     1      10.527   6.829   6.275  0.00  0.00    +0.037 A 
ATOM     34  C   UNL     1      10.441   5.853   7.268  0.00  0.00    +0.035 A 
ATOM     35  C   UNL     1       9.719   7.965   6.340  0.00  0.00    +0.023 A 
ATOM     36  C   UNL     1       9.546   6.013   8.326  0.00  0.00    +0.057 A 
ATOM     37  C   UNL     1       8.824   8.124   7.398  0.00  0.00    +0.002 A 
ATOM     38  C   UNL     1       8.738   7.148   8.391  0.00  0.00    +0.012 A 
BRANCH  36  39
ATOM      1  F   UNL     1      10.493   4.995  10.272  0.00  0.00    -0.166 F 
ATOM      2  F   UNL     1       8.328   5.071  10.157  0.00  0.00    -0.166 F 
ATOM      3  F   UNL     1       9.435   3.703   8.879  0.00  0.00    -0.166 F 
ATOM     39  C   UNL     1       9.453   4.970   9.388  0.00  0.00    +0.417 C 
ENDBRANCH  36  39
ENDBRANCH  11  33
ENDBRANCH   4  28
ENDBRANCH  18   4
BRANCH  15  23
ATOM     23  C   UNL     1      13.094   3.575  -0.710  0.00  0.00    +0.102 C 
BRANCH  23  26
ATOM      7  O   UNL     1      10.748   3.936  -0.890  0.00  0.00    -0.276 OA
ATOM     10  N   UNL     1      11.902   3.502  -2.848  0.00  0.00    -0.296 N 
ATOM     26  C   UNL     1      11.802   3.692  -1.480  0.00  0.00    +0.216 C 
ATOM     27  C   UNL     1      10.764   3.675  -3.754  0.00  0.00    +0.101 C 
ATOM     29  C   UNL     1      13.128   3.210  -3.588  0.00  0.00    +0.108 C 
ATOM     30  C   UNL     1      11.415   3.804  -5.135  0.00  0.00    +0.026 C 
ATOM     31  C   UNL     1      12.671   2.949  -5.014  0.00  0.00    +0.021 C 
BRANCH  27  32
ATOM     32  C   UNL     1       9.806   2.489  -3.679  0.00  0.00    +0.178 C 
BRANCH  32   9
ATOM      9  O   UNL     1       8.490   2.961  -3.904  0.00  0.00    -0.393 OA
ATOM     43  H   UNL     1       8.537   3.609  -4.627  0.00  0.00    +0.209 HD
ENDBRANCH  32   9
ENDBRANCH  27  32
ENDBRANCH  23  26
ENDBRANCH  15  23
BRANCH  14  24
ATOM     24  C   UNL     1      15.688   7.697   2.916  0.00  0.00    +0.166 C 
BRANCH  24   6
ATOM      6  O   UNL     1      15.600   8.648   3.954  0.00  0.00    -0.394 OA
ATOM     41  H   UNL     1      14.897   8.354   4.558  0.00  0.00    +0.209 HD
ENDBRANCH  24   6
ENDBRANCH  14  24
TORSDOF 11
ENDMDL
MODEL 5
REMARK VINA RESULT:      -6.6     17.719     19.734
REMARK  Name = 23843913
REMARK  13 active torsions:
REMARK  status: ('A' for Active; 'I' for Inactive)
REMARK    1  A    between atoms: O_4  and  C_18
REMARK    2  A    between atoms: O_4  and  C_28
REMARK    3  A    between atoms: O_5  and  C_19
REMARK    4  A    between atoms: O_6  and  C_24
REMARK    5  A    between atoms: O_9  and  C_32
REMARK    6  A    between atoms: N_11  and  C_33
REMARK    7  A    between atoms: C_12  and  C_22
REMARK    8  A    between atoms: C_14  and  C_24
REMARK    9  A    between atoms: C_14  and  C_25
REMARK   10  A    between atoms: C_15  and  C_23
REMARK   11  A    between atoms: C_23  and  C_26
REMARK   12  A    between atoms: C_27  and  C_32
REMARK   13  A    between atoms: C_36  and  C_39
REMARK                            x       y       z     vdW  Elec       q    Type
REMARK                         _______ _______ _______ _____ _____    ______ ____
ROOT
ATOM     12  C   UNL     1      -8.426 -10.345  16.908  0.00  0.00    -0.023 C 
ATOM     13  C   UNL     1      -9.131 -10.738  18.256  0.00  0.00    +0.007 C 
ATOM     14  C   UNL     1     -10.651 -10.317  18.387  0.00  0.00    +0.031 C 
ATOM     15  C   UNL     1      -6.882 -10.680  17.040  0.00  0.00    +0.032 C 
ATOM     16  C   UNL     1      -8.586  -8.806  16.673  0.00  0.00    +0.011 C 
ATOM     17  C   UNL     1      -8.857 -12.208  18.642  0.00  0.00    +0.007 C 
ATOM     18  C   UNL     1     -10.934  -8.963  17.659  0.00  0.00    +0.186 C 
ATOM     19  C   UNL     1      -6.587 -12.124  17.510  0.00  0.00    +0.119 C 
ATOM     20  C   UNL     1      -9.672  -8.123  17.511  0.00  0.00    +0.046 C 
ATOM     21  C   UNL     1      -7.361 -12.481  18.774  0.00  0.00    +0.032 C 
ATOM     22  C   UNL     1      -9.032 -11.088  15.693  0.00  0.00    +0.012 C 
ATOM     25  C   UNL     1     -10.939 -10.082  19.898  0.00  0.00    +0.017 C 
ENDROOT
BRANCH  19   5
ATOM      5  O   UNL     1      -6.890 -13.092  16.512  0.00  0.00    -0.391 OA
ATOM     40  H   UNL     1      -6.146 -13.717  16.466  0.00  0.00    +0.210 HD
ENDBRANCH  19   5
BRANCH  18   4
ATOM      4  O   UNL     1     -11.499  -9.128  16.361  0.00  0.00    -0.446 OA
BRANCH   4  28
ATOM      8  O   UNL     1     -13.602  -8.286  16.682  0.00  0.00    -0.226 OA
ATOM     11  N   UNL     1     -12.218  -7.548  14.944  0.00  0.00    -0.251 N 
ATOM     28  C   UNL     1     -12.553  -8.306  16.049  0.00  0.00    +0.405 C 
ATOM     42  H   UNL     1     -11.291  -7.707  14.555  0.00  0.00    +0.158 HD
BRANCH  11  33
ATOM     33  C   UNL     1     -13.002  -6.574  14.286  0.00  0.00    +0.037 A 
ATOM     34  C   UNL     1     -12.400  -5.660  13.422  0.00  0.00    +0.035 A 
ATOM     35  C   UNL     1     -14.380  -6.528  14.501  0.00  0.00    +0.023 A 
ATOM     36  C   UNL     1     -13.176  -4.699  12.772  0.00  0.00    +0.057 A 
ATOM     37  C   UNL     1     -15.156  -5.567  13.852  0.00  0.00    +0.002 A 
ATOM     38  C   UNL     1     -14.553  -4.653  12.987  0.00  0.00    +0.012 A 
BRANCH  36  39
ATOM      1  F   UNL     1     -13.423  -3.021  11.086  0.00  0.00    -0.166 F 
ATOM      2  F   UNL     1     -11.787  -2.773  12.487  0.00  0.00    -0.166 F 
ATOM      3  F   UNL     1     -11.682  -4.319  10.961  0.00  0.00    -0.166 F 
ATOM     39  C   UNL     1     -12.533  -3.722  11.848  0.00  0.00    +0.417 C 
ENDBRANCH  36  39
ENDBRANCH  11  33
ENDBRANCH   4  28
ENDBRANCH  18   4
BRANCH  15  23
ATOM     23  C   UNL     1      -6.053 -10.347  15.788  0.00  0.00    +0.102 C 
BRANCH  23  26
ATOM      7  O   UNL     1      -4.115 -10.052  17.137  0.00  0.00    -0.276 OA
ATOM     10  N   UNL     1      -3.843 -11.169  15.129  0.00  0.00    -0.296 N 
ATOM     26  C   UNL     1      -4.584 -10.505  16.092  0.00  0.00    +0.216 C 
ATOM     27  C   UNL     1      -2.426 -11.493  15.308  0.00  0.00    +0.101 C 
ATOM     29  C   UNL     1      -4.358 -11.720  13.877  0.00  0.00    +0.108 C 
ATOM     30  C   UNL     1      -2.162 -12.568  14.250  0.00  0.00    +0.026 C 
ATOM     31  C   UNL     1      -3.126 -12.203  13.128  0.00  0.00    +0.021 C 
BRANCH  27  32
ATOM     32  C   UNL     1      -1.544 -10.262  15.111  0.00  0.00    +0.178 C 
BRANCH  32   9
ATOM      9  O   UNL     1      -0.484 -10.315  16.049  0.00  0.00    -0.393 OA
ATOM     43  H   UNL     1      -0.464 -11.219  16.409  0.00  0.00    +0.209 HD
ENDBRANCH  32   9
ENDBRANCH  27  32
ENDBRANCH  23  26
ENDBRANCH  15  23
BRANCH  14  24
ATOM     24  C   UNL     1     -11.632 -11.419  17.932  0.00  0.00    +0.166 C 
BRANCH  24   6
ATOM      6  O   UNL     1     -12.943 -10.958  18.173  0.00  0.00    -0.394 OA
ATOM     41  H   UNL     1     -13.163 -11.180  19.094  0.00  0.00    +0.209 HD
ENDBRANCH  24   6
ENDBRANCH  14  24
TORSDOF 11
ENDMDL
MODEL 6
REMARK VINA RESULT:      -6.5     30.335     33.179
REMARK  Name = 23843913
REMARK  13 active torsions:
REMARK  status: ('A' for Active; 'I' for Inactive)
REMARK    1  A    between atoms: O_4  and  C_18
REMARK    2  A    between atoms: O_4  and  C_28
REMARK    3  A    between atoms: O_5  and  C_19
REMARK    4  A    between atoms: O_6  and  C_24
REMARK    5  A    between atoms: O_9  and  C_32
REMARK    6  A    between atoms: N_11  and  C_33
REMARK    7  A    between atoms: C_12  and  C_22
REMARK    8  A    between atoms: C_14  and  C_24
REMARK    9  A    between atoms: C_14  and  C_25
REMARK   10  A    between atoms: C_15  and  C_23
REMARK   11  A    between atoms: C_23  and  C_26
REMARK   12  A    between atoms: C_27  and  C_32
REMARK   13  A    between atoms: C_36  and  C_39
REMARK                            x       y       z     vdW  Elec       q    Type
REMARK                         _______ _______ _______ _____ _____    ______ ____
ROOT
ATOM     12  C   UNL     1       9.645   8.933   5.562  0.00  0.00    -0.023 C 
ATOM     13  C   UNL     1       9.638   8.231   6.969  0.00  0.00    +0.007 C 
ATOM     14  C   UNL     1      10.212   6.757   7.006  0.00  0.00    +0.031 C 
ATOM     15  C   UNL     1       8.871  10.310   5.691  0.00  0.00    +0.032 C 
ATOM     16  C   UNL     1       8.889   8.028   4.533  0.00  0.00    +0.011 C 
ATOM     17  C   UNL     1      10.207   9.149   8.072  0.00  0.00    +0.007 C 
ATOM     18  C   UNL     1       9.891   5.985   5.686  0.00  0.00    +0.186 C 
ATOM     19  C   UNL     1       9.369  11.209   6.848  0.00  0.00    +0.119 C 
ATOM     20  C   UNL     1       8.685   6.571   4.962  0.00  0.00    +0.046 C 
ATOM     21  C   UNL     1       9.423  10.455   8.172  0.00  0.00    +0.032 C 
ATOM     22  C   UNL     1      11.080   9.172   5.035  0.00  0.00    +0.012 C 
ATOM     25  C   UNL     1       9.480   6.003   8.155  0.00  0.00    +0.017 C 
ENDROOT
BRANCH  19   5
ATOM      5  O   UNL     1      10.658  11.756   6.592  0.00  0.00    -0.391 OA
ATOM     40  H   UNL     1      11.310  11.040   6.681  0.00  0.00    +0.210 HD
ENDBRANCH  19   5
BRANCH  18   4
ATOM      4  O   UNL     1      10.980   5.964   4.766  0.00  0.00    -0.446 OA
BRANCH   4  28
ATOM      8  O   UNL     1      10.634   3.929   3.780  0.00  0.00    -0.226 OA
ATOM     11  N   UNL     1      10.984   5.876   2.528  0.00  0.00    -0.251 N 
ATOM     28  C   UNL     1      10.845   5.133   3.684  0.00  0.00    +0.405 C 
ATOM     42  H   UNL     1      11.156   6.871   2.652  0.00  0.00    +0.158 HD
BRANCH  11  33
ATOM     33  C   UNL     1      10.917   5.425   1.190  0.00  0.00    +0.037 A 
ATOM     34  C   UNL     1      11.934   4.625   0.670  0.00  0.00    +0.035 A 
ATOM     35  C   UNL     1       9.831   5.781   0.389  0.00  0.00    +0.023 A 
ATOM     36  C   UNL     1      11.866   4.181  -0.651  0.00  0.00    +0.057 A 
ATOM     37  C   UNL     1       9.763   5.337  -0.932  0.00  0.00    +0.002 A 
ATOM     38  C   UNL     1      10.781   4.536  -1.451  0.00  0.00    +0.012 A 
BRANCH  36  39
ATOM      1  F   UNL     1      14.048   3.234  -0.395  0.00  0.00    -0.166 F 
ATOM      2  F   UNL     1      12.571   2.034  -1.436  0.00  0.00    -0.166 F 
ATOM      3  F   UNL     1      13.424   3.785  -2.404  0.00  0.00    -0.166 F 
ATOM     39  C   UNL     1      12.954   3.325  -1.207  0.00  0.00    +0.417 C 
ENDBRANCH  36  39
ENDBRANCH  11  33
ENDBRANCH   4  28
ENDBRANCH  18   4
BRANCH  15  23
ATOM     23  C   UNL     1       8.794  11.116   4.384  0.00  0.00    +0.102 C 
BRANCH  23  26
ATOM      7  O   UNL     1       6.587  11.918   4.773  0.00  0.00    -0.276 OA
ATOM     10  N   UNL     1       6.977  10.833   2.767  0.00  0.00    -0.296 N 
ATOM     26  C   UNL     1       7.350  11.333   4.003  0.00  0.00    +0.216 C 
ATOM     27  C   UNL     1       5.642  11.041   2.202  0.00  0.00    +0.101 C 
ATOM     29  C   UNL     1       7.848  10.134   1.824  0.00  0.00    +0.108 C 
ATOM     30  C   UNL     1       5.823  10.725   0.714  0.00  0.00    +0.026 C 
ATOM     31  C   UNL     1       6.924   9.671   0.709  0.00  0.00    +0.021 C 
BRANCH  27  32
ATOM     32  C   UNL     1       4.609  10.130   2.861  0.00  0.00    +0.178 C 
BRANCH  32   9
ATOM      9  O   UNL     1       3.679   9.720   1.876  0.00  0.00    -0.393 OA
ATOM     43  H   UNL     1       3.621  10.435   1.219  0.00  0.00    +0.209 HD
ENDBRANCH  32   9
ENDBRANCH  27  32
ENDBRANCH  23  26
ENDBRANCH  15  23
BRANCH  14  24
ATOM     24  C   UNL     1      11.716   6.695   7.347  0.00  0.00    +0.166 C 
BRANCH  24   6
ATOM      6  O   UNL     1      11.952   5.497   8.054  0.00  0.00    -0.394 OA
ATOM     41  H   UNL     1      12.295   5.742   8.930  0.00  0.00    +0.209 HD
ENDBRANCH  24   6
ENDBRANCH  14  24
TORSDOF 11
ENDMDL
MODEL 7
REMARK VINA RESULT:      -6.5     30.544     35.960
REMARK  Name = 23843913
REMARK  13 active torsions:
REMARK  status: ('A' for Active; 'I' for Inactive)
REMARK    1  A    between atoms: O_4  and  C_18
REMARK    2  A    between atoms: O_4  and  C_28
REMARK    3  A    between atoms: O_5  and  C_19
REMARK    4  A    between atoms: O_6  and  C_24
REMARK    5  A    between atoms: O_9  and  C_32
REMARK    6  A    between atoms: N_11  and  C_33
REMARK    7  A    between atoms: C_12  and  C_22
REMARK    8  A    between atoms: C_14  and  C_24
REMARK    9  A    between atoms: C_14  and  C_25
REMARK   10  A    between atoms: C_15  and  C_23
REMARK   11  A    between atoms: C_23  and  C_26
REMARK   12  A    between atoms: C_27  and  C_32
REMARK   13  A    between atoms: C_36  and  C_39
REMARK                            x       y       z     vdW  Elec       q    Type
REMARK                         _______ _______ _______ _____ _____    ______ ____
ROOT
ATOM     12  C   UNL     1      12.962   6.978   3.329  0.00  0.00    -0.023 C 
ATOM     13  C   UNL     1      14.081   6.238   2.510  0.00  0.00    +0.007 C 
ATOM     14  C   UNL     1      13.613   5.566   1.156  0.00  0.00    +0.031 C 
ATOM     15  C   UNL     1      13.578   7.418   4.722  0.00  0.00    +0.032 C 
ATOM     16  C   UNL     1      11.781   5.987   3.595  0.00  0.00    +0.011 C 
ATOM     17  C   UNL     1      15.355   7.099   2.368  0.00  0.00    +0.007 C 
ATOM     18  C   UNL     1      12.155   5.013   1.267  0.00  0.00    +0.186 C 
ATOM     19  C   UNL     1      14.902   8.209   4.606  0.00  0.00    +0.119 C 
ATOM     20  C   UNL     1      11.760   4.735   2.712  0.00  0.00    +0.046 C 
ATOM     21  C   UNL     1      15.922   7.487   3.732  0.00  0.00    +0.032 C 
ATOM     22  C   UNL     1      12.404   8.210   2.577  0.00  0.00    +0.012 C 
ATOM     25  C   UNL     1      14.538   4.340   0.903  0.00  0.00    +0.017 C 
ENDROOT
BRANCH  19   5
ATOM      5  O   UNL     1      14.709   9.517   4.080  0.00  0.00    -0.391 OA
ATOM     40  H   UNL     1      15.415   9.686   3.433  0.00  0.00    +0.210 HD
ENDBRANCH  19   5
BRANCH  18   4
ATOM      4  O   UNL     1      11.176   5.889   0.711  0.00  0.00    -0.446 OA
BRANCH   4  28
ATOM      8  O   UNL     1       9.475   4.418   0.295  0.00  0.00    -0.226 OA
ATOM     11  N   UNL     1      10.277   5.888  -1.340  0.00  0.00    -0.251 N 
ATOM     28  C   UNL     1      10.226   5.307  -0.088  0.00  0.00    +0.405 C 
ATOM     42  H   UNL     1      10.974   6.619  -1.468  0.00  0.00    +0.158 HD
BRANCH  11  33
ATOM     33  C   UNL     1       9.479   5.596  -2.469  0.00  0.00    +0.037 A 
ATOM     34  C   UNL     1       9.892   4.628  -3.385  0.00  0.00    +0.035 A 
ATOM     35  C   UNL     1       8.277   6.276  -2.668  0.00  0.00    +0.023 A 
ATOM     36  C   UNL     1       9.104   4.339  -4.499  0.00  0.00    +0.057 A 
ATOM     37  C   UNL     1       7.488   5.987  -3.782  0.00  0.00    +0.002 A 
ATOM     38  C   UNL     1       7.902   5.018  -4.697  0.00  0.00    +0.012 A 
BRANCH  36  39
ATOM      1  F   UNL     1       9.431   2.026  -5.011  0.00  0.00    -0.166 F 
ATOM      2  F   UNL     1       8.840   3.322  -6.647  0.00  0.00    -0.166 F 
ATOM      3  F   UNL     1      10.855   3.447  -5.837  0.00  0.00    -0.166 F 
ATOM     39  C   UNL     1       9.545   3.304  -5.477  0.00  0.00    +0.417 C 
ENDBRANCH  36  39
ENDBRANCH  11  33
ENDBRANCH   4  28
ENDBRANCH  18   4
BRANCH  15  23
ATOM     23  C   UNL     1      12.593   8.159   5.642  0.00  0.00    +0.102 C 
BRANCH  23  26
ATOM      7  O   UNL     1      12.829   6.446   7.277  0.00  0.00    -0.276 OA
ATOM     10  N   UNL     1      10.699   7.277   6.920  0.00  0.00    -0.296 N 
ATOM     26  C   UNL     1      12.063   7.213   6.691  0.00  0.00    +0.216 C 
ATOM     27  C   UNL     1      10.038   6.498   7.969  0.00  0.00    +0.101 C 
ATOM     29  C   UNL     1       9.756   8.169   6.248  0.00  0.00    +0.108 C 
ATOM     30  C   UNL     1       8.686   7.197   8.143  0.00  0.00    +0.026 C 
ATOM     31  C   UNL     1       8.387   7.738   6.750  0.00  0.00    +0.021 C 
BRANCH  27  32
ATOM     32  C   UNL     1       9.881   5.035   7.563  0.00  0.00    +0.178 C 
BRANCH  32   9
ATOM      9  O   UNL     1      10.847   4.270   8.262  0.00  0.00    -0.393 OA
ATOM     43  H   UNL     1      10.745   3.347   7.974  0.00  0.00    +0.209 HD
ENDBRANCH  32   9
ENDBRANCH  27  32
ENDBRANCH  23  26
ENDBRANCH  15  23
BRANCH  14  24
ATOM     24  C   UNL     1      13.778   6.485  -0.073  0.00  0.00    +0.166 C 
BRANCH  24   6
ATOM      6  O   UNL     1      14.292   5.707  -1.131  0.00  0.00    -0.394 OA
ATOM     41  H   UNL     1      14.442   4.811  -0.785  0.00  0.00    +0.209 HD
ENDBRANCH  24   6
ENDBRANCH  14  24
TORSDOF 11
ENDMDL
MODEL 8
REMARK VINA RESULT:      -6.5      1.734      2.380
REMARK  Name = 23843913
REMARK  13 active torsions:
REMARK  status: ('A' for Active; 'I' for Inactive)
REMARK    1  A    between atoms: O_4  and  C_18
REMARK    2  A    between atoms: O_4  and  C_28
REMARK    3  A    between atoms: O_5  and  C_19
REMARK    4  A    between atoms: O_6  and  C_24
REMARK    5  A    between atoms: O_9  and  C_32
REMARK    6  A    between atoms: N_11  and  C_33
REMARK    7  A    between atoms: C_12  and  C_22
REMARK    8  A    between atoms: C_14  and  C_24
REMARK    9  A    between atoms: C_14  and  C_25
REMARK   10  A    between atoms: C_15  and  C_23
REMARK   11  A    between atoms: C_23  and  C_26
REMARK   12  A    between atoms: C_27  and  C_32
REMARK   13  A    between atoms: C_36  and  C_39
REMARK                            x       y       z     vdW  Elec       q    Type
REMARK                         _______ _______ _______ _____ _____    ______ ____
ROOT
ATOM     12  C   UNL     1     -14.991   7.632  21.977  0.00  0.00    -0.023 C 
ATOM     13  C   UNL     1     -16.560   7.653  21.900  0.00  0.00    +0.007 C 
ATOM     14  C   UNL     1     -17.309   6.582  22.793  0.00  0.00    +0.031 C 
ATOM     15  C   UNL     1     -14.427   8.636  20.888  0.00  0.00    +0.032 C 
ATOM     16  C   UNL     1     -14.479   6.191  21.642  0.00  0.00    +0.011 C 
ATOM     17  C   UNL     1     -17.124   9.083  22.040  0.00  0.00    +0.007 C 
ATOM     18  C   UNL     1     -16.495   5.251  22.891  0.00  0.00    +0.186 C 
ATOM     19  C   UNL     1     -15.044  10.053  20.957  0.00  0.00    +0.119 C 
ATOM     20  C   UNL     1     -15.534   5.083  21.721  0.00  0.00    +0.046 C 
ATOM     21  C   UNL     1     -16.568  10.011  20.964  0.00  0.00    +0.032 C 
ATOM     22  C   UNL     1     -14.469   8.018  23.382  0.00  0.00    +0.012 C 
ATOM     25  C   UNL     1     -18.647   6.236  22.077  0.00  0.00    +0.017 C 
ENDROOT
BRANCH  19   5
ATOM      5  O   UNL     1     -14.611  10.778  22.103  0.00  0.00    -0.391 OA
ATOM     40  H   UNL     1     -15.387  10.932  22.669  0.00  0.00    +0.210 HD
ENDBRANCH  19   5
BRANCH  18   4
ATOM      4  O   UNL     1     -15.736   5.143  24.094  0.00  0.00    -0.446 OA
BRANCH   4  28
ATOM      8  O   UNL     1     -15.648   2.861  24.226  0.00  0.00    -0.226 OA
ATOM     11  N   UNL     1     -16.135   4.198  26.085  0.00  0.00    -0.251 N 
ATOM     28  C   UNL     1     -15.825   3.948  24.762  0.00  0.00    +0.405 C 
ATOM     42  H   UNL     1     -16.243   5.176  26.344  0.00  0.00    +0.158 HD
BRANCH  11  33
ATOM     33  C   UNL     1     -16.321   3.261  27.127  0.00  0.00    +0.037 A 
ATOM     34  C   UNL     1     -15.470   3.269  28.232  0.00  0.00    +0.035 A 
ATOM     35  C   UNL     1     -17.356   2.329  27.050  0.00  0.00    +0.023 A 
ATOM     36  C   UNL     1     -15.655   2.344  29.261  0.00  0.00    +0.057 A 
ATOM     37  C   UNL     1     -17.541   1.405  28.078  0.00  0.00    +0.002 A 
ATOM     38  C   UNL     1     -16.689   1.413  29.184  0.00  0.00    +0.012 A 
BRANCH  36  39
ATOM      1  F   UNL     1     -15.219   1.633  31.503  0.00  0.00    -0.166 F 
ATOM      2  F   UNL     1     -13.508   1.834  30.185  0.00  0.00    -0.166 F 
ATOM      3  F   UNL     1     -14.522   3.610  30.925  0.00  0.00    -0.166 F 
ATOM     39  C   UNL     1     -14.745   2.352  30.443  0.00  0.00    +0.417 C 
ENDBRANCH  36  39
ENDBRANCH  11  33
ENDBRANCH   4  28
ENDBRANCH  18   4
BRANCH  15  23
ATOM     23  C   UNL     1     -12.892   8.724  20.843  0.00  0.00    +0.102 C 
BRANCH  23  26
ATOM      7  O   UNL     1     -12.528   7.413  18.891  0.00  0.00    -0.276 OA
ATOM     10  N   UNL     1     -11.844   9.622  18.821  0.00  0.00    -0.296 N 
ATOM     26  C   UNL     1     -12.411   8.514  19.429  0.00  0.00    +0.216 C 
ATOM     27  C   UNL     1     -11.413   9.619  17.421  0.00  0.00    +0.101 C 
ATOM     29  C   UNL     1     -11.684  10.944  19.421  0.00  0.00    +0.108 C 
ATOM     30  C   UNL     1     -11.284  11.106  17.077  0.00  0.00    +0.026 C 
ATOM     31  C   UNL     1     -10.883  11.741  18.403  0.00  0.00    +0.021 C 
BRANCH  27  32
ATOM     32  C   UNL     1     -10.094   8.870  17.244  0.00  0.00    +0.178 C 
BRANCH  32   9
ATOM      9  O   UNL     1     -10.374   7.587  16.717  0.00  0.00    -0.393 OA
ATOM     43  H   UNL     1     -11.149   7.243  17.194  0.00  0.00    +0.209 HD
ENDBRANCH  32   9
ENDBRANCH  27  32
ENDBRANCH  23  26
ENDBRANCH  15  23
BRANCH  14  24
ATOM     24  C   UNL     1     -17.697   7.113  24.189  0.00  0.00    +0.166 C 
BRANCH  24   6
ATOM      6  O   UNL     1     -18.423   6.101  24.851  0.00  0.00    -0.394 OA
ATOM     41  H   UNL     1     -18.523   6.377  25.778  0.00  0.00    +0.209 HD
ENDBRANCH  24   6
ENDBRANCH  14  24
TORSDOF 11
ENDMDL
MODEL 9
REMARK VINA RESULT:      -6.4     30.384     35.289
REMARK  Name = 23843913
REMARK  13 active torsions:
REMARK  status: ('A' for Active; 'I' for Inactive)
REMARK    1  A    between atoms: O_4  and  C_18
REMARK    2  A    between atoms: O_4  and  C_28
REMARK    3  A    between atoms: O_5  and  C_19
REMARK    4  A    between atoms: O_6  and  C_24
REMARK    5  A    between atoms: O_9  and  C_32
REMARK    6  A    between atoms: N_11  and  C_33
REMARK    7  A    between atoms: C_12  and  C_22
REMARK    8  A    between atoms: C_14  and  C_24
REMARK    9  A    between atoms: C_14  and  C_25
REMARK   10  A    between atoms: C_15  and  C_23
REMARK   11  A    between atoms: C_23  and  C_26
REMARK   12  A    between atoms: C_27  and  C_32
REMARK   13  A    between atoms: C_36  and  C_39
REMARK                            x       y       z     vdW  Elec       q    Type
REMARK                         _______ _______ _______ _____ _____    ______ ____
ROOT
ATOM     12  C   UNL     1      21.460   7.188  22.882  0.00  0.00    -0.023 C 
ATOM     13  C   UNL     1      21.565   8.686  22.419  0.00  0.00    +0.007 C 
ATOM     14  C   UNL     1      20.221   9.346  21.908  0.00  0.00    +0.031 C 
ATOM     15  C   UNL     1      22.924   6.656  23.177  0.00  0.00    +0.032 C 
ATOM     16  C   UNL     1      20.842   6.335  21.724  0.00  0.00    +0.011 C 
ATOM     17  C   UNL     1      22.333   9.551  23.442  0.00  0.00    +0.007 C 
ATOM     18  C   UNL     1      19.318   8.304  21.169  0.00  0.00    +0.186 C 
ATOM     19  C   UNL     1      23.741   7.556  24.134  0.00  0.00    +0.119 C 
ATOM     20  C   UNL     1      20.127   7.133  20.628  0.00  0.00    +0.046 C 
ATOM     21  C   UNL     1      23.740   9.013  23.685  0.00  0.00    +0.032 C 
ATOM     22  C   UNL     1      20.567   7.024  24.135  0.00  0.00    +0.012 C 
ATOM     25  C   UNL     1      20.605  10.429  20.858  0.00  0.00    +0.017 C 
ENDROOT
BRANCH  19   5
ATOM      5  O   UNL     1      23.262   7.501  25.473  0.00  0.00    -0.391 OA
ATOM     40  H   UNL     1      24.033   7.453  26.064  0.00  0.00    +0.210 HD
ENDBRANCH  19   5
BRANCH  18   4
ATOM      4  O   UNL     1      18.282   7.772  21.992  0.00  0.00    -0.446 OA
BRANCH   4  28
ATOM      8  O   UNL     1      16.951   6.237  20.942  0.00  0.00    -0.226 OA
ATOM     11  N   UNL     1      16.284   8.460  21.250  0.00  0.00    -0.251 N 
ATOM     28  C   UNL     1      17.138   7.378  21.347  0.00  0.00    +0.405 C 
ATOM     42  H   UNL     1      16.618   9.333  21.651  0.00  0.00    +0.158 HD
BRANCH  11  33
ATOM     33  C   UNL     1      14.999   8.504  20.663  0.00  0.00    +0.037 A 
ATOM     34  C   UNL     1      13.886   8.070  21.384  0.00  0.00    +0.035 A 
ATOM     35  C   UNL     1      14.843   8.984  19.362  0.00  0.00    +0.023 A 
ATOM     36  C   UNL     1      12.619   8.115  20.804  0.00  0.00    +0.057 A 
ATOM     37  C   UNL     1      13.575   9.029  18.783  0.00  0.00    +0.002 A 
ATOM     38  C   UNL     1      12.463   8.594  19.504  0.00  0.00    +0.012 A 
BRANCH  36  39
ATOM      1  F   UNL     1      11.306   8.239  22.800  0.00  0.00    -0.166 F 
ATOM      2  F   UNL     1      10.241   7.888  20.943  0.00  0.00    -0.166 F 
ATOM      3  F   UNL     1      11.452   6.306  21.815  0.00  0.00    -0.166 F 
ATOM     39  C   UNL     1      11.429   7.650  21.574  0.00  0.00    +0.417 C 
ENDBRANCH  36  39
ENDBRANCH  11  33
ENDBRANCH   4  28
ENDBRANCH  18   4
BRANCH  15  23
ATOM     23  C   UNL     1      22.982   5.192  23.642  0.00  0.00    +0.102 C 
BRANCH  23  26
ATOM      7  O   UNL     1      24.092   4.870  21.562  0.00  0.00    -0.276 OA
ATOM     10  N   UNL     1      23.855   3.018  22.929  0.00  0.00    -0.296 N 
ATOM     26  C   UNL     1      23.696   4.356  22.609  0.00  0.00    +0.216 C 
ATOM     27  C   UNL     1      24.608   2.089  22.083  0.00  0.00    +0.101 C 
ATOM     29  C   UNL     1      23.402   2.368  24.156  0.00  0.00    +0.108 C 
ATOM     30  C   UNL     1      24.890   0.901  23.008  0.00  0.00    +0.026 C 
ATOM     31  C   UNL     1      23.685   0.889  23.942  0.00  0.00    +0.021 C 
BRANCH  27  32
ATOM     32  C   UNL     1      23.806   1.681  20.850  0.00  0.00    +0.178 C 
BRANCH  32   9
ATOM      9  O   UNL     1      24.276   2.426  19.742  0.00  0.00    -0.393 OA
ATOM     43  H   UNL     1      23.509   2.882  19.356  0.00  0.00    +0.209 HD
ENDBRANCH  32   9
ENDBRANCH  27  32
ENDBRANCH  23  26
ENDBRANCH  15  23
BRANCH  14  24
ATOM     24  C   UNL     1      19.441  10.084  23.017  0.00  0.00    +0.166 C 
BRANCH  24   6
ATOM      6  O   UNL     1      18.197  10.480  22.482  0.00  0.00    -0.394 OA
ATOM     41  H   UNL     1      18.378  10.979  21.667  0.00  0.00    +0.209 HD
ENDBRANCH  24   6
ENDBRANCH  14  24
TORSDOF 11
ENDMDL
MODEL 10
REMARK VINA RESULT:      -6.4     20.259     21.533
REMARK  Name = 23843913
REMARK  13 active torsions:
REMARK  status: ('A' for Active; 'I' for Inactive)
REMARK    1  A    between atoms: O_4  and  C_18
REMARK    2  A    between atoms: O_4  and  C_28
REMARK    3  A    between atoms: O_5  and  C_19
REMARK    4  A    between atoms: O_6  and  C_24
REMARK    5  A    between atoms: O_9  and  C_32
REMARK    6  A    between atoms: N_11  and  C_33
REMARK    7  A    between atoms: C_12  and  C_22
REMARK    8  A    between atoms: C_14  and  C_24
REMARK    9  A    between atoms: C_14  and  C_25
REMARK   10  A    between atoms: C_15  and  C_23
REMARK   11  A    between atoms: C_23  and  C_26
REMARK   12  A    between atoms: C_27  and  C_32
REMARK   13  A    between atoms: C_36  and  C_39
REMARK                            x       y       z     vdW  Elec       q    Type
REMARK                         _______ _______ _______ _____ _____    ______ ____
ROOT
ATOM     12  C   UNL     1      -4.406 -11.357  13.683  0.00  0.00    -0.023 C 
ATOM     13  C   UNL     1      -3.981 -10.696  15.045  0.00  0.00    +0.007 C 
ATOM     14  C   UNL     1      -4.928 -10.988  16.278  0.00  0.00    +0.031 C 
ATOM     15  C   UNL     1      -3.452 -10.804  12.545  0.00  0.00    +0.032 C 
ATOM     16  C   UNL     1      -5.877 -10.941  13.349  0.00  0.00    +0.011 C 
ATOM     17  C   UNL     1      -2.482 -10.914  15.347  0.00  0.00    +0.007 C 
ATOM     18  C   UNL     1      -6.424 -11.102  15.835  0.00  0.00    +0.186 C 
ATOM     19  C   UNL     1      -1.944 -10.934  12.866  0.00  0.00    +0.119 C 
ATOM     20  C   UNL     1      -6.685 -10.376  14.522  0.00  0.00    +0.046 C 
ATOM     21  C   UNL     1      -1.601 -10.354  14.234  0.00  0.00    +0.032 C 
ATOM     22  C   UNL     1      -4.337 -12.902  13.736  0.00  0.00    +0.012 C 
ATOM     25  C   UNL     1      -4.837  -9.762  17.233  0.00  0.00    +0.017 C 
ENDROOT
BRANCH  19   5
ATOM      5  O   UNL     1      -1.496 -12.285  12.829  0.00  0.00    -0.391 OA
ATOM     40  H   UNL     1      -0.555 -12.295  13.074  0.00  0.00    +0.210 HD
ENDBRANCH  19   5
BRANCH  18   4
ATOM      4  O   UNL     1      -6.865 -12.448  15.681  0.00  0.00    -0.446 OA
BRANCH   4  28
ATOM      8  O   UNL     1      -8.902 -13.483  15.801  0.00  0.00    -0.226 OA
ATOM     11  N   UNL     1      -8.055 -12.193  17.562  0.00  0.00    -0.251 N 
ATOM     28  C   UNL     1      -8.038 -12.778  16.310  0.00  0.00    +0.405 C 
ATOM     42  H   UNL     1      -7.238 -11.639  17.809  0.00  0.00    +0.158 HD
BRANCH  11  33
ATOM     33  C   UNL     1      -9.067 -12.270  18.546  0.00  0.00    +0.037 A 
ATOM     34  C   UNL     1     -10.011 -11.249  18.657  0.00  0.00    +0.035 A 
ATOM     35  C   UNL     1      -9.122 -13.367  19.405  0.00  0.00    +0.023 A 
ATOM     36  C   UNL     1     -11.010 -11.326  19.627  0.00  0.00    +0.057 A 
ATOM     37  C   UNL     1     -10.121 -13.444  20.376  0.00  0.00    +0.002 A 
ATOM     38  C   UNL     1     -11.065 -12.423  20.486  0.00  0.00    +0.012 A 
BRANCH  36  39
ATOM      1  F   UNL     1     -13.311 -10.672  19.665  0.00  0.00    -0.166 F 
ATOM      2  F   UNL     1     -11.949  -9.549  20.926  0.00  0.00    -0.166 F 
ATOM      3  F   UNL     1     -11.891  -9.291  18.767  0.00  0.00    -0.166 F 
ATOM     39  C   UNL     1     -12.020 -10.234  19.746  0.00  0.00    +0.417 C 
ENDBRANCH  36  39
ENDBRANCH  11  33
ENDBRANCH   4  28
ENDBRANCH  18   4
BRANCH  15  23
ATOM     23  C   UNL     1      -3.749 -11.364  11.144  0.00  0.00    +0.102 C 
BRANCH  23  26
ATOM      7  O   UNL     1      -4.100  -9.077  10.589  0.00  0.00    -0.276 OA
ATOM     10  N   UNL     1      -4.771 -10.655   9.035  0.00  0.00    -0.296 N 
ATOM     26  C   UNL     1      -4.217 -10.252  10.239  0.00  0.00    +0.216 C 
ATOM     27  C   UNL     1      -5.187  -9.705   8.001  0.00  0.00    +0.101 C 
ATOM     29  C   UNL     1      -4.930 -12.035   8.581  0.00  0.00    +0.108 C 
ATOM     30  C   UNL     1      -5.305 -10.567   6.741  0.00  0.00    +0.026 C 
ATOM     31  C   UNL     1      -5.716 -11.931   7.283  0.00  0.00    +0.021 C 
BRANCH  27  32
ATOM     32  C   UNL     1      -6.509  -9.030   8.362  0.00  0.00    +0.178 C 
BRANCH  32   9
ATOM      9  O   UNL     1      -6.233  -7.715   8.809  0.00  0.00    -0.393 OA
ATOM     43  H   UNL     1      -5.367  -7.737   9.251  0.00  0.00    +0.209 HD
ENDBRANCH  32   9
ENDBRANCH  27  32
ENDBRANCH  23  26
ENDBRANCH  15  23
BRANCH  14  24
ATOM     24  C   UNL     1      -4.490 -12.211  17.111  0.00  0.00    +0.166 C 
BRANCH  24   6
ATOM      6  O   UNL     1      -5.226 -12.203  18.314  0.00  0.00    -0.394 OA
ATOM     41  H   UNL     1      -5.161 -11.307  18.686  0.00  0.00    +0.209 HD
ENDBRANCH  24   6
ENDBRANCH  14  24
TORSDOF 11
ENDMDL
