MODEL 1
REMARK VINA RESULT:      -7.7      0.000      0.000
REMARK  Name = 75536643
REMARK  8 active torsions:
REMARK  status: ('A' for Active; 'I' for Inactive)
REMARK    1  A    between atoms: O_3  and  C_9
REMARK    2  A    between atoms: O_5  and  C_16
REMARK    3  A    between atoms: N_6  and  C_8
REMARK    4  A    between atoms: N_6  and  C_13
REMARK    5  A    between atoms: N_7  and  C_12
REMARK    6  A    between atoms: C_10  and  C_12
REMARK    7  A    between atoms: C_13  and  C_14
REMARK    8  A    between atoms: C_15  and  C_18
REMARK                            x       y       z     vdW  Elec       q    Type
REMARK                         _______ _______ _______ _____ _____    ______ ____
ROOT
ATOM      2  O   UNL     1      12.989   6.538  20.726  0.00  0.00    -0.371 OA
ATOM      8  C   UNL     1      10.982   7.776  21.015  0.00  0.00    +0.111 C 
ATOM      9  C   UNL     1      11.659   8.224  19.733  0.00  0.00    +0.164 C 
ATOM     10  C   UNL     1      12.561   7.030  19.444  0.00  0.00    +0.165 C 
ATOM     11  C   UNL     1      12.132   7.091  21.739  0.00  0.00    +0.181 C 
ENDROOT
BRANCH   9   3
ATOM      3  O   UNL     1      10.740   8.455  18.683  0.00  0.00    -0.388 OA
ATOM     28  H   UNL     1      11.050   9.221  18.170  0.00  0.00    +0.210 HD
ENDBRANCH   9   3
BRANCH   8   6
ATOM      6  N   UNL     1      10.401   8.866  21.780  0.00  0.00    -0.305 NA
ATOM     27  H   UNL     1       9.553   8.535  22.240  0.00  0.00    +0.123 HD
BRANCH   6  13
ATOM     13  C   UNL     1      11.329   9.351  22.794  0.00  0.00    +0.120 C 
BRANCH  13  14
ATOM     14  C   UNL     1      11.168  10.827  23.043  0.00  0.00    +0.008 A 
ATOM     16  C   UNL     1      11.111  11.327  24.345  0.00  0.00    +0.121 A 
ATOM     17  C   UNL     1      11.077  11.697  21.957  0.00  0.00    +0.008 A 
ATOM     19  C   UNL     1      10.963  12.698  24.559  0.00  0.00    +0.046 A 
ATOM     20  C   UNL     1      10.928  13.067  22.172  0.00  0.00    +0.001 A 
ATOM     21  C   UNL     1      10.871  13.567  23.472  0.00  0.00    +0.004 A 
BRANCH  16   5
ATOM      5  O   UNL     1      11.200  10.492  25.417  0.00  0.00    -0.506 OA
ATOM     30  H   UNL     1      11.853   9.796  25.225  0.00  0.00    +0.292 HD
ENDBRANCH  16   5
ENDBRANCH  13  14
ENDBRANCH   6  13
ENDBRANCH   8   6
BRANCH  10  12
ATOM     12  C   UNL     1      13.771   7.383  18.599  0.00  0.00    +0.138 C 
BRANCH  12   7
ATOM      4  O   UNL     1      16.201   5.853  18.589  0.00  0.00    -0.270 OA
ATOM      7  N   UNL     1      14.929   7.609  19.416  0.00  0.00    -0.309 N 
ATOM     15  C   UNL     1      16.069   6.813  19.343  0.00  0.00    +0.244 C 
ATOM     29  H   UNL     1      14.859   8.343  20.111  0.00  0.00    +0.149 HD
BRANCH  15  18
ATOM      1  F   UNL     1      20.243   8.131  22.859  0.00  0.00    -0.205 F 
ATOM     18  C   UNL     1      17.172   7.161  20.274  0.00  0.00    +0.037 A 
ATOM     22  C   UNL     1      18.220   6.262  20.482  0.00  0.00    +0.016 A 
ATOM     23  C   UNL     1      17.163   8.387  20.939  0.00  0.00    +0.016 A 
ATOM     24  C   UNL     1      19.256   6.589  21.356  0.00  0.00    +0.039 A 
ATOM     25  C   UNL     1      18.201   8.715  21.813  0.00  0.00    +0.039 A 
ATOM     26  C   UNL     1      19.247   7.815  22.021  0.00  0.00    +0.123 A 
ENDBRANCH  15  18
ENDBRANCH  12   7
ENDBRANCH  10  12
TORSDOF 8
ENDMDL
MODEL 2
REMARK VINA RESULT:      -7.6      2.293      6.513
REMARK  Name = 75536643
REMARK  8 active torsions:
REMARK  status: ('A' for Active; 'I' for Inactive)
REMARK    1  A    between atoms: O_3  and  C_9
REMARK    2  A    between atoms: O_5  and  C_16
REMARK    3  A    between atoms: N_6  and  C_8
REMARK    4  A    between atoms: N_6  and  C_13
REMARK    5  A    between atoms: N_7  and  C_12
REMARK    6  A    between atoms: C_10  and  C_12
REMARK    7  A    between atoms: C_13  and  C_14
REMARK    8  A    between atoms: C_15  and  C_18
REMARK                            x       y       z     vdW  Elec       q    Type
REMARK                         _______ _______ _______ _____ _____    ______ ____
ROOT
ATOM      2  O   UNL     1      11.232   8.681  19.852  0.00  0.00    -0.371 OA
ATOM      8  C   UNL     1      12.636   6.774  19.655  0.00  0.00    +0.111 C 
ATOM      9  C   UNL     1      12.183   6.907  21.097  0.00  0.00    +0.164 C 
ATOM     10  C   UNL     1      10.945   7.781  20.936  0.00  0.00    +0.165 C 
ATOM     11  C   UNL     1      12.363   8.173  19.123  0.00  0.00    +0.181 C 
ENDROOT
BRANCH   9   3
ATOM      3  O   UNL     1      11.874   5.661  21.690  0.00  0.00    -0.388 OA
ATOM     28  H   UNL     1      12.181   5.678  22.612  0.00  0.00    +0.210 HD
ENDBRANCH   9   3
BRANCH   8   6
ATOM      6  N   UNL     1      14.026   6.376  19.514  0.00  0.00    -0.305 NA
ATOM     27  H   UNL     1      14.110   5.730  18.729  0.00  0.00    +0.123 HD
BRANCH   6  13
ATOM     13  C   UNL     1      14.881   7.531  19.269  0.00  0.00    +0.120 C 
BRANCH  13  14
ATOM     14  C   UNL     1      16.244   7.362  19.887  0.00  0.00    +0.008 A 
ATOM     16  C   UNL     1      17.088   6.330  19.476  0.00  0.00    +0.121 A 
ATOM     17  C   UNL     1      16.660   8.251  20.877  0.00  0.00    +0.008 A 
ATOM     19  C   UNL     1      18.348   6.187  20.059  0.00  0.00    +0.046 A 
ATOM     20  C   UNL     1      17.919   8.108  21.458  0.00  0.00    +0.001 A 
ATOM     21  C   UNL     1      18.763   7.077  21.050  0.00  0.00    +0.004 A 
BRANCH  16   5
ATOM      5  O   UNL     1      16.699   5.453  18.510  0.00  0.00    -0.506 OA
ATOM     30  H   UNL     1      15.766   5.618  18.287  0.00  0.00    +0.292 HD
ENDBRANCH  16   5
ENDBRANCH  13  14
ENDBRANCH   6  13
ENDBRANCH   8   6
BRANCH  10  12
ATOM     12  C   UNL     1      10.604   8.574  22.185  0.00  0.00    +0.138 C 
BRANCH  12   7
ATOM      4  O   UNL     1      11.269  11.354  21.916  0.00  0.00    -0.270 OA
ATOM      7  N   UNL     1      11.762   9.233  22.717  0.00  0.00    -0.309 N 
ATOM     15  C   UNL     1      12.005  10.591  22.537  0.00  0.00    +0.244 C 
ATOM     29  H   UNL     1      12.446   8.646  23.180  0.00  0.00    +0.149 HD
BRANCH  15  18
ATOM      1  F   UNL     1      16.757  12.580  24.770  0.00  0.00    -0.205 F 
ATOM     18  C   UNL     1      13.262  11.117  23.128  0.00  0.00    +0.037 A 
ATOM     22  C   UNL     1      14.480  10.908  22.478  0.00  0.00    +0.016 A 
ATOM     23  C   UNL     1      13.227  11.820  24.332  0.00  0.00    +0.016 A 
ATOM     24  C   UNL     1      15.660  11.401  23.033  0.00  0.00    +0.039 A 
ATOM     25  C   UNL     1      14.408  12.314  24.887  0.00  0.00    +0.039 A 
ATOM     26  C   UNL     1      15.624  12.104  24.237  0.00  0.00    +0.123 A 
ENDBRANCH  15  18
ENDBRANCH  12   7
ENDBRANCH  10  12
TORSDOF 8
ENDMDL
MODEL 3
REMARK VINA RESULT:      -7.2      3.050      8.043
REMARK  Name = 75536643
REMARK  8 active torsions:
REMARK  status: ('A' for Active; 'I' for Inactive)
REMARK    1  A    between atoms: O_3  and  C_9
REMARK    2  A    between atoms: O_5  and  C_16
REMARK    3  A    between atoms: N_6  and  C_8
REMARK    4  A    between atoms: N_6  and  C_13
REMARK    5  A    between atoms: N_7  and  C_12
REMARK    6  A    between atoms: C_10  and  C_12
REMARK    7  A    between atoms: C_13  and  C_14
REMARK    8  A    between atoms: C_15  and  C_18
REMARK                            x       y       z     vdW  Elec       q    Type
REMARK                         _______ _______ _______ _____ _____    ______ ____
ROOT
ATOM      2  O   UNL     1      11.768   8.496  19.077  0.00  0.00    -0.371 OA
ATOM      8  C   UNL     1      13.036   6.980  20.396  0.00  0.00    +0.111 C 
ATOM      9  C   UNL     1      13.128   8.365  21.009  0.00  0.00    +0.164 C 
ATOM     10  C   UNL     1      11.902   9.036  20.404  0.00  0.00    +0.165 C 
ATOM     11  C   UNL     1      12.571   7.307  18.985  0.00  0.00    +0.181 C 
ENDROOT
BRANCH   9   3
ATOM      3  O   UNL     1      13.071   8.341  22.422  0.00  0.00    -0.388 OA
ATOM     28  H   UNL     1      13.535   9.125  22.760  0.00  0.00    +0.210 HD
ENDBRANCH   9   3
BRANCH   8   6
ATOM      6  N   UNL     1      14.290   6.246  20.422  0.00  0.00    -0.305 NA
ATOM     27  H   UNL     1      14.115   5.278  20.149  0.00  0.00    +0.123 HD
BRANCH   6  13
ATOM     13  C   UNL     1      15.260   6.828  19.503  0.00  0.00    +0.120 C 
BRANCH  13  14
ATOM     14  C   UNL     1      16.675   6.619  19.973  0.00  0.00    +0.008 A 
ATOM     16  C   UNL     1      17.137   7.237  21.135  0.00  0.00    +0.121 A 
ATOM     17  C   UNL     1      17.525   5.797  19.234  0.00  0.00    +0.008 A 
ATOM     19  C   UNL     1      18.451   7.033  21.558  0.00  0.00    +0.046 A 
ATOM     20  C   UNL     1      18.839   5.594  19.657  0.00  0.00    +0.001 A 
ATOM     21  C   UNL     1      19.302   6.211  20.818  0.00  0.00    +0.004 A 
BRANCH  16   5
ATOM      5  O   UNL     1      16.320   8.041  21.870  0.00  0.00    -0.506 OA
ATOM     30  H   UNL     1      16.532   7.934  22.813  0.00  0.00    +0.292 HD
ENDBRANCH  16   5
ENDBRANCH  13  14
ENDBRANCH   6  13
ENDBRANCH   8   6
BRANCH  10  12
ATOM     12  C   UNL     1      12.019  10.548  20.333  0.00  0.00    +0.138 C 
BRANCH  12   7
ATOM      4  O   UNL     1      11.405  13.316  20.790  0.00  0.00    -0.270 OA
ATOM      7  N   UNL     1      11.686  11.156  21.590  0.00  0.00    -0.309 N 
ATOM     15  C   UNL     1      11.401  12.512  21.718  0.00  0.00    +0.244 C 
ATOM     29  H   UNL     1      11.733  10.560  22.409  0.00  0.00    +0.149 HD
BRANCH  15  18
ATOM      1  F   UNL     1      10.259  14.323  26.908  0.00  0.00    -0.205 F 
ATOM     18  C   UNL     1      11.100  12.991  23.091  0.00  0.00    +0.037 A 
ATOM     22  C   UNL     1      10.786  14.334  23.309  0.00  0.00    +0.016 A 
ATOM     23  C   UNL     1      11.129  12.100  24.164  0.00  0.00    +0.016 A 
ATOM     24  C   UNL     1      10.503  14.784  24.598  0.00  0.00    +0.039 A 
ATOM     25  C   UNL     1      10.846  12.550  25.454  0.00  0.00    +0.039 A 
ATOM     26  C   UNL     1      10.533  13.893  25.670  0.00  0.00    +0.123 A 
ENDBRANCH  15  18
ENDBRANCH  12   7
ENDBRANCH  10  12
TORSDOF 8
ENDMDL
MODEL 4
REMARK VINA RESULT:      -7.1      1.922      2.680
REMARK  Name = 75536643
REMARK  8 active torsions:
REMARK  status: ('A' for Active; 'I' for Inactive)
REMARK    1  A    between atoms: O_3  and  C_9
REMARK    2  A    between atoms: O_5  and  C_16
REMARK    3  A    between atoms: N_6  and  C_8
REMARK    4  A    between atoms: N_6  and  C_13
REMARK    5  A    between atoms: N_7  and  C_12
REMARK    6  A    between atoms: C_10  and  C_12
REMARK    7  A    between atoms: C_13  and  C_14
REMARK    8  A    between atoms: C_15  and  C_18
REMARK                            x       y       z     vdW  Elec       q    Type
REMARK                         _______ _______ _______ _____ _____    ______ ____
ROOT
ATOM      2  O   UNL     1      10.754   8.154  20.998  0.00  0.00    -0.371 OA
ATOM      8  C   UNL     1      11.844   9.856  22.247  0.00  0.00    +0.111 C 
ATOM      9  C   UNL     1      12.837   8.748  21.950  0.00  0.00    +0.164 C 
ATOM     10  C   UNL     1      12.170   8.066  20.763  0.00  0.00    +0.165 C 
ATOM     11  C   UNL     1      10.521   9.144  22.015  0.00  0.00    +0.181 C 
ENDROOT
BRANCH   9   3
ATOM      3  O   UNL     1      14.122   9.240  21.622  0.00  0.00    -0.388 OA
ATOM     28  H   UNL     1      14.393   8.845  20.776  0.00  0.00    +0.210 HD
ENDBRANCH   9   3
BRANCH   8   6
ATOM      6  N   UNL     1      11.964  10.404  23.588  0.00  0.00    -0.305 NA
ATOM     27  H   UNL     1      12.421   9.718  24.189  0.00  0.00    +0.123 HD
BRANCH   6  13
ATOM     13  C   UNL     1      12.754  11.629  23.586  0.00  0.00    +0.120 C 
BRANCH  13  14
ATOM     14  C   UNL     1      12.118  12.709  24.421  0.00  0.00    +0.008 A 
ATOM     16  C   UNL     1      10.858  13.213  24.093  0.00  0.00    +0.121 A 
ATOM     17  C   UNL     1      12.800  13.204  25.532  0.00  0.00    +0.008 A 
ATOM     19  C   UNL     1      10.282  14.213  24.878  0.00  0.00    +0.046 A 
ATOM     20  C   UNL     1      12.224  14.204  26.315  0.00  0.00    +0.001 A 
ATOM     21  C   UNL     1      10.966  14.708  25.988  0.00  0.00    +0.004 A 
BRANCH  16   5
ATOM      5  O   UNL     1      10.177  12.740  23.013  0.00  0.00    -0.506 OA
ATOM     30  H   UNL     1       9.854  11.843  23.208  0.00  0.00    +0.292 HD
ENDBRANCH  16   5
ENDBRANCH  13  14
ENDBRANCH   6  13
ENDBRANCH   8   6
BRANCH  10  12
ATOM     12  C   UNL     1      12.574   6.612  20.601  0.00  0.00    +0.138 C 
BRANCH  12   7
ATOM      4  O   UNL     1      14.523   7.200  18.575  0.00  0.00    -0.270 OA
ATOM      7  N   UNL     1      13.997   6.451  20.707  0.00  0.00    -0.309 N 
ATOM     15  C   UNL     1      14.869   6.764  19.669  0.00  0.00    +0.244 C 
ATOM     29  H   UNL     1      14.344   6.028  21.561  0.00  0.00    +0.149 HD
BRANCH  15  18
ATOM      1  F   UNL     1      20.319   5.830  20.644  0.00  0.00    -0.205 F 
ATOM     18  C   UNL     1      16.311   6.516  19.927  0.00  0.00    +0.037 A 
ATOM     22  C   UNL     1      17.056   5.739  19.038  0.00  0.00    +0.016 A 
ATOM     23  C   UNL     1      16.921   7.060  21.058  0.00  0.00    +0.016 A 
ATOM     24  C   UNL     1      18.409   5.507  19.281  0.00  0.00    +0.039 A 
ATOM     25  C   UNL     1      18.275   6.828  21.300  0.00  0.00    +0.039 A 
ATOM     26  C   UNL     1      19.019   6.051  20.411  0.00  0.00    +0.123 A 
ENDBRANCH  15  18
ENDBRANCH  12   7
ENDBRANCH  10  12
TORSDOF 8
ENDMDL
MODEL 5
REMARK VINA RESULT:      -7.0     14.870     17.516
REMARK  Name = 75536643
REMARK  8 active torsions:
REMARK  status: ('A' for Active; 'I' for Inactive)
REMARK    1  A    between atoms: O_3  and  C_9
REMARK    2  A    between atoms: O_5  and  C_16
REMARK    3  A    between atoms: N_6  and  C_8
REMARK    4  A    between atoms: N_6  and  C_13
REMARK    5  A    between atoms: N_7  and  C_12
REMARK    6  A    between atoms: C_10  and  C_12
REMARK    7  A    between atoms: C_13  and  C_14
REMARK    8  A    between atoms: C_15  and  C_18
REMARK                            x       y       z     vdW  Elec       q    Type
REMARK                         _______ _______ _______ _____ _____    ______ ____
ROOT
ATOM      2  O   UNL     1      12.892   8.678   4.390  0.00  0.00    -0.371 OA
ATOM      8  C   UNL     1      15.212   8.436   4.843  0.00  0.00    +0.111 C 
ATOM      9  C   UNL     1      14.651   7.096   4.404  0.00  0.00    +0.164 C 
ATOM     10  C   UNL     1      13.385   7.531   3.677  0.00  0.00    +0.165 C 
ATOM     11  C   UNL     1      13.943   9.179   5.233  0.00  0.00    +0.181 C 
ENDROOT
BRANCH   9   3
ATOM      3  O   UNL     1      15.531   6.389   3.552  0.00  0.00    -0.388 OA
ATOM     28  H   UNL     1      15.143   5.517   3.369  0.00  0.00    +0.210 HD
ENDBRANCH   9   3
BRANCH   8   6
ATOM      6  N   UNL     1      16.169   8.341   5.931  0.00  0.00    -0.305 NA
ATOM     27  H   UNL     1      16.557   7.397   5.952  0.00  0.00    +0.123 HD
BRANCH   6  13
ATOM     13  C   UNL     1      17.258   9.294   5.759  0.00  0.00    +0.120 C 
BRANCH  13  14
ATOM     14  C   UNL     1      18.598   8.610   5.693  0.00  0.00    +0.008 A 
ATOM     16  C   UNL     1      18.983   7.907   4.551  0.00  0.00    +0.121 A 
ATOM     17  C   UNL     1      19.458   8.686   6.788  0.00  0.00    +0.008 A 
ATOM     19  C   UNL     1      20.228   7.279   4.505  0.00  0.00    +0.046 A 
ATOM     20  C   UNL     1      20.703   8.059   6.742  0.00  0.00    +0.001 A 
ATOM     21  C   UNL     1      21.088   7.355   5.601  0.00  0.00    +0.004 A 
BRANCH  16   5
ATOM      5  O   UNL     1      18.156   7.823   3.472  0.00  0.00    -0.506 OA
ATOM     30  H   UNL     1      17.942   8.722   3.165  0.00  0.00    +0.292 HD
ENDBRANCH  16   5
ENDBRANCH  13  14
ENDBRANCH   6  13
ENDBRANCH   8   6
BRANCH  10  12
ATOM     12  C   UNL     1      12.317   6.453   3.635  0.00  0.00    +0.138 C 
BRANCH  12   7
ATOM      4  O   UNL     1       9.931   4.966   4.221  0.00  0.00    -0.270 OA
ATOM      7  N   UNL     1      11.726   6.255   4.928  0.00  0.00    -0.309 N 
ATOM     15  C   UNL     1      10.563   5.515   5.119  0.00  0.00    +0.244 C 
ATOM     29  H   UNL     1      12.160   6.741   5.705  0.00  0.00    +0.149 HD
BRANCH  15  18
ATOM      1  F   UNL     1       8.684   5.175  10.399  0.00  0.00    -0.205 F 
ATOM     18  C   UNL     1      10.065   5.425   6.515  0.00  0.00    +0.037 A 
ATOM     22  C   UNL     1      10.101   4.205   7.192  0.00  0.00    +0.016 A 
ATOM     23  C   UNL     1       9.563   6.561   7.152  0.00  0.00    +0.016 A 
ATOM     24  C   UNL     1       9.634   4.120   8.503  0.00  0.00    +0.039 A 
ATOM     25  C   UNL     1       9.096   6.476   8.464  0.00  0.00    +0.039 A 
ATOM     26  C   UNL     1       9.131   5.255   9.139  0.00  0.00    +0.123 A 
ENDBRANCH  15  18
ENDBRANCH  12   7
ENDBRANCH  10  12
TORSDOF 8
ENDMDL
MODEL 6
REMARK VINA RESULT:      -6.9     27.249     30.151
REMARK  Name = 75536643
REMARK  8 active torsions:
REMARK  status: ('A' for Active; 'I' for Inactive)
REMARK    1  A    between atoms: O_3  and  C_9
REMARK    2  A    between atoms: O_5  and  C_16
REMARK    3  A    between atoms: N_6  and  C_8
REMARK    4  A    between atoms: N_6  and  C_13
REMARK    5  A    between atoms: N_7  and  C_12
REMARK    6  A    between atoms: C_10  and  C_12
REMARK    7  A    between atoms: C_13  and  C_14
REMARK    8  A    between atoms: C_15  and  C_18
REMARK                            x       y       z     vdW  Elec       q    Type
REMARK                         _______ _______ _______ _____ _____    ______ ____
ROOT
ATOM      2  O   UNL     1     -17.884   5.528  23.936  0.00  0.00    -0.371 OA
ATOM      8  C   UNL     1     -16.266   4.509  22.526  0.00  0.00    +0.111 C 
ATOM      9  C   UNL     1     -15.867   4.292  23.974  0.00  0.00    +0.164 C 
ATOM     10  C   UNL     1     -17.199   4.507  24.681  0.00  0.00    +0.165 C 
ATOM     11  C   UNL     1     -17.247   5.665  22.654  0.00  0.00    +0.181 C 
ENDROOT
BRANCH   9   3
ATOM      3  O   UNL     1     -15.348   2.998  24.210  0.00  0.00    -0.388 OA
ATOM     28  H   UNL     1     -14.909   2.693  23.398  0.00  0.00    +0.210 HD
ENDBRANCH   9   3
BRANCH   8   6
ATOM      6  N   UNL     1     -15.146   4.812  21.651  0.00  0.00    -0.305 NA
ATOM     27  H   UNL     1     -15.503   5.089  20.737  0.00  0.00    +0.123 HD
BRANCH   6  13
ATOM     13  C   UNL     1     -14.336   5.897  22.190  0.00  0.00    +0.120 C 
BRANCH  13  14
ATOM     14  C   UNL     1     -13.564   6.611  21.112  0.00  0.00    +0.008 A 
ATOM     16  C   UNL     1     -14.230   7.272  20.079  0.00  0.00    +0.121 A 
ATOM     17  C   UNL     1     -12.171   6.607  21.153  0.00  0.00    +0.008 A 
ATOM     19  C   UNL     1     -13.501   7.929  19.088  0.00  0.00    +0.046 A 
ATOM     20  C   UNL     1     -11.442   7.264  20.162  0.00  0.00    +0.001 A 
ATOM     21  C   UNL     1     -12.107   7.925  19.130  0.00  0.00    +0.004 A 
BRANCH  16   5
ATOM      5  O   UNL     1     -15.591   7.286  20.024  0.00  0.00    -0.506 OA
ATOM     30  H   UNL     1     -15.923   8.028  20.560  0.00  0.00    +0.292 HD
ENDBRANCH  16   5
ENDBRANCH  13  14
ENDBRANCH   6  13
ENDBRANCH   8   6
BRANCH  10  12
ATOM     12  C   UNL     1     -17.048   4.941  26.128  0.00  0.00    +0.138 C 
BRANCH  12   7
ATOM      4  O   UNL     1     -16.670   4.953  28.975  0.00  0.00    -0.270 OA
ATOM      7  N   UNL     1     -16.395   3.930  26.910  0.00  0.00    -0.309 N 
ATOM     15  C   UNL     1     -16.257   4.020  28.292  0.00  0.00    +0.244 C 
ATOM     29  H   UNL     1     -15.969   3.165  26.399  0.00  0.00    +0.149 HD
BRANCH  15  18
ATOM      1  F   UNL     1     -13.522  -0.201  30.789  0.00  0.00    -0.205 F 
ATOM     18  C   UNL     1     -15.534   2.903  28.952  0.00  0.00    +0.037 A 
ATOM     22  C   UNL     1     -14.489   3.175  29.837  0.00  0.00    +0.016 A 
ATOM     23  C   UNL     1     -15.897   1.582  28.687  0.00  0.00    +0.016 A 
ATOM     24  C   UNL     1     -13.810   2.127  30.457  0.00  0.00    +0.039 A 
ATOM     25  C   UNL     1     -15.217   0.534  29.308  0.00  0.00    +0.039 A 
ATOM     26  C   UNL     1     -14.173   0.806  30.193  0.00  0.00    +0.123 A 
ENDBRANCH  15  18
ENDBRANCH  12   7
ENDBRANCH  10  12
TORSDOF 8
ENDMDL
MODEL 7
REMARK VINA RESULT:      -6.8      1.625      2.311
REMARK  Name = 75536643
REMARK  8 active torsions:
REMARK  status: ('A' for Active; 'I' for Inactive)
REMARK    1  A    between atoms: O_3  and  C_9
REMARK    2  A    between atoms: O_5  and  C_16
REMARK    3  A    between atoms: N_6  and  C_8
REMARK    4  A    between atoms: N_6  and  C_13
REMARK    5  A    between atoms: N_7  and  C_12
REMARK    6  A    between atoms: C_10  and  C_12
REMARK    7  A    between atoms: C_13  and  C_14
REMARK    8  A    between atoms: C_15  and  C_18
REMARK                            x       y       z     vdW  Elec       q    Type
REMARK                         _______ _______ _______ _____ _____    ______ ____
ROOT
ATOM      2  O   UNL     1      12.208   8.108  19.441  0.00  0.00    -0.371 OA
ATOM      8  C   UNL     1      12.965  10.244  20.153  0.00  0.00    +0.111 C 
ATOM      9  C   UNL     1      14.096   9.243  20.305  0.00  0.00    +0.164 C 
ATOM     10  C   UNL     1      13.643   8.143  19.354  0.00  0.00    +0.165 C 
ATOM     11  C   UNL     1      11.758   9.323  20.063  0.00  0.00    +0.181 C 
ENDROOT
BRANCH   9   3
ATOM      3  O   UNL     1      15.351   9.776  19.934  0.00  0.00    -0.388 OA
ATOM     28  H   UNL     1      15.366  10.718  20.174  0.00  0.00    +0.210 HD
ENDBRANCH   9   3
BRANCH   8   6
ATOM      6  N   UNL     1      12.874  11.192  21.251  0.00  0.00    -0.305 NA
ATOM     27  H   UNL     1      13.535  11.952  21.090  0.00  0.00    +0.123 HD
BRANCH   6  13
ATOM     13  C   UNL     1      11.531  11.749  21.354  0.00  0.00    +0.120 C 
BRANCH  13  14
ATOM     14  C   UNL     1      11.205  12.172  22.762  0.00  0.00    +0.008 A 
ATOM     16  C   UNL     1      11.353  11.282  23.825  0.00  0.00    +0.121 A 
ATOM     17  C   UNL     1      10.752  13.470  22.996  0.00  0.00    +0.008 A 
ATOM     19  C   UNL     1      11.048  11.690  25.124  0.00  0.00    +0.046 A 
ATOM     20  C   UNL     1      10.447  13.877  24.294  0.00  0.00    +0.001 A 
ATOM     21  C   UNL     1      10.594  12.988  25.358  0.00  0.00    +0.004 A 
BRANCH  16   5
ATOM      5  O   UNL     1      11.796  10.011  23.614  0.00  0.00    -0.506 OA
ATOM     30  H   UNL     1      11.418   9.426  24.293  0.00  0.00    +0.292 HD
ENDBRANCH  16   5
ENDBRANCH  13  14
ENDBRANCH   6  13
ENDBRANCH   8   6
BRANCH  10  12
ATOM     12  C   UNL     1      14.212   6.779  19.701  0.00  0.00    +0.138 C 
BRANCH  12   7
ATOM      4  O   UNL     1      16.614   5.654  18.599  0.00  0.00    -0.270 OA
ATOM      7  N   UNL     1      15.536   6.888  20.242  0.00  0.00    -0.309 N 
ATOM     15  C   UNL     1      16.647   6.308  19.638  0.00  0.00    +0.244 C 
ATOM     29  H   UNL     1      15.624   7.356  21.137  0.00  0.00    +0.149 HD
BRANCH  15  18
ATOM      1  F   UNL     1      21.550   6.999  22.286  0.00  0.00    -0.205 F 
ATOM     18  C   UNL     1      17.944   6.491  20.337  0.00  0.00    +0.037 A 
ATOM     22  C   UNL     1      18.106   7.540  21.244  0.00  0.00    +0.016 A 
ATOM     23  C   UNL     1      19.001   5.615  20.089  0.00  0.00    +0.016 A 
ATOM     24  C   UNL     1      19.324   7.712  21.901  0.00  0.00    +0.039 A 
ATOM     25  C   UNL     1      20.219   5.786  20.748  0.00  0.00    +0.039 A 
ATOM     26  C   UNL     1      20.381   6.835  21.654  0.00  0.00    +0.123 A 
ENDBRANCH  15  18
ENDBRANCH  12   7
ENDBRANCH  10  12
TORSDOF 8
ENDMDL
MODEL 8
REMARK VINA RESULT:      -6.7      1.736      2.465
REMARK  Name = 75536643
REMARK  8 active torsions:
REMARK  status: ('A' for Active; 'I' for Inactive)
REMARK    1  A    between atoms: O_3  and  C_9
REMARK    2  A    between atoms: O_5  and  C_16
REMARK    3  A    between atoms: N_6  and  C_8
REMARK    4  A    between atoms: N_6  and  C_13
REMARK    5  A    between atoms: N_7  and  C_12
REMARK    6  A    between atoms: C_10  and  C_12
REMARK    7  A    between atoms: C_13  and  C_14
REMARK    8  A    between atoms: C_15  and  C_18
REMARK                            x       y       z     vdW  Elec       q    Type
REMARK                         _______ _______ _______ _____ _____    ______ ____
ROOT
ATOM      2  O   UNL     1      12.489   6.855  21.320  0.00  0.00    -0.371 OA
ATOM      8  C   UNL     1      10.860   8.582  21.422  0.00  0.00    +0.111 C 
ATOM      9  C   UNL     1      11.388   8.484  20.003  0.00  0.00    +0.164 C 
ATOM     10  C   UNL     1      11.962   7.073  20.000  0.00  0.00    +0.165 C 
ATOM     11  C   UNL     1      11.948   7.857  22.199  0.00  0.00    +0.181 C 
ENDROOT
BRANCH   9   3
ATOM      3  O   UNL     1      10.374   8.643  19.030  0.00  0.00    -0.388 OA
ATOM     28  H   UNL     1      10.792   8.656  18.153  0.00  0.00    +0.210 HD
ENDBRANCH   9   3
BRANCH   8   6
ATOM      6  N   UNL     1      10.654   9.947  21.876  0.00  0.00    -0.305 NA
ATOM     27  H   UNL     1      10.183   9.930  22.781  0.00  0.00    +0.123 HD
BRANCH   6  13
ATOM     13  C   UNL     1      11.922  10.651  22.017  0.00  0.00    +0.120 C 
BRANCH  13  14
ATOM     14  C   UNL     1      11.910  11.978  21.306  0.00  0.00    +0.008 A 
ATOM     16  C   UNL     1      12.793  12.231  20.255  0.00  0.00    +0.121 A 
ATOM     17  C   UNL     1      11.004  12.959  21.707  0.00  0.00    +0.008 A 
ATOM     19  C   UNL     1      12.768  13.466  19.607  0.00  0.00    +0.046 A 
ATOM     20  C   UNL     1      10.981  14.193  21.059  0.00  0.00    +0.001 A 
ATOM     21  C   UNL     1      11.862  14.447  20.009  0.00  0.00    +0.004 A 
BRANCH  16   5
ATOM      5  O   UNL     1      13.683  11.284  19.849  0.00  0.00    -0.506 OA
ATOM     30  H   UNL     1      13.345  10.853  19.045  0.00  0.00    +0.292 HD
ENDBRANCH  16   5
ENDBRANCH  13  14
ENDBRANCH   6  13
ENDBRANCH   8   6
BRANCH  10  12
ATOM     12  C   UNL     1      13.059   6.874  18.970  0.00  0.00    +0.138 C 
BRANCH  12   7
ATOM      4  O   UNL     1      15.089   8.903  18.875  0.00  0.00    -0.270 OA
ATOM      7  N   UNL     1      14.352   6.822  19.589  0.00  0.00    -0.309 N 
ATOM     15  C   UNL     1      15.277   7.858  19.490  0.00  0.00    +0.244 C 
ATOM     29  H   UNL     1      14.599   5.956  20.055  0.00  0.00    +0.149 HD
BRANCH  15  18
ATOM      1  F   UNL     1      20.205   7.030  22.052  0.00  0.00    -0.205 F 
ATOM     18  C   UNL     1      16.581   7.639  20.167  0.00  0.00    +0.037 A 
ATOM     22  C   UNL     1      17.063   8.584  21.074  0.00  0.00    +0.016 A 
ATOM     23  C   UNL     1      17.323   6.489  19.898  0.00  0.00    +0.016 A 
ATOM     24  C   UNL     1      18.287   8.379  21.710  0.00  0.00    +0.039 A 
ATOM     25  C   UNL     1      18.548   6.284  20.534  0.00  0.00    +0.039 A 
ATOM     26  C   UNL     1      19.030   7.229  21.440  0.00  0.00    +0.123 A 
ENDBRANCH  15  18
ENDBRANCH  12   7
ENDBRANCH  10  12
TORSDOF 8
ENDMDL
MODEL 9
REMARK VINA RESULT:      -6.7     28.355     30.659
REMARK  Name = 75536643
REMARK  8 active torsions:
REMARK  status: ('A' for Active; 'I' for Inactive)
REMARK    1  A    between atoms: O_3  and  C_9
REMARK    2  A    between atoms: O_5  and  C_16
REMARK    3  A    between atoms: N_6  and  C_8
REMARK    4  A    between atoms: N_6  and  C_13
REMARK    5  A    between atoms: N_7  and  C_12
REMARK    6  A    between atoms: C_10  and  C_12
REMARK    7  A    between atoms: C_13  and  C_14
REMARK    8  A    between atoms: C_15  and  C_18
REMARK                            x       y       z     vdW  Elec       q    Type
REMARK                         _______ _______ _______ _____ _____    ______ ____
ROOT
ATOM      2  O   UNL     1     -12.096  -9.010  17.116  0.00  0.00    -0.371 OA
ATOM      8  C   UNL     1      -9.938  -8.087  17.485  0.00  0.00    +0.111 C 
ATOM      9  C   UNL     1     -10.334  -7.854  16.039  0.00  0.00    +0.164 C 
ATOM     10  C   UNL     1     -11.848  -7.999  16.122  0.00  0.00    +0.165 C 
ATOM     11  C   UNL     1     -10.895  -9.200  17.884  0.00  0.00    +0.181 C 
ENDROOT
BRANCH   9   3
ATOM      3  O   UNL     1      -9.954  -6.576  15.568  0.00  0.00    -0.388 OA
ATOM     28  H   UNL     1      -9.223  -6.252  16.121  0.00  0.00    +0.210 HD
ENDBRANCH   9   3
BRANCH   8   6
ATOM      6  N   UNL     1      -8.542  -8.453  17.656  0.00  0.00    -0.305 NA
ATOM     27  H   UNL     1      -8.291  -8.360  18.640  0.00  0.00    +0.123 HD
BRANCH   6  13
ATOM     13  C   UNL     1      -8.304  -9.828  17.236  0.00  0.00    +0.120 C 
BRANCH  13  14
ATOM     14  C   UNL     1      -7.098 -10.422  17.915  0.00  0.00    +0.008 A 
ATOM     16  C   UNL     1      -7.136 -10.754  19.269  0.00  0.00    +0.121 A 
ATOM     17  C   UNL     1      -5.937 -10.640  17.175  0.00  0.00    +0.008 A 
ATOM     19  C   UNL     1      -6.010 -11.305  19.884  0.00  0.00    +0.046 A 
ATOM     20  C   UNL     1      -4.812 -11.190  17.790  0.00  0.00    +0.001 A 
ATOM     21  C   UNL     1      -4.848 -11.522  19.143  0.00  0.00    +0.004 A 
BRANCH  16   5
ATOM      5  O   UNL     1      -8.263 -10.550  20.006  0.00  0.00    -0.506 OA
ATOM     30  H   UNL     1      -8.582 -11.405  20.344  0.00  0.00    +0.292 HD
ENDBRANCH  16   5
ENDBRANCH  13  14
ENDBRANCH   6  13
ENDBRANCH   8   6
BRANCH  10  12
ATOM     12  C   UNL     1     -12.486  -8.406  14.806  0.00  0.00    +0.138 C 
BRANCH  12   7
ATOM      4  O   UNL     1     -13.951  -6.010  14.206  0.00  0.00    -0.270 OA
ATOM      7  N   UNL     1     -12.191  -7.459  13.769  0.00  0.00    -0.309 N 
ATOM     15  C   UNL     1     -12.960  -6.320  13.550  0.00  0.00    +0.244 C 
ATOM     29  H   UNL     1     -11.426  -7.691  13.146  0.00  0.00    +0.149 HD
BRANCH  15  18
ATOM      1  F   UNL     1     -11.369  -3.042   9.277  0.00  0.00    -0.205 F 
ATOM     18  C   UNL     1     -12.538  -5.453  12.420  0.00  0.00    +0.037 A 
ATOM     22  C   UNL     1     -12.206  -6.022  11.190  0.00  0.00    +0.016 A 
ATOM     23  C   UNL     1     -12.475  -4.069  12.588  0.00  0.00    +0.016 A 
ATOM     24  C   UNL     1     -11.810  -5.208  10.129  0.00  0.00    +0.039 A 
ATOM     25  C   UNL     1     -12.079  -3.255  11.526  0.00  0.00    +0.039 A 
ATOM     26  C   UNL     1     -11.747  -3.825  10.296  0.00  0.00    +0.123 A 
ENDBRANCH  15  18
ENDBRANCH  12   7
ENDBRANCH  10  12
TORSDOF 8
ENDMDL
MODEL 10
REMARK VINA RESULT:      -6.7     26.143     28.318
REMARK  Name = 75536643
REMARK  8 active torsions:
REMARK  status: ('A' for Active; 'I' for Inactive)
REMARK    1  A    between atoms: O_3  and  C_9
REMARK    2  A    between atoms: O_5  and  C_16
REMARK    3  A    between atoms: N_6  and  C_8
REMARK    4  A    between atoms: N_6  and  C_13
REMARK    5  A    between atoms: N_7  and  C_12
REMARK    6  A    between atoms: C_10  and  C_12
REMARK    7  A    between atoms: C_13  and  C_14
REMARK    8  A    between atoms: C_15  and  C_18
REMARK                            x       y       z     vdW  Elec       q    Type
REMARK                         _______ _______ _______ _____ _____    ______ ____
ROOT
ATOM      2  O   UNL     1      -1.149 -11.423  15.131  0.00  0.00    -0.371 OA
ATOM      8  C   UNL     1      -3.212 -11.090  16.261  0.00  0.00    +0.111 C 
ATOM      9  C   UNL     1      -3.489 -11.680  14.891  0.00  0.00    +0.164 C 
ATOM     10  C   UNL     1      -2.136 -12.298  14.559  0.00  0.00    +0.165 C 
ATOM     11  C   UNL     1      -1.798 -10.560  16.081  0.00  0.00    +0.181 C 
ENDROOT
BRANCH   9   3
ATOM      3  O   UNL     1      -4.519 -12.649  14.911  0.00  0.00    -0.388 OA
ATOM     28  H   UNL     1      -4.565 -13.027  15.805  0.00  0.00    +0.210 HD
ENDBRANCH   9   3
BRANCH   8   6
ATOM      6  N   UNL     1      -4.158 -10.059  16.654  0.00  0.00    -0.305 NA
ATOM     27  H   UNL     1      -4.825  -9.913  15.897  0.00  0.00    +0.123 HD
BRANCH   6  13
ATOM     13  C   UNL     1      -4.886 -10.445  17.857  0.00  0.00    +0.120 C 
BRANCH  13  14
ATOM     14  C   UNL     1      -6.195 -11.114  17.531  0.00  0.00    +0.008 A 
ATOM     16  C   UNL     1      -7.170 -10.447  16.789  0.00  0.00    +0.121 A 
ATOM     17  C   UNL     1      -6.426 -12.415  17.977  0.00  0.00    +0.008 A 
ATOM     19  C   UNL     1      -8.377 -11.082  16.495  0.00  0.00    +0.046 A 
ATOM     20  C   UNL     1      -7.633 -13.048  17.683  0.00  0.00    +0.001 A 
ATOM     21  C   UNL     1      -8.608 -12.382  16.942  0.00  0.00    +0.004 A 
BRANCH  16   5
ATOM      5  O   UNL     1      -6.960  -9.177  16.344  0.00  0.00    -0.506 OA
ATOM     30  H   UNL     1      -7.390  -9.068  15.477  0.00  0.00    +0.292 HD
ENDBRANCH  16   5
ENDBRANCH  13  14
ENDBRANCH   6  13
ENDBRANCH   8   6
BRANCH  10  12
ATOM     12  C   UNL     1      -1.892 -12.441  13.067  0.00  0.00    +0.138 C 
BRANCH  12   7
ATOM      4  O   UNL     1      -1.447  -9.875  11.857  0.00  0.00    -0.270 OA
ATOM      7  N   UNL     1      -2.839 -11.676  12.308  0.00  0.00    -0.309 N 
ATOM     15  C   UNL     1      -2.535 -10.435  11.755  0.00  0.00    +0.244 C 
ATOM     29  H   UNL     1      -3.779 -12.050  12.245  0.00  0.00    +0.149 HD
BRANCH  15  18
ATOM      1  F   UNL     1      -6.686  -7.876   8.972  0.00  0.00    -0.205 F 
ATOM     18  C   UNL     1      -3.633  -9.759  11.019  0.00  0.00    +0.037 A 
ATOM     22  C   UNL     1      -4.873  -9.572  11.632  0.00  0.00    +0.016 A 
ATOM     23  C   UNL     1      -3.426  -9.310   9.714  0.00  0.00    +0.016 A 
ATOM     24  C   UNL     1      -5.904  -8.937  10.941  0.00  0.00    +0.039 A 
ATOM     25  C   UNL     1      -4.457  -8.674   9.023  0.00  0.00    +0.039 A 
ATOM     26  C   UNL     1      -5.697  -8.488   9.636  0.00  0.00    +0.123 A 
ENDBRANCH  15  18
ENDBRANCH  12   7
ENDBRANCH  10  12
TORSDOF 8
ENDMDL
