MODEL 1
REMARK VINA RESULT:      -7.3      0.000      0.000
REMARK  Name = 11911961
REMARK  2 active torsions:
REMARK  status: ('A' for Active; 'I' for Inactive)
REMARK    1  A    between atoms: C_16  and  C_19
REMARK    2  A    between atoms: C_17  and  C_20
REMARK                            x       y       z     vdW  Elec       q    Type
REMARK                         _______ _______ _______ _____ _____    ______ ____
ROOT
ATOM      2  O   UNL     1      12.430   7.737   2.732  0.00  0.00    -0.267 OA
ATOM      3  O   UNL     1      12.581   6.624   7.114  0.00  0.00    -0.267 OA
ATOM      5  N   UNL     1      10.800   8.081   7.394  0.00  0.00    -0.294 N 
ATOM      6  N   UNL     1      10.812   8.440   4.260  0.00  0.00    -0.311 N 
ATOM      7  C   UNL     1      11.311  10.146   6.106  0.00  0.00    +0.027 C 
ATOM      8  C   UNL     1       9.076   9.129   5.948  0.00  0.00    +0.054 C 
ATOM      9  C   UNL     1       9.822  10.460   6.024  0.00  0.00    +0.018 C 
ATOM     10  C   UNL     1      11.739   9.440   4.812  0.00  0.00    +0.130 C 
ATOM     11  C   UNL     1      11.613   9.298   7.355  0.00  0.00    +0.113 C 
ATOM     12  C   UNL     1       9.354   8.306   7.224  0.00  0.00    +0.117 C 
ATOM     13  C   UNL     1       9.500   8.333   4.729  0.00  0.00    +0.027 A 
ATOM     14  C   UNL     1       8.636   7.493   4.135  0.00  0.00    +0.022 A 
ATOM     15  C   UNL     1      11.284   7.668   3.180  0.00  0.00    +0.260 A 
ATOM     16  C   UNL     1      11.428   6.826   7.499  0.00  0.00    +0.282 C 
ATOM     17  C   UNL     1      10.299   6.715   2.560  0.00  0.00    +0.053 A 
ATOM     18  C   UNL     1       9.045   6.672   3.032  0.00  0.00    +0.016 A 
ENDROOT
BRANCH  17  20
ATOM      1  S   UNL     1      11.983   4.777   1.675  0.00  0.00    -0.088 S 
ATOM     20  C   UNL     1      10.686   5.871   1.475  0.00  0.00    +0.026 A 
ATOM     21  C   UNL     1      10.148   5.793   0.208  0.00  0.00    +0.024 A 
ATOM     23  C   UNL     1      10.800   4.822  -0.624  0.00  0.00    -0.010 A 
ATOM     24  C   UNL     1      11.837   4.183   0.062  0.00  0.00    +0.020 A 
ATOM     27  C   UNL     1      10.552   4.443  -1.965  0.00  0.00    +0.009 A 
ATOM     28  C   UNL     1      12.623   3.188  -0.550  0.00  0.00    +0.015 A 
ATOM     29  C   UNL     1      11.330   3.456  -2.577  0.00  0.00    +0.001 A 
ATOM     30  C   UNL     1      12.353   2.836  -1.875  0.00  0.00    +0.001 A 
ENDBRANCH  17  20
BRANCH  16  19
ATOM      4  O   UNL     1      10.543   5.675   9.414  0.00  0.00    -0.458 OA
ATOM     19  C   UNL     1      10.645   5.737   8.065  0.00  0.00    +0.189 A 
ATOM     22  C   UNL     1       9.959   4.713   7.467  0.00  0.00    +0.054 A 
ATOM     25  C   UNL     1       9.390   3.963   8.524  0.00  0.00    +0.042 A 
ATOM     26  C   UNL     1       9.774   4.587   9.687  0.00  0.00    +0.196 A 
ENDBRANCH  16  19
TORSDOF 2
ENDMDL
MODEL 2
REMARK VINA RESULT:      -7.2     23.934     27.756
REMARK  Name = 11911961
REMARK  2 active torsions:
REMARK  status: ('A' for Active; 'I' for Inactive)
REMARK    1  A    between atoms: C_16  and  C_19
REMARK    2  A    between atoms: C_17  and  C_20
REMARK                            x       y       z     vdW  Elec       q    Type
REMARK                         _______ _______ _______ _____ _____    ______ ____
ROOT
ATOM      2  O   UNL     1      -6.643 -10.242  14.260  0.00  0.00    -0.267 OA
ATOM      3  O   UNL     1      -4.738 -14.114  12.905  0.00  0.00    -0.267 OA
ATOM      5  N   UNL     1      -2.704 -13.028  13.148  0.00  0.00    -0.294 N 
ATOM      6  N   UNL     1      -4.334 -10.581  14.291  0.00  0.00    -0.311 N 
ATOM      7  C   UNL     1      -2.940 -10.763  12.148  0.00  0.00    +0.027 C 
ATOM      8  C   UNL     1      -1.856 -11.024  14.342  0.00  0.00    +0.054 C 
ATOM      9  C   UNL     1      -1.793 -10.263  13.019  0.00  0.00    +0.018 C 
ATOM     10  C   UNL     1      -4.269 -10.411  12.832  0.00  0.00    +0.130 C 
ATOM     11  C   UNL     1      -2.801 -12.276  11.896  0.00  0.00    +0.113 C 
ATOM     12  C   UNL     1      -1.675 -12.534  14.080  0.00  0.00    +0.117 C 
ATOM     13  C   UNL     1      -3.177 -10.787  15.048  0.00  0.00    +0.027 A 
ATOM     14  C   UNL     1      -3.244 -10.825  16.389  0.00  0.00    +0.022 A 
ATOM     15  C   UNL     1      -5.601 -10.431  14.890  0.00  0.00    +0.260 A 
ATOM     16  C   UNL     1      -3.614 -14.070  13.408  0.00  0.00    +0.282 C 
ATOM     17  C   UNL     1      -5.643 -10.512  16.391  0.00  0.00    +0.053 A 
ATOM     18  C   UNL     1      -4.499 -10.684  17.069  0.00  0.00    +0.016 A 
ENDROOT
BRANCH  17  20
ATOM      1  S   UNL     1      -7.186 -11.396  18.443  0.00  0.00    -0.088 S 
ATOM     20  C   UNL     1      -6.882 -10.396  17.092  0.00  0.00    +0.026 A 
ATOM     21  C   UNL     1      -7.941  -9.551  16.836  0.00  0.00    +0.024 A 
ATOM     23  C   UNL     1      -9.030  -9.717  17.758  0.00  0.00    -0.010 A 
ATOM     24  C   UNL     1      -8.746 -10.707  18.703  0.00  0.00    +0.020 A 
ATOM     27  C   UNL     1     -10.277  -9.053  17.839  0.00  0.00    +0.009 A 
ATOM     28  C   UNL     1      -9.667 -11.047  19.714  0.00  0.00    +0.015 A 
ATOM     29  C   UNL     1     -11.194  -9.387  18.839  0.00  0.00    +0.001 A 
ATOM     30  C   UNL     1     -10.890 -10.374  19.765  0.00  0.00    +0.001 A 
ENDBRANCH  17  20
BRANCH  16  19
ATOM      4  O   UNL     1      -2.041 -15.770  14.051  0.00  0.00    -0.458 OA
ATOM     19  C   UNL     1      -3.187 -15.108  14.337  0.00  0.00    +0.189 A 
ATOM     22  C   UNL     1      -3.749 -15.565  15.499  0.00  0.00    +0.054 A 
ATOM     25  C   UNL     1      -2.886 -16.586  15.967  0.00  0.00    +0.042 A 
ATOM     26  C   UNL     1      -1.863 -16.672  15.053  0.00  0.00    +0.196 A 
ENDBRANCH  16  19
TORSDOF 2
ENDMDL
MODEL 3
REMARK VINA RESULT:      -7.1     23.539     25.092
REMARK  Name = 11911961
REMARK  2 active torsions:
REMARK  status: ('A' for Active; 'I' for Inactive)
REMARK    1  A    between atoms: C_16  and  C_19
REMARK    2  A    between atoms: C_17  and  C_20
REMARK                            x       y       z     vdW  Elec       q    Type
REMARK                         _______ _______ _______ _____ _____    ______ ____
ROOT
ATOM      2  O   UNL     1      -4.658 -13.074   9.961  0.00  0.00    -0.267 OA
ATOM      3  O   UNL     1      -5.785 -13.319  14.335  0.00  0.00    -0.267 OA
ATOM      5  N   UNL     1      -3.527 -13.048  14.781  0.00  0.00    -0.294 N 
ATOM      6  N   UNL     1      -3.126 -12.672  11.675  0.00  0.00    -0.311 N 
ATOM      7  C   UNL     1      -2.273 -14.527  13.223  0.00  0.00    +0.027 C 
ATOM      8  C   UNL     1      -1.532 -12.205  13.567  0.00  0.00    +0.054 C 
ATOM      9  C   UNL     1      -1.042 -13.640  13.376  0.00  0.00    +0.018 C 
ATOM     10  C   UNL     1      -3.024 -14.112  11.950  0.00  0.00    +0.130 C 
ATOM     11  C   UNL     1      -3.161 -14.433  14.477  0.00  0.00    +0.113 C 
ATOM     12  C   UNL     1      -2.387 -12.116  14.849  0.00  0.00    +0.117 C 
ATOM     13  C   UNL     1      -2.352 -11.744  12.378  0.00  0.00    +0.027 A 
ATOM     14  C   UNL     1      -2.374 -10.446  12.034  0.00  0.00    +0.022 A 
ATOM     15  C   UNL     1      -3.966 -12.288  10.610  0.00  0.00    +0.260 A 
ATOM     16  C   UNL     1      -4.884 -12.695  14.897  0.00  0.00    +0.282 C 
ATOM     17  C   UNL     1      -3.990 -10.822  10.274  0.00  0.00    +0.053 A 
ATOM     18  C   UNL     1      -3.207  -9.980  10.963  0.00  0.00    +0.016 A 
ENDROOT
BRANCH  17  20
ATOM      1  S   UNL     1      -6.082  -9.230   9.593  0.00  0.00    -0.088 S 
ATOM     20  C   UNL     1      -4.826 -10.330   9.226  0.00  0.00    +0.026 A 
ATOM     21  C   UNL     1      -4.781 -10.618   7.879  0.00  0.00    +0.024 A 
ATOM     23  C   UNL     1      -5.789  -9.931   7.121  0.00  0.00    -0.010 A 
ATOM     24  C   UNL     1      -6.581  -9.126   7.944  0.00  0.00    +0.020 A 
ATOM     27  C   UNL     1      -6.074  -9.954   5.734  0.00  0.00    +0.009 A 
ATOM     28  C   UNL     1      -7.638  -8.353   7.425  0.00  0.00    +0.015 A 
ATOM     29  C   UNL     1      -7.122  -9.189   5.214  0.00  0.00    +0.001 A 
ATOM     30  C   UNL     1      -7.894  -8.398   6.052  0.00  0.00    +0.001 A 
ENDBRANCH  17  20
BRANCH  16  19
ATOM      4  O   UNL     1      -5.147 -11.651  17.046  0.00  0.00    -0.458 OA
ATOM     19  C   UNL     1      -5.198 -11.520  15.699  0.00  0.00    +0.189 A 
ATOM     22  C   UNL     1      -5.552 -10.248  15.335  0.00  0.00    +0.054 A 
ATOM     25  C   UNL     1      -5.733  -9.539  16.547  0.00  0.00    +0.042 A 
ATOM     26  C   UNL     1      -5.475 -10.435  17.557  0.00  0.00    +0.196 A 
ENDBRANCH  16  19
TORSDOF 2
ENDMDL
MODEL 4
REMARK VINA RESULT:      -7.0     25.514     28.692
REMARK  Name = 11911961
REMARK  2 active torsions:
REMARK  status: ('A' for Active; 'I' for Inactive)
REMARK    1  A    between atoms: C_16  and  C_19
REMARK    2  A    between atoms: C_17  and  C_20
REMARK                            x       y       z     vdW  Elec       q    Type
REMARK                         _______ _______ _______ _____ _____    ______ ____
ROOT
ATOM      2  O   UNL     1     -13.391   9.843  20.434  0.00  0.00    -0.267 OA
ATOM      3  O   UNL     1     -14.383  10.879  16.145  0.00  0.00    -0.267 OA
ATOM      5  N   UNL     1     -12.094  10.947  15.786  0.00  0.00    -0.294 N 
ATOM      6  N   UNL     1     -11.763   9.972  18.768  0.00  0.00    -0.311 N 
ATOM      7  C   UNL     1     -11.075  12.190  17.684  0.00  0.00    +0.027 C 
ATOM      8  C   UNL     1     -10.060  10.083  16.916  0.00  0.00    +0.054 C 
ATOM      9  C   UNL     1      -9.746  11.489  17.425  0.00  0.00    +0.018 C 
ATOM     10  C   UNL     1     -11.818  11.441  18.799  0.00  0.00    +0.130 C 
ATOM     11  C   UNL     1     -11.902  12.268  16.387  0.00  0.00    +0.113 C 
ATOM     12  C   UNL     1     -10.854  10.175  15.596  0.00  0.00    +0.117 C 
ATOM     13  C   UNL     1     -10.863   9.299  17.936  0.00  0.00    +0.027 A 
ATOM     14  C   UNL     1     -10.748   7.962  18.006  0.00  0.00    +0.022 A 
ATOM     15  C   UNL     1     -12.590   9.287  19.680  0.00  0.00    +0.260 A 
ATOM     16  C   UNL     1     -13.397  10.485  15.521  0.00  0.00    +0.282 C 
ATOM     17  C   UNL     1     -12.458   7.790  19.708  0.00  0.00    +0.053 A 
ATOM     18  C   UNL     1     -11.560   7.198  18.909  0.00  0.00    +0.016 A 
ENDROOT
BRANCH  17  20
ATOM      1  S   UNL     1     -14.952   6.897  20.307  0.00  0.00    -0.088 S 
ATOM     20  C   UNL     1     -13.269   7.003  20.582  0.00  0.00    +0.026 A 
ATOM     21  C   UNL     1     -12.887   6.269  21.685  0.00  0.00    +0.024 A 
ATOM     23  C   UNL     1     -13.985   5.601  22.325  0.00  0.00    -0.010 A 
ATOM     24  C   UNL     1     -15.190   5.861  21.666  0.00  0.00    +0.020 A 
ATOM     27  C   UNL     1     -14.014   4.762  23.465  0.00  0.00    +0.009 A 
ATOM     28  C   UNL     1     -16.409   5.313  22.112  0.00  0.00    +0.015 A 
ATOM     29  C   UNL     1     -15.221   4.216  23.912  0.00  0.00    +0.001 A 
ATOM     30  C   UNL     1     -16.403   4.489  23.240  0.00  0.00    +0.001 A 
ENDBRANCH  17  20
BRANCH  16  19
ATOM      4  O   UNL     1     -13.533   9.903  13.193  0.00  0.00    -0.458 OA
ATOM     19  C   UNL     1     -13.545   9.478  14.479  0.00  0.00    +0.189 A 
ATOM     22  C   UNL     1     -13.703   8.120  14.553  0.00  0.00    +0.054 A 
ATOM     25  C   UNL     1     -13.794   7.670  13.214  0.00  0.00    +0.042 A 
ATOM     26  C   UNL     1     -13.686   8.791  12.425  0.00  0.00    +0.196 A 
ENDBRANCH  16  19
TORSDOF 2
ENDMDL
MODEL 5
REMARK VINA RESULT:      -7.0      3.570      5.411
REMARK  Name = 11911961
REMARK  2 active torsions:
REMARK  status: ('A' for Active; 'I' for Inactive)
REMARK    1  A    between atoms: C_16  and  C_19
REMARK    2  A    between atoms: C_17  and  C_20
REMARK                            x       y       z     vdW  Elec       q    Type
REMARK                         _______ _______ _______ _____ _____    ______ ____
ROOT
ATOM      2  O   UNL     1      12.614  10.013   4.882  0.00  0.00    -0.267 OA
ATOM      3  O   UNL     1       9.785   8.489   8.064  0.00  0.00    -0.267 OA
ATOM      5  N   UNL     1       8.537   7.604   6.323  0.00  0.00    -0.294 N 
ATOM      6  N   UNL     1      10.831   8.590   4.395  0.00  0.00    -0.311 N 
ATOM      7  C   UNL     1       8.386   9.343   4.550  0.00  0.00    +0.027 C 
ATOM      8  C   UNL     1       8.917   7.017   3.941  0.00  0.00    +0.054 C 
ATOM      9  C   UNL     1       8.132   8.256   3.511  0.00  0.00    +0.018 C 
ATOM     10  C   UNL     1       9.878   9.701   4.534  0.00  0.00    +0.130 C 
ATOM     11  C   UNL     1       7.918   8.874   5.941  0.00  0.00    +0.113 C 
ATOM     12  C   UNL     1       8.410   6.535   5.317  0.00  0.00    +0.117 C 
ATOM     13  C   UNL     1      10.402   7.312   4.023  0.00  0.00    +0.027 A 
ATOM     14  C   UNL     1      11.299   6.339   3.789  0.00  0.00    +0.022 A 
ATOM     15  C   UNL     1      12.195   8.899   4.561  0.00  0.00    +0.260 A 
ATOM     16  C   UNL     1       9.254   7.514   7.530  0.00  0.00    +0.282 C 
ATOM     17  C   UNL     1      13.169   7.778   4.323  0.00  0.00    +0.053 A 
ATOM     18  C   UNL     1      12.705   6.580   3.942  0.00  0.00    +0.016 A 
ENDROOT
BRANCH  17  20
ATOM      1  S   UNL     1      15.211   8.239   6.053  0.00  0.00    -0.088 S 
ATOM     20  C   UNL     1      14.572   7.985   4.489  0.00  0.00    +0.026 A 
ATOM     21  C   UNL     1      15.559   8.015   3.527  0.00  0.00    +0.024 A 
ATOM     23  C   UNL     1      16.868   8.250   4.068  0.00  0.00    -0.010 A 
ATOM     24  C   UNL     1      16.823   8.392   5.458  0.00  0.00    +0.020 A 
ATOM     27  C   UNL     1      18.126   8.349   3.426  0.00  0.00    +0.009 A 
ATOM     28  C   UNL     1      17.988   8.630   6.213  0.00  0.00    +0.015 A 
ATOM     29  C   UNL     1      19.284   8.585   4.171  0.00  0.00    +0.001 A 
ATOM     30  C   UNL     1      19.213   8.723   5.550  0.00  0.00    +0.001 A 
ENDBRANCH  17  20
BRANCH  16  19
ATOM      4  O   UNL     1       8.786   5.994   9.333  0.00  0.00    -0.458 OA
ATOM     19  C   UNL     1       9.379   6.193   8.132  0.00  0.00    +0.189 A 
ATOM     22  C   UNL     1      10.011   5.059   7.695  0.00  0.00    +0.054 A 
ATOM     25  C   UNL     1       9.793   4.087   8.700  0.00  0.00    +0.042 A 
ATOM     26  C   UNL     1       9.043   4.704   9.674  0.00  0.00    +0.196 A 
ENDBRANCH  16  19
TORSDOF 2
ENDMDL
MODEL 6
REMARK VINA RESULT:      -6.9     24.582     28.160
REMARK  Name = 11911961
REMARK  2 active torsions:
REMARK  status: ('A' for Active; 'I' for Inactive)
REMARK    1  A    between atoms: C_16  and  C_19
REMARK    2  A    between atoms: C_17  and  C_20
REMARK                            x       y       z     vdW  Elec       q    Type
REMARK                         _______ _______ _______ _____ _____    ______ ____
ROOT
ATOM      2  O   UNL     1      -7.600 -12.459  14.965  0.00  0.00    -0.267 OA
ATOM      3  O   UNL     1     -11.648 -10.443  14.897  0.00  0.00    -0.267 OA
ATOM      5  N   UNL     1     -11.460 -10.315  17.204  0.00  0.00    -0.294 N 
ATOM      6  N   UNL     1      -8.562 -11.515  16.870  0.00  0.00    -0.311 N 
ATOM      7  C   UNL     1     -10.627 -12.516  18.010  0.00  0.00    +0.027 C 
ATOM      8  C   UNL     1      -9.632 -10.439  18.879  0.00  0.00    +0.054 C 
ATOM      9  C   UNL     1     -10.084 -11.846  19.267  0.00  0.00    +0.018 C 
ATOM     10  C   UNL     1      -9.487 -12.651  16.991  0.00  0.00    +0.130 C 
ATOM     11  C   UNL     1     -11.815 -11.715  17.446  0.00  0.00    +0.113 C 
ATOM     12  C   UNL     1     -10.840  -9.634  18.354  0.00  0.00    +0.117 C 
ATOM     13  C   UNL     1      -8.553 -10.485  17.815  0.00  0.00    +0.027 A 
ATOM     14  C   UNL     1      -7.625  -9.516  17.751  0.00  0.00    +0.022 A 
ATOM     15  C   UNL     1      -7.630 -11.566  15.814  0.00  0.00    +0.260 A 
ATOM     16  C   UNL     1     -11.644  -9.761  15.923  0.00  0.00    +0.282 C 
ATOM     17  C   UNL     1      -6.627 -10.448  15.753  0.00  0.00    +0.053 A 
ATOM     18  C   UNL     1      -6.646  -9.500  16.701  0.00  0.00    +0.016 A 
ENDROOT
BRANCH  17  20
ATOM      1  S   UNL     1      -6.118  -9.877  13.147  0.00  0.00    -0.088 S 
ATOM     20  C   UNL     1      -5.655 -10.397  14.708  0.00  0.00    +0.026 A 
ATOM     21  C   UNL     1      -4.316 -10.721  14.758  0.00  0.00    +0.024 A 
ATOM     23  C   UNL     1      -3.645 -10.545  13.501  0.00  0.00    -0.010 A 
ATOM     24  C   UNL     1      -4.525 -10.081  12.519  0.00  0.00    +0.020 A 
ATOM     27  C   UNL     1      -2.294 -10.762  13.140  0.00  0.00    +0.009 A 
ATOM     28  C   UNL     1      -4.094  -9.832  11.201  0.00  0.00    +0.015 A 
ATOM     29  C   UNL     1      -1.862 -10.517  11.833  0.00  0.00    +0.001 A 
ATOM     30  C   UNL     1      -2.754 -10.057  10.876  0.00  0.00    +0.001 A 
ENDBRANCH  17  20
BRANCH  16  19
ATOM      4  O   UNL     1     -10.704  -7.578  15.568  0.00  0.00    -0.458 OA
ATOM     19  C   UNL     1     -11.806  -8.316  15.842  0.00  0.00    +0.189 A 
ATOM     22  C   UNL     1     -12.910  -7.522  15.997  0.00  0.00    +0.054 A 
ATOM     25  C   UNL     1     -12.459  -6.194  15.805  0.00  0.00    +0.042 A 
ATOM     26  C   UNL     1     -11.111  -6.281  15.546  0.00  0.00    +0.196 A 
ENDBRANCH  16  19
TORSDOF 2
ENDMDL
MODEL 7
REMARK VINA RESULT:      -6.8      2.222      3.745
REMARK  Name = 11911961
REMARK  2 active torsions:
REMARK  status: ('A' for Active; 'I' for Inactive)
REMARK    1  A    between atoms: C_16  and  C_19
REMARK    2  A    between atoms: C_17  and  C_20
REMARK                            x       y       z     vdW  Elec       q    Type
REMARK                         _______ _______ _______ _____ _____    ______ ____
ROOT
ATOM      2  O   UNL     1       9.721   6.916   0.650  0.00  0.00    -0.267 OA
ATOM      3  O   UNL     1      11.848   9.462   3.724  0.00  0.00    -0.267 OA
ATOM      5  N   UNL     1      10.746   8.194   5.321  0.00  0.00    -0.294 N 
ATOM      6  N   UNL     1       9.628   6.458   2.936  0.00  0.00    -0.311 N 
ATOM      7  C   UNL     1       8.379   7.963   4.591  0.00  0.00    +0.027 C 
ATOM      8  C   UNL     1       9.605   5.991   5.410  0.00  0.00    +0.054 C 
ATOM      9  C   UNL     1       8.248   6.695   5.428  0.00  0.00    +0.018 C 
ATOM     10  C   UNL     1       8.685   7.567   3.141  0.00  0.00    +0.130 C 
ATOM     11  C   UNL     1       9.463   8.885   5.181  0.00  0.00    +0.113 C 
ATOM     12  C   UNL     1      10.673   6.910   6.040  0.00  0.00    +0.117 C 
ATOM     13  C   UNL     1      10.015   5.632   3.995  0.00  0.00    +0.027 A 
ATOM     14  C   UNL     1      10.787   4.556   3.767  0.00  0.00    +0.022 A 
ATOM     15  C   UNL     1      10.045   6.216   1.611  0.00  0.00    +0.260 A 
ATOM     16  C   UNL     1      11.897   8.731   4.715  0.00  0.00    +0.282 C 
ATOM     17  C   UNL     1      10.934   5.023   1.398  0.00  0.00    +0.053 A 
ATOM     18  C   UNL     1      11.252   4.249   2.445  0.00  0.00    +0.016 A 
ENDROOT
BRANCH  17  20
ATOM      1  S   UNL     1      12.891   5.404  -0.447  0.00  0.00    -0.088 S 
ATOM     20  C   UNL     1      11.428   4.706   0.096  0.00  0.00    +0.026 A 
ATOM     21  C   UNL     1      10.878   3.875  -0.857  0.00  0.00    +0.024 A 
ATOM     23  C   UNL     1      11.660   3.798  -2.058  0.00  0.00    -0.010 A 
ATOM     24  C   UNL     1      12.805   4.596  -1.969  0.00  0.00    +0.020 A 
ATOM     27  C   UNL     1      11.446   3.067  -3.251  0.00  0.00    +0.009 A 
ATOM     28  C   UNL     1      13.728   4.683  -3.029  0.00  0.00    +0.015 A 
ATOM     29  C   UNL     1      12.360   3.150  -4.306  0.00  0.00    +0.001 A 
ATOM     30  C   UNL     1      13.488   3.949  -4.193  0.00  0.00    +0.001 A 
ENDBRANCH  17  20
BRANCH  16  19
ATOM      4  O   UNL     1      13.963   7.511   4.586  0.00  0.00    -0.458 OA
ATOM     19  C   UNL     1      13.183   8.364   5.291  0.00  0.00    +0.189 A 
ATOM     22  C   UNL     1      13.785   8.734   6.464  0.00  0.00    +0.054 A 
ATOM     25  C   UNL     1      15.029   8.060   6.487  0.00  0.00    +0.042 A 
ATOM     26  C   UNL     1      15.091   7.330   5.324  0.00  0.00    +0.196 A 
ENDBRANCH  16  19
TORSDOF 2
ENDMDL
MODEL 8
REMARK VINA RESULT:      -6.6     23.058     26.786
REMARK  Name = 11911961
REMARK  2 active torsions:
REMARK  status: ('A' for Active; 'I' for Inactive)
REMARK    1  A    between atoms: C_16  and  C_19
REMARK    2  A    between atoms: C_17  and  C_20
REMARK                            x       y       z     vdW  Elec       q    Type
REMARK                         _______ _______ _______ _____ _____    ______ ____
ROOT
ATOM      2  O   UNL     1      -6.833  -9.439  13.485  0.00  0.00    -0.267 OA
ATOM      3  O   UNL     1      -7.587 -12.073   9.887  0.00  0.00    -0.267 OA
ATOM      5  N   UNL     1      -5.624 -11.197   9.018  0.00  0.00    -0.294 N 
ATOM      6  N   UNL     1      -5.276  -9.685  11.765  0.00  0.00    -0.311 N 
ATOM      7  C   UNL     1      -5.661  -8.742   9.414  0.00  0.00    +0.027 C 
ATOM      8  C   UNL     1      -3.619 -10.029   9.900  0.00  0.00    +0.054 C 
ATOM      9  C   UNL     1      -4.138  -8.709   9.330  0.00  0.00    +0.018 C 
ATOM     10  C   UNL     1      -6.072  -8.812  10.890  0.00  0.00    +0.130 C 
ATOM     11  C   UNL     1      -6.217  -9.925   8.600  0.00  0.00    +0.113 C 
ATOM     12  C   UNL     1      -4.151 -11.204   9.051  0.00  0.00    +0.117 C 
ATOM     13  C   UNL     1      -4.051 -10.209  11.342  0.00  0.00    +0.027 A 
ATOM     14  C   UNL     1      -3.284 -10.910  12.194  0.00  0.00    +0.022 A 
ATOM     15  C   UNL     1      -5.762  -9.888  13.072  0.00  0.00    +0.260 A 
ATOM     16  C   UNL     1      -6.459 -12.255   9.425  0.00  0.00    +0.282 C 
ATOM     17  C   UNL     1      -4.894 -10.705  13.989  0.00  0.00    +0.053 A 
ATOM     18  C   UNL     1      -3.716 -11.160  13.540  0.00  0.00    +0.016 A 
ENDROOT
BRANCH  17  20
ATOM      1  S   UNL     1      -6.354 -12.304  15.628  0.00  0.00    -0.088 S 
ATOM     20  C   UNL     1      -5.310 -10.985  15.326  0.00  0.00    +0.026 A 
ATOM     21  C   UNL     1      -4.983 -10.320  16.488  0.00  0.00    +0.024 A 
ATOM     23  C   UNL     1      -5.592 -10.891  17.656  0.00  0.00    -0.010 A 
ATOM     24  C   UNL     1      -6.380 -11.998  17.326  0.00  0.00    +0.020 A 
ATOM     27  C   UNL     1      -5.510 -10.511  19.017  0.00  0.00    +0.009 A 
ATOM     28  C   UNL     1      -7.080 -12.725  18.308  0.00  0.00    +0.015 A 
ATOM     29  C   UNL     1      -6.202 -11.229  19.996  0.00  0.00    +0.001 A 
ATOM     30  C   UNL     1      -6.978 -12.325  19.643  0.00  0.00    +0.001 A 
ENDBRANCH  17  20
BRANCH  16  19
ATOM      4  O   UNL     1      -5.824 -14.132   8.065  0.00  0.00    -0.458 OA
ATOM     19  C   UNL     1      -5.925 -13.605   9.308  0.00  0.00    +0.189 A 
ATOM     22  C   UNL     1      -5.484 -14.486  10.260  0.00  0.00    +0.054 A 
ATOM     25  C   UNL     1      -5.080 -15.644   9.553  0.00  0.00    +0.042 A 
ATOM     26  C   UNL     1      -5.307 -15.379   8.223  0.00  0.00    +0.196 A 
ENDBRANCH  16  19
TORSDOF 2
ENDMDL
MODEL 9
REMARK VINA RESULT:      -6.5     32.167     33.780
REMARK  Name = 11911961
REMARK  2 active torsions:
REMARK  status: ('A' for Active; 'I' for Inactive)
REMARK    1  A    between atoms: C_16  and  C_19
REMARK    2  A    between atoms: C_17  and  C_20
REMARK                            x       y       z     vdW  Elec       q    Type
REMARK                         _______ _______ _______ _____ _____    ______ ____
ROOT
ATOM      2  O   UNL     1       9.322  -9.600  32.994  0.00  0.00    -0.267 OA
ATOM      3  O   UNL     1       8.621  -8.062  37.189  0.00  0.00    -0.267 OA
ATOM      5  N   UNL     1       8.400  -5.965  36.225  0.00  0.00    -0.294 N 
ATOM      6  N   UNL     1       8.676  -7.400  33.430  0.00  0.00    -0.311 N 
ATOM      7  C   UNL     1      10.232  -5.708  34.563  0.00  0.00    +0.027 C 
ATOM      8  C   UNL     1       7.936  -5.054  33.964  0.00  0.00    +0.054 C 
ATOM      9  C   UNL     1       9.406  -4.664  33.819  0.00  0.00    +0.018 C 
ATOM     10  C   UNL     1      10.036  -7.069  33.880  0.00  0.00    +0.130 C 
ATOM     11  C   UNL     1       9.837  -5.744  36.051  0.00  0.00    +0.113 C 
ATOM     12  C   UNL     1       7.542  -5.047  35.456  0.00  0.00    +0.117 C 
ATOM     13  C   UNL     1       7.674  -6.428  33.377  0.00  0.00    +0.027 A 
ATOM     14  C   UNL     1       6.472  -6.722  32.856  0.00  0.00    +0.022 A 
ATOM     15  C   UNL     1       8.464  -8.716  32.970  0.00  0.00    +0.260 A 
ATOM     16  C   UNL     1       7.951  -7.043  37.011  0.00  0.00    +0.282 C 
ATOM     17  C   UNL     1       7.096  -9.019  32.424  0.00  0.00    +0.053 A 
ATOM     18  C   UNL     1       6.181  -8.041  32.371  0.00  0.00    +0.016 A 
ENDROOT
BRANCH  17  20
ATOM      1  S   UNL     1       6.172 -11.496  33.048  0.00  0.00    -0.088 S 
ATOM     20  C   UNL     1       6.774 -10.329  31.954  0.00  0.00    +0.026 A 
ATOM     21  C   UNL     1       6.878 -10.837  30.677  0.00  0.00    +0.024 A 
ATOM     23  C   UNL     1       6.459 -12.207  30.579  0.00  0.00    -0.010 A 
ATOM     24  C   UNL     1       6.043 -12.699  31.819  0.00  0.00    +0.020 A 
ATOM     27  C   UNL     1       6.412 -13.078  29.464  0.00  0.00    +0.009 A 
ATOM     28  C   UNL     1       5.586 -14.023  31.972  0.00  0.00    +0.015 A 
ATOM     29  C   UNL     1       5.960 -14.392  29.610  0.00  0.00    +0.001 A 
ATOM     30  C   UNL     1       5.552 -14.857  30.852  0.00  0.00    +0.001 A 
ENDBRANCH  17  20
BRANCH  16  19
ATOM      4  O   UNL     1       6.446  -5.998  38.566  0.00  0.00    -0.458 OA
ATOM     19  C   UNL     1       6.624  -6.929  37.599  0.00  0.00    +0.189 A 
ATOM     22  C   UNL     1       5.464  -7.614  37.350  0.00  0.00    +0.054 A 
ATOM     25  C   UNL     1       4.498  -7.067  38.228  0.00  0.00    +0.042 A 
ATOM     26  C   UNL     1       5.144  -6.088  38.946  0.00  0.00    +0.196 A 
ENDBRANCH  16  19
TORSDOF 2
ENDMDL
MODEL 10
REMARK VINA RESULT:      -6.5      3.979      6.335
REMARK  Name = 11911961
REMARK  2 active torsions:
REMARK  status: ('A' for Active; 'I' for Inactive)
REMARK    1  A    between atoms: C_16  and  C_19
REMARK    2  A    between atoms: C_17  and  C_20
REMARK                            x       y       z     vdW  Elec       q    Type
REMARK                         _______ _______ _______ _____ _____    ______ ____
ROOT
ATOM      2  O   UNL     1      12.743   8.365   3.773  0.00  0.00    -0.267 OA
ATOM      3  O   UNL     1       9.942  11.085   6.055  0.00  0.00    -0.267 OA
ATOM      5  N   UNL     1       8.943   9.149   6.848  0.00  0.00    -0.294 N 
ATOM      6  N   UNL     1      11.205   7.557   5.331  0.00  0.00    -0.311 N 
ATOM      7  C   UNL     1       8.676   7.601   4.919  0.00  0.00    +0.027 C 
ATOM      8  C   UNL     1       9.557   6.752   7.056  0.00  0.00    +0.054 C 
ATOM      9  C   UNL     1       8.642   6.416   5.879  0.00  0.00    +0.018 C 
ATOM     10  C   UNL     1      10.104   7.754   4.377  0.00  0.00    +0.130 C 
ATOM     11  C   UNL     1       8.184   8.878   5.626  0.00  0.00    +0.113 C 
ATOM     12  C   UNL     1       9.030   8.010   7.779  0.00  0.00    +0.117 C 
ATOM     13  C   UNL     1      10.980   6.994   6.590  0.00  0.00    +0.027 A 
ATOM     14  C   UNL     1      12.013   6.716   7.402  0.00  0.00    +0.022 A 
ATOM     15  C   UNL     1      12.501   7.874   4.877  0.00  0.00    +0.260 A 
ATOM     16  C   UNL     1       9.584  10.391   7.009  0.00  0.00    +0.282 C 
ATOM     17  C   UNL     1      13.631   7.580   5.825  0.00  0.00    +0.053 A 
ATOM     18  C   UNL     1      13.361   7.015   7.009  0.00  0.00    +0.016 A 
ENDROOT
BRANCH  17  20
ATOM      1  S   UNL     1      15.609   7.324   3.982  0.00  0.00    -0.088 S 
ATOM     20  C   UNL     1      14.979   7.887   5.467  0.00  0.00    +0.026 A 
ATOM     21  C   UNL     1      15.916   8.611   6.174  0.00  0.00    +0.024 A 
ATOM     23  C   UNL     1      17.178   8.715   5.496  0.00  0.00    -0.010 A 
ATOM     24  C   UNL     1      17.149   8.047   4.268  0.00  0.00    +0.020 A 
ATOM     27  C   UNL     1      18.377   9.363   5.877  0.00  0.00    +0.009 A 
ATOM     28  C   UNL     1      18.275   8.010   3.422  0.00  0.00    +0.015 A 
ATOM     29  C   UNL     1      19.497   9.329   5.042  0.00  0.00    +0.001 A 
ATOM     30  C   UNL     1      19.443   8.660   3.828  0.00  0.00    +0.001 A 
ENDBRANCH  17  20
BRANCH  16  19
ATOM      4  O   UNL     1      11.141  10.947   8.753  0.00  0.00    -0.458 OA
ATOM     19  C   UNL     1       9.847  10.831   8.372  0.00  0.00    +0.189 A 
ATOM     22  C   UNL     1       8.996  11.166   9.392  0.00  0.00    +0.054 A 
ATOM     25  C   UNL     1       9.825  11.515  10.485  0.00  0.00    +0.042 A 
ATOM     26  C   UNL     1      11.120  11.366  10.047  0.00  0.00    +0.196 A 
ENDBRANCH  16  19
TORSDOF 2
ENDMDL
