MODEL 1
REMARK VINA RESULT:      -6.6      0.000      0.000
REMARK  Name = 11883097
REMARK  9 active torsions:
REMARK  status: ('A' for Active; 'I' for Inactive)
REMARK    1  A    between atoms: O_2  and  C_14
REMARK    2  A    between atoms: O_3  and  C_19
REMARK    3  A    between atoms: N_7  and  C_25
REMARK    4  A    between atoms: C_9  and  C_17
REMARK    5  A    between atoms: C_11  and  C_19
REMARK    6  A    between atoms: C_11  and  C_20
REMARK    7  A    between atoms: C_12  and  C_22
REMARK    8  A    between atoms: C_22  and  C_23
REMARK    9  A    between atoms: C_28  and  C_29
REMARK                            x       y       z     vdW  Elec       q    Type
REMARK                         _______ _______ _______ _____ _____    ______ ____
ROOT
ATOM      1  S   UNL     1      15.008   7.957   6.258  0.00  0.00    -0.057 S 
ATOM      5  O   UNL     1      12.333   6.282   2.848  0.00  0.00    -0.275 OA
ATOM      6  N   UNL     1      14.938   7.326   3.750  0.00  0.00    -0.229 NA
ATOM      8  N   UNL     1      12.911   6.993   5.012  0.00  0.00    -0.264 N 
ATOM      9  C   UNL     1      18.487   8.798   3.416  0.00  0.00    -0.019 C 
ATOM     10  C   UNL     1      18.872   8.415   4.911  0.00  0.00    +0.011 C 
ATOM     11  C   UNL     1      20.277   8.903   5.437  0.00  0.00    +0.021 C 
ATOM     12  C   UNL     1      17.275   7.860   2.962  0.00  0.00    +0.054 C 
ATOM     13  C   UNL     1      19.695   8.519   2.484  0.00  0.00    +0.010 C 
ATOM     14  C   UNL     1      21.361   8.589   4.366  0.00  0.00    +0.123 C 
ATOM     15  C   UNL     1      17.700   8.706   5.894  0.00  0.00    +0.049 C 
ATOM     16  C   UNL     1      21.006   9.112   2.980  0.00  0.00    +0.032 C 
ATOM     17  C   UNL     1      18.074  10.282   3.262  0.00  0.00    +0.012 C 
ATOM     18  C   UNL     1      16.207   7.804   4.025  0.00  0.00    +0.058 A 
ATOM     20  C   UNL     1      20.645   8.103   6.718  0.00  0.00    +0.016 C 
ATOM     21  C   UNL     1      16.424   8.171   5.336  0.00  0.00    +0.015 A 
ATOM     24  C   UNL     1      14.220   7.368   4.851  0.00  0.00    +0.165 A 
ATOM     29  C   UNL     1      12.045   6.480   4.032  0.00  0.00    +0.222 C 
ATOM     39  H   UNL     1      12.545   7.108   5.953  0.00  0.00    +0.157 HD
ENDROOT
BRANCH  29  28
ATOM     28  C   UNL     1      10.632   6.172   4.570  0.00  0.00    +0.075 C 
ATOM     32  C   UNL     1      10.429   6.219   6.098  0.00  0.00    +0.013 C 
ATOM     33  C   UNL     1      10.204   4.691   4.634  0.00  0.00    +0.013 C 
ATOM     35  C   UNL     1       9.437   5.049   5.924  0.00  0.00    +0.001 C 
ENDBRANCH  29  28
BRANCH  14   2
ATOM      2  O   UNL     1      22.623   9.134   4.754  0.00  0.00    -0.391 OA
ATOM     36  H   UNL     1      22.881   9.786   4.081  0.00  0.00    +0.210 HD
ENDBRANCH  14   2
BRANCH  11  19
ATOM     19  C   UNL     1      20.326  10.391   5.849  0.00  0.00    +0.165 C 
BRANCH  19   3
ATOM      3  O   UNL     1      21.129  10.494   7.002  0.00  0.00    -0.394 OA
ATOM     37  H   UNL     1      22.041  10.658   6.706  0.00  0.00    +0.209 HD
ENDBRANCH  19   3
ENDBRANCH  11  19
BRANCH  12  22
ATOM     22  C   UNL     1      16.683   8.200   1.588  0.00  0.00    +0.106 C 
BRANCH  22  23
ATOM      4  O   UNL     1      17.634   7.042  -0.311  0.00  0.00    -0.276 OA
ATOM      7  N   UNL     1      15.919   6.044   0.899  0.00  0.00    -0.312 N 
ATOM     23  C   UNL     1      16.824   7.056   0.611  0.00  0.00    +0.214 C 
ATOM     38  H   UNL     1      15.332   6.137   1.723  0.00  0.00    +0.149 HD
BRANCH   7  25
ATOM     25  C   UNL     1      15.826   4.825   0.127  0.00  0.00    +0.073 C 
ATOM     26  C   UNL     1      14.732   4.933  -0.941  0.00  0.00    +0.022 C 
ATOM     27  C   UNL     1      15.597   3.612   1.036  0.00  0.00    +0.022 C 
ATOM     30  C   UNL     1      13.325   4.902  -0.343  0.00  0.00    +0.002 C 
ATOM     31  C   UNL     1      14.189   3.584   1.630  0.00  0.00    +0.002 C 
ATOM     34  C   UNL     1      13.118   3.682   0.548  0.00  0.00    +0.000 C 
ENDBRANCH   7  25
ENDBRANCH  22  23
ENDBRANCH  12  22
TORSDOF 7
ENDMDL
MODEL 2
REMARK VINA RESULT:      -6.3     27.694     32.141
REMARK  Name = 11883097
REMARK  9 active torsions:
REMARK  status: ('A' for Active; 'I' for Inactive)
REMARK    1  A    between atoms: O_2  and  C_14
REMARK    2  A    between atoms: O_3  and  C_19
REMARK    3  A    between atoms: N_7  and  C_25
REMARK    4  A    between atoms: C_9  and  C_17
REMARK    5  A    between atoms: C_11  and  C_19
REMARK    6  A    between atoms: C_11  and  C_20
REMARK    7  A    between atoms: C_12  and  C_22
REMARK    8  A    between atoms: C_22  and  C_23
REMARK    9  A    between atoms: C_28  and  C_29
REMARK                            x       y       z     vdW  Elec       q    Type
REMARK                         _______ _______ _______ _____ _____    ______ ____
ROOT
ATOM      1  S   UNL     1      -9.347  -9.950  12.758  0.00  0.00    -0.057 S 
ATOM      5  O   UNL     1      -4.883  -9.390  11.599  0.00  0.00    -0.275 OA
ATOM      6  N   UNL     1      -6.923  -9.913  13.662  0.00  0.00    -0.229 NA
ATOM      8  N   UNL     1      -7.210  -9.522  11.300  0.00  0.00    -0.264 N 
ATOM      9  C   UNL     1      -8.382 -10.243  17.216  0.00  0.00    -0.019 C 
ATOM     10  C   UNL     1      -9.639 -11.077  16.708  0.00  0.00    +0.011 C 
ATOM     11  C   UNL     1     -10.743 -11.431  17.778  0.00  0.00    +0.021 C 
ATOM     12  C   UNL     1      -7.225 -10.380  16.123  0.00  0.00    +0.054 C 
ATOM     13  C   UNL     1      -7.868 -10.846  18.549  0.00  0.00    +0.010 C 
ATOM     14  C   UNL     1     -10.055 -11.975  19.062  0.00  0.00    +0.123 C 
ATOM     15  C   UNL     1     -10.213 -10.491  15.385  0.00  0.00    +0.049 C 
ATOM     16  C   UNL     1      -8.957 -11.060  19.590  0.00  0.00    +0.032 C 
ATOM     17  C   UNL     1      -8.704  -8.745  17.440  0.00  0.00    +0.012 C 
ATOM     18  C   UNL     1      -7.763 -10.158  14.732  0.00  0.00    +0.058 A 
ATOM     20  C   UNL     1     -11.644 -12.567  17.218  0.00  0.00    +0.016 C 
ATOM     21  C   UNL     1      -9.105 -10.230  14.421  0.00  0.00    +0.015 A 
ATOM     24  C   UNL     1      -7.649  -9.780  12.572  0.00  0.00    +0.165 A 
ATOM     29  C   UNL     1      -5.882  -9.343  10.877  0.00  0.00    +0.222 C 
ATOM     39  H   UNL     1      -7.942  -9.457  10.598  0.00  0.00    +0.157 HD
ENDROOT
BRANCH  29  28
ATOM     28  C   UNL     1      -5.759  -9.062   9.365  0.00  0.00    +0.075 C 
ATOM     32  C   UNL     1      -6.548  -9.976   8.406  0.00  0.00    +0.013 C 
ATOM     33  C   UNL     1      -4.479  -9.549   8.654  0.00  0.00    +0.013 C 
ATOM     35  C   UNL     1      -5.365  -9.839   7.424  0.00  0.00    +0.001 C 
ENDBRANCH  29  28
BRANCH  14   2
ATOM      2  O   UNL     1     -11.017 -12.184  20.097  0.00  0.00    -0.391 OA
ATOM     36  H   UNL     1     -10.549 -12.559  20.862  0.00  0.00    +0.210 HD
ENDBRANCH  14   2
BRANCH  11  19
ATOM     19  C   UNL     1     -11.702 -10.269  18.117  0.00  0.00    +0.165 C 
BRANCH  19   3
ATOM      3  O   UNL     1     -12.981 -10.817  18.346  0.00  0.00    -0.394 OA
ATOM     37  H   UNL     1     -12.913 -11.778  18.207  0.00  0.00    +0.209 HD
ENDBRANCH  19   3
ENDBRANCH  11  19
BRANCH  12  22
ATOM     22  C   UNL     1      -5.987  -9.512  16.390  0.00  0.00    +0.106 C 
BRANCH  22  23
ATOM      4  O   UNL     1      -4.454 -10.877  17.670  0.00  0.00    -0.276 OA
ATOM      7  N   UNL     1      -3.993 -10.421  15.438  0.00  0.00    -0.312 N 
ATOM     23  C   UNL     1      -4.745 -10.346  16.602  0.00  0.00    +0.214 C 
ATOM     38  H   UNL     1      -4.359  -9.989  14.595  0.00  0.00    +0.149 HD
BRANCH   7  25
ATOM     25  C   UNL     1      -2.749 -11.153  15.348  0.00  0.00    +0.073 C 
ATOM     26  C   UNL     1      -1.677 -10.328  14.627  0.00  0.00    +0.022 C 
ATOM     27  C   UNL     1      -2.956 -12.510  14.667  0.00  0.00    +0.022 C 
ATOM     30  C   UNL     1      -1.947 -10.200  13.127  0.00  0.00    +0.002 C 
ATOM     31  C   UNL     1      -3.224 -12.378  13.168  0.00  0.00    +0.002 C 
ATOM     34  C   UNL     1      -2.139 -11.563  12.471  0.00  0.00    +0.000 C 
ENDBRANCH   7  25
ENDBRANCH  22  23
ENDBRANCH  12  22
TORSDOF 7
ENDMDL
MODEL 3
REMARK VINA RESULT:      -6.3     16.120     19.987
REMARK  Name = 11883097
REMARK  9 active torsions:
REMARK  status: ('A' for Active; 'I' for Inactive)
REMARK    1  A    between atoms: O_2  and  C_14
REMARK    2  A    between atoms: O_3  and  C_19
REMARK    3  A    between atoms: N_7  and  C_25
REMARK    4  A    between atoms: C_9  and  C_17
REMARK    5  A    between atoms: C_11  and  C_19
REMARK    6  A    between atoms: C_11  and  C_20
REMARK    7  A    between atoms: C_12  and  C_22
REMARK    8  A    between atoms: C_22  and  C_23
REMARK    9  A    between atoms: C_28  and  C_29
REMARK                            x       y       z     vdW  Elec       q    Type
REMARK                         _______ _______ _______ _____ _____    ______ ____
ROOT
ATOM      1  S   UNL     1      18.032   6.485  20.462  0.00  0.00    -0.057 S 
ATOM      5  O   UNL     1      20.612   9.174  23.237  0.00  0.00    -0.275 OA
ATOM      6  N   UNL     1      18.074   8.688  21.818  0.00  0.00    -0.229 NA
ATOM      8  N   UNL     1      20.069   7.335  21.877  0.00  0.00    -0.264 N 
ATOM      9  C   UNL     1      14.628   9.531  20.307  0.00  0.00    -0.019 C 
ATOM     10  C   UNL     1      14.212   7.999  20.201  0.00  0.00    +0.011 C 
ATOM     11  C   UNL     1      12.837   7.678  19.495  0.00  0.00    +0.021 C 
ATOM     12  C   UNL     1      15.780   9.654  21.408  0.00  0.00    +0.054 C 
ATOM     13  C   UNL     1      13.409  10.365  20.781  0.00  0.00    +0.010 C 
ATOM     14  C   UNL     1      11.742   8.631  20.051  0.00  0.00    +0.123 C 
ATOM     15  C   UNL     1      15.395   7.121  19.699  0.00  0.00    +0.049 C 
ATOM     16  C   UNL     1      12.136  10.101  19.990  0.00  0.00    +0.032 C 
ATOM     17  C   UNL     1      15.135  10.112  18.964  0.00  0.00    +0.012 C 
ATOM     18  C   UNL     1      16.837   8.599  21.206  0.00  0.00    +0.058 A 
ATOM     20  C   UNL     1      12.413   6.225  19.852  0.00  0.00    +0.016 C 
ATOM     21  C   UNL     1      16.637   7.462  20.450  0.00  0.00    +0.015 A 
ATOM     24  C   UNL     1      18.788   7.632  21.491  0.00  0.00    +0.165 A 
ATOM     29  C   UNL     1      20.906   8.097  22.711  0.00  0.00    +0.222 C 
ATOM     39  H   UNL     1      20.437   6.463  21.508  0.00  0.00    +0.157 HD
ENDROOT
BRANCH  29  28
ATOM     28  C   UNL     1      22.293   7.458  22.927  0.00  0.00    +0.075 C 
ATOM     32  C   UNL     1      22.929   6.720  21.731  0.00  0.00    +0.013 C 
ATOM     33  C   UNL     1      22.347   6.116  23.686  0.00  0.00    +0.013 C 
ATOM     35  C   UNL     1      23.513   5.724  22.755  0.00  0.00    +0.001 C 
ENDBRANCH  29  28
BRANCH  14   2
ATOM      2  O   UNL     1      10.515   8.454  19.341  0.00  0.00    -0.391 OA
ATOM     36  H   UNL     1      10.138   7.601  19.614  0.00  0.00    +0.210 HD
ENDBRANCH  14   2
BRANCH  11  19
ATOM     19  C   UNL     1      12.882   7.730  17.952  0.00  0.00    +0.165 C 
BRANCH  19   3
ATOM      3  O   UNL     1      11.816   6.948  17.463  0.00  0.00    -0.394 OA
ATOM     37  H   UNL     1      11.173   7.556  17.057  0.00  0.00    +0.209 HD
ENDBRANCH  19   3
ENDBRANCH  11  19
BRANCH  12  22
ATOM     22  C   UNL     1      16.400  11.053  21.530  0.00  0.00    +0.106 C 
BRANCH  22  23
ATOM      4  O   UNL     1      16.681  11.845  23.799  0.00  0.00    -0.276 OA
ATOM      7  N   UNL     1      14.688  12.261  22.678  0.00  0.00    -0.312 N 
ATOM     23  C   UNL     1      15.973  11.753  22.800  0.00  0.00    +0.214 C 
ATOM     38  H   UNL     1      14.214  12.176  21.784  0.00  0.00    +0.149 HD
BRANCH   7  25
ATOM     25  C   UNL     1      14.019  12.979  23.740  0.00  0.00    +0.073 C 
ATOM     26  C   UNL     1      13.241  12.021  24.648  0.00  0.00    +0.022 C 
ATOM     27  C   UNL     1      13.107  14.074  23.177  0.00  0.00    +0.022 C 
ATOM     30  C   UNL     1      11.993  11.454  23.969  0.00  0.00    +0.002 C 
ATOM     31  C   UNL     1      11.860  13.505  22.500  0.00  0.00    +0.002 C 
ATOM     34  C   UNL     1      11.097  12.562  23.425  0.00  0.00    +0.000 C 
ENDBRANCH   7  25
ENDBRANCH  22  23
ENDBRANCH  12  22
TORSDOF 7
ENDMDL
MODEL 4
REMARK VINA RESULT:      -6.3     27.876     31.008
REMARK  Name = 11883097
REMARK  9 active torsions:
REMARK  status: ('A' for Active; 'I' for Inactive)
REMARK    1  A    between atoms: O_2  and  C_14
REMARK    2  A    between atoms: O_3  and  C_19
REMARK    3  A    between atoms: N_7  and  C_25
REMARK    4  A    between atoms: C_9  and  C_17
REMARK    5  A    between atoms: C_11  and  C_19
REMARK    6  A    between atoms: C_11  and  C_20
REMARK    7  A    between atoms: C_12  and  C_22
REMARK    8  A    between atoms: C_22  and  C_23
REMARK    9  A    between atoms: C_28  and  C_29
REMARK                            x       y       z     vdW  Elec       q    Type
REMARK                         _______ _______ _______ _____ _____    ______ ____
ROOT
ATOM      1  S   UNL     1      -7.353  -9.852  12.790  0.00  0.00    -0.057 S 
ATOM      5  O   UNL     1      -3.458 -10.365  10.309  0.00  0.00    -0.275 OA
ATOM      6  N   UNL     1      -4.862 -10.542  12.895  0.00  0.00    -0.229 NA
ATOM      8  N   UNL     1      -5.710  -9.853  10.746  0.00  0.00    -0.264 N 
ATOM      9  C   UNL     1      -5.241 -10.839  16.721  0.00  0.00    -0.019 C 
ATOM     10  C   UNL     1      -6.772 -11.259  16.616  0.00  0.00    +0.011 C 
ATOM     11  C   UNL     1      -7.566 -11.418  17.970  0.00  0.00    +0.021 C 
ATOM     12  C   UNL     1      -4.544 -11.162  15.320  0.00  0.00    +0.054 C 
ATOM     13  C   UNL     1      -4.548 -11.688  17.819  0.00  0.00    +0.010 C 
ATOM     14  C   UNL     1      -6.712 -12.251  18.968  0.00  0.00    +0.123 C 
ATOM     15  C   UNL     1      -7.523 -10.412  15.546  0.00  0.00    +0.049 C 
ATOM     16  C   UNL     1      -5.297 -11.714  19.143  0.00  0.00    +0.032 C 
ATOM     17  C   UNL     1      -5.049  -9.340  17.058  0.00  0.00    +0.012 C 
ATOM     18  C   UNL     1      -5.383 -10.667  14.170  0.00  0.00    +0.058 A 
ATOM     20  C   UNL     1      -8.873 -12.216  17.701  0.00  0.00    +0.016 C 
ATOM     21  C   UNL     1      -6.721 -10.353  14.290  0.00  0.00    +0.015 A 
ATOM     24  C   UNL     1      -5.808 -10.114  12.088  0.00  0.00    +0.165 A 
ATOM     29  C   UNL     1      -4.570  -9.985   9.934  0.00  0.00    +0.222 C 
ATOM     39  H   UNL     1      -6.567  -9.527  10.308  0.00  0.00    +0.157 HD
ENDROOT
BRANCH  29  28
ATOM     28  C   UNL     1      -4.824  -9.594   8.463  0.00  0.00    +0.075 C 
ATOM     32  C   UNL     1      -6.275  -9.266   8.056  0.00  0.00    +0.013 C 
ATOM     33  C   UNL     1      -4.869 -10.732   7.423  0.00  0.00    +0.013 C 
ATOM     35  C   UNL     1      -5.958  -9.918   6.693  0.00  0.00    +0.001 C 
ENDBRANCH  29  28
BRANCH  14   2
ATOM      2  O   UNL     1      -7.345 -12.305  20.247  0.00  0.00    -0.391 OA
ATOM     36  H   UNL     1      -6.828 -11.750  20.855  0.00  0.00    +0.210 HD
ENDBRANCH  14   2
BRANCH  11  19
ATOM     19  C   UNL     1      -8.017 -10.087  18.610  0.00  0.00    +0.165 C 
BRANCH  19   3
ATOM      3  O   UNL     1      -9.081 -10.369  19.490  0.00  0.00    -0.394 OA
ATOM     37  H   UNL     1      -9.388 -11.271  19.293  0.00  0.00    +0.209 HD
ENDBRANCH  19   3
ENDBRANCH  11  19
BRANCH  12  22
ATOM     22  C   UNL     1      -3.091 -10.680  15.203  0.00  0.00    +0.106 C 
BRANCH  22  23
ATOM      4  O   UNL     1      -0.941 -11.759  14.942  0.00  0.00    -0.276 OA
ATOM      7  N   UNL     1      -2.861 -12.831  14.189  0.00  0.00    -0.312 N 
ATOM     23  C   UNL     1      -2.158 -11.791  14.780  0.00  0.00    +0.214 C 
ATOM     38  H   UNL     1      -3.875 -12.777  14.158  0.00  0.00    +0.149 HD
BRANCH   7  25
ATOM     25  C   UNL     1      -2.225 -14.028  13.686  0.00  0.00    +0.073 C 
ATOM     26  C   UNL     1      -2.581 -14.263  12.214  0.00  0.00    +0.022 C 
ATOM     27  C   UNL     1      -2.583 -15.246  14.544  0.00  0.00    +0.022 C 
ATOM     30  C   UNL     1      -4.031 -14.709  12.026  0.00  0.00    +0.002 C 
ATOM     31  C   UNL     1      -4.033 -15.691  14.353  0.00  0.00    +0.002 C 
ATOM     34  C   UNL     1      -4.360 -15.928  12.882  0.00  0.00    +0.000 C 
ENDBRANCH   7  25
ENDBRANCH  22  23
ENDBRANCH  12  22
TORSDOF 7
ENDMDL
MODEL 5
REMARK VINA RESULT:      -6.2     27.383     30.352
REMARK  Name = 11883097
REMARK  9 active torsions:
REMARK  status: ('A' for Active; 'I' for Inactive)
REMARK    1  A    between atoms: O_2  and  C_14
REMARK    2  A    between atoms: O_3  and  C_19
REMARK    3  A    between atoms: N_7  and  C_25
REMARK    4  A    between atoms: C_9  and  C_17
REMARK    5  A    between atoms: C_11  and  C_19
REMARK    6  A    between atoms: C_11  and  C_20
REMARK    7  A    between atoms: C_12  and  C_22
REMARK    8  A    between atoms: C_22  and  C_23
REMARK    9  A    between atoms: C_28  and  C_29
REMARK                            x       y       z     vdW  Elec       q    Type
REMARK                         _______ _______ _______ _____ _____    ______ ____
ROOT
ATOM      1  S   UNL     1      -4.267  -9.145   9.712  0.00  0.00    -0.057 S 
ATOM      5  O   UNL     1      -8.756  -8.083   9.157  0.00  0.00    -0.275 OA
ATOM      6  N   UNL     1      -6.585  -9.119  10.861  0.00  0.00    -0.229 NA
ATOM      8  N   UNL     1      -6.487  -8.314   8.591  0.00  0.00    -0.264 N 
ATOM      9  C   UNL     1      -4.977 -10.947  13.853  0.00  0.00    -0.019 C 
ATOM     10  C   UNL     1      -3.563 -10.258  13.614  0.00  0.00    +0.011 C 
ATOM     11  C   UNL     1      -2.370 -10.736  14.530  0.00  0.00    +0.021 C 
ATOM     12  C   UNL     1      -6.093 -10.035  13.160  0.00  0.00    +0.054 C 
ATOM     13  C   UNL     1      -5.272 -11.006  15.374  0.00  0.00    +0.010 C 
ATOM     14  C   UNL     1      -2.849 -10.783  16.009  0.00  0.00    +0.123 C 
ATOM     15  C   UNL     1      -3.205 -10.202  12.100  0.00  0.00    +0.049 C 
ATOM     16  C   UNL     1      -4.132 -11.583  16.201  0.00  0.00    +0.032 C 
ATOM     17  C   UNL     1      -5.054 -12.381  13.276  0.00  0.00    +0.012 C 
ATOM     18  C   UNL     1      -5.676  -9.633  11.768  0.00  0.00    +0.058 A 
ATOM     20  C   UNL     1      -1.220  -9.693  14.449  0.00  0.00    +0.016 C 
ATOM     21  C   UNL     1      -4.373  -9.699  11.320  0.00  0.00    +0.015 A 
ATOM     24  C   UNL     1      -5.955  -8.834   9.742  0.00  0.00    +0.165 A 
ATOM     29  C   UNL     1      -7.828  -7.970   8.352  0.00  0.00    +0.222 C 
ATOM     39  H   UNL     1      -5.820  -8.170   7.837  0.00  0.00    +0.157 HD
ENDROOT
BRANCH  29  28
ATOM     28  C   UNL     1      -8.070  -7.415   6.932  0.00  0.00    +0.075 C 
ATOM     32  C   UNL     1      -9.490  -7.554   6.349  0.00  0.00    +0.013 C 
ATOM     33  C   UNL     1      -7.580  -8.268   5.744  0.00  0.00    +0.013 C 
ATOM     35  C   UNL     1      -8.821  -7.770   4.974  0.00  0.00    +0.001 C 
ENDBRANCH  29  28
BRANCH  14   2
ATOM      2  O   UNL     1      -1.834 -11.335  16.848  0.00  0.00    -0.391 OA
ATOM     36  H   UNL     1      -2.274 -11.868  17.531  0.00  0.00    +0.210 HD
ENDBRANCH  14   2
BRANCH  11  19
ATOM     19  C   UNL     1      -1.740 -12.083  14.112  0.00  0.00    +0.165 C 
BRANCH  19   3
ATOM      3  O   UNL     1      -2.348 -13.099  14.878  0.00  0.00    -0.394 OA
ATOM     37  H   UNL     1      -1.869 -13.151  15.723  0.00  0.00    +0.209 HD
ENDBRANCH  19   3
ENDBRANCH  11  19
BRANCH  12  22
ATOM     22  C   UNL     1      -7.505 -10.634  13.172  0.00  0.00    +0.106 C 
BRANCH  22  23
ATOM      4  O   UNL     1      -9.048  -8.947  13.966  0.00  0.00    -0.276 OA
ATOM      7  N   UNL     1      -8.370 -10.646  15.399  0.00  0.00    -0.312 N 
ATOM     23  C   UNL     1      -8.397  -9.963  14.192  0.00  0.00    +0.214 C 
ATOM     38  H   UNL     1      -7.839 -11.510  15.457  0.00  0.00    +0.149 HD
BRANCH   7  25
ATOM     25  C   UNL     1      -9.127 -10.230  16.559  0.00  0.00    +0.073 C 
ATOM     26  C   UNL     1      -8.327  -9.241  17.412  0.00  0.00    +0.022 C 
ATOM     27  C   UNL     1      -9.579 -11.438  17.386  0.00  0.00    +0.022 C 
ATOM     30  C   UNL     1      -7.170  -9.910  18.155  0.00  0.00    +0.002 C 
ATOM     31  C   UNL     1      -8.420 -12.105  18.128  0.00  0.00    +0.002 C 
ATOM     34  C   UNL     1      -7.645 -11.103  18.979  0.00  0.00    +0.000 C 
ENDBRANCH   7  25
ENDBRANCH  22  23
ENDBRANCH  12  22
TORSDOF 7
ENDMDL
MODEL 6
REMARK VINA RESULT:      -6.2     27.594     33.448
REMARK  Name = 11883097
REMARK  9 active torsions:
REMARK  status: ('A' for Active; 'I' for Inactive)
REMARK    1  A    between atoms: O_2  and  C_14
REMARK    2  A    between atoms: O_3  and  C_19
REMARK    3  A    between atoms: N_7  and  C_25
REMARK    4  A    between atoms: C_9  and  C_17
REMARK    5  A    between atoms: C_11  and  C_19
REMARK    6  A    between atoms: C_11  and  C_20
REMARK    7  A    between atoms: C_12  and  C_22
REMARK    8  A    between atoms: C_22  and  C_23
REMARK    9  A    between atoms: C_28  and  C_29
REMARK                            x       y       z     vdW  Elec       q    Type
REMARK                         _______ _______ _______ _____ _____    ______ ____
ROOT
ATOM      1  S   UNL     1      -9.838  -9.745  12.927  0.00  0.00    -0.057 S 
ATOM      5  O   UNL     1      -5.212  -9.916  13.330  0.00  0.00    -0.275 OA
ATOM      6  N   UNL     1      -7.872  -9.890  14.602  0.00  0.00    -0.229 NA
ATOM      8  N   UNL     1      -7.302  -9.794  12.261  0.00  0.00    -0.264 N 
ATOM      9  C   UNL     1     -10.445  -9.542  17.453  0.00  0.00    -0.019 C 
ATOM     10  C   UNL     1     -11.586 -10.273  16.618  0.00  0.00    +0.011 C 
ATOM     11  C   UNL     1     -13.022 -10.335  17.270  0.00  0.00    +0.021 C 
ATOM     12  C   UNL     1      -9.033  -9.973  16.840  0.00  0.00    +0.054 C 
ATOM     13  C   UNL     1     -10.501 -10.017  18.929  0.00  0.00    +0.010 C 
ATOM     14  C   UNL     1     -12.891 -10.780  18.754  0.00  0.00    +0.123 C 
ATOM     15  C   UNL     1     -11.592  -9.807  15.133  0.00  0.00    +0.049 C 
ATOM     16  C   UNL     1     -11.891  -9.947  19.546  0.00  0.00    +0.032 C 
ATOM     17  C   UNL     1     -10.570  -8.000  17.423  0.00  0.00    +0.012 C 
ATOM     18  C   UNL     1      -9.044  -9.878  15.336  0.00  0.00    +0.058 A 
ATOM     20  C   UNL     1     -13.865 -11.415  16.535  0.00  0.00    +0.016 C 
ATOM     21  C   UNL     1     -10.203  -9.823  14.590  0.00  0.00    +0.015 A 
ATOM     24  C   UNL     1      -8.169  -9.817  13.323  0.00  0.00    +0.165 A 
ATOM     29  C   UNL     1      -5.899  -9.843  12.306  0.00  0.00    +0.222 C 
ATOM     39  H   UNL     1      -7.744  -9.734  11.348  0.00  0.00    +0.157 HD
ENDROOT
BRANCH  29  28
ATOM     28  C   UNL     1      -5.243  -9.790  10.911  0.00  0.00    +0.075 C 
ATOM     32  C   UNL     1      -3.721 -10.024  10.832  0.00  0.00    +0.013 C 
ATOM     33  C   UNL     1      -4.984  -8.398  10.300  0.00  0.00    +0.013 C 
ATOM     35  C   UNL     1      -3.699  -8.990   9.686  0.00  0.00    +0.001 C 
ENDBRANCH  29  28
BRANCH  14   2
ATOM      2  O   UNL     1     -14.158 -10.722  19.410  0.00  0.00    -0.391 OA
ATOM     36  H   UNL     1     -14.620  -9.930  19.086  0.00  0.00    +0.210 HD
ENDBRANCH  14   2
BRANCH  11  19
ATOM     19  C   UNL     1     -13.834  -9.026  17.157  0.00  0.00    +0.165 C 
BRANCH  19   3
ATOM      3  O   UNL     1     -15.194  -9.372  17.025  0.00  0.00    -0.394 OA
ATOM     37  H   UNL     1     -15.544  -8.882  16.261  0.00  0.00    +0.209 HD
ENDBRANCH  19   3
ENDBRANCH  11  19
BRANCH  12  22
ATOM     22  C   UNL     1      -7.826  -9.240  17.441  0.00  0.00    +0.106 C 
BRANCH  22  23
ATOM      4  O   UNL     1      -6.717 -10.298  19.313  0.00  0.00    -0.276 OA
ATOM      7  N   UNL     1      -6.146 -10.913  17.145  0.00  0.00    -0.312 N 
ATOM     23  C   UNL     1      -6.853 -10.192  18.097  0.00  0.00    +0.214 C 
ATOM     38  H   UNL     1      -6.381 -10.785  16.165  0.00  0.00    +0.149 HD
BRANCH   7  25
ATOM     25  C   UNL     1      -5.144 -11.898  17.485  0.00  0.00    +0.073 C 
ATOM     26  C   UNL     1      -3.747 -11.270  17.525  0.00  0.00    +0.022 C 
ATOM     27  C   UNL     1      -5.190 -13.088  16.520  0.00  0.00    +0.022 C 
ATOM     30  C   UNL     1      -3.222 -10.919  16.133  0.00  0.00    +0.002 C 
ATOM     31  C   UNL     1      -4.663 -12.733  15.129  0.00  0.00    +0.002 C 
ATOM     34  C   UNL     1      -3.268 -12.120  15.194  0.00  0.00    +0.000 C 
ENDBRANCH   7  25
ENDBRANCH  22  23
ENDBRANCH  12  22
TORSDOF 7
ENDMDL
MODEL 7
REMARK VINA RESULT:      -6.1     27.878     31.149
REMARK  Name = 11883097
REMARK  9 active torsions:
REMARK  status: ('A' for Active; 'I' for Inactive)
REMARK    1  A    between atoms: O_2  and  C_14
REMARK    2  A    between atoms: O_3  and  C_19
REMARK    3  A    between atoms: N_7  and  C_25
REMARK    4  A    between atoms: C_9  and  C_17
REMARK    5  A    between atoms: C_11  and  C_19
REMARK    6  A    between atoms: C_11  and  C_20
REMARK    7  A    between atoms: C_12  and  C_22
REMARK    8  A    between atoms: C_22  and  C_23
REMARK    9  A    between atoms: C_28  and  C_29
REMARK                            x       y       z     vdW  Elec       q    Type
REMARK                         _______ _______ _______ _____ _____    ______ ____
ROOT
ATOM      1  S   UNL     1      -6.118 -10.227  10.442  0.00  0.00    -0.057 S 
ATOM      5  O   UNL     1     -10.423  -8.590  11.053  0.00  0.00    -0.275 OA
ATOM      6  N   UNL     1      -7.888  -9.557  12.205  0.00  0.00    -0.229 NA
ATOM      8  N   UNL     1      -8.514  -9.316   9.890  0.00  0.00    -0.264 N 
ATOM      9  C   UNL     1      -5.500 -10.897  14.921  0.00  0.00    -0.019 C 
ATOM     10  C   UNL     1      -4.204 -10.525  14.076  0.00  0.00    +0.011 C 
ATOM     11  C   UNL     1      -2.811 -10.973  14.667  0.00  0.00    +0.021 C 
ATOM     12  C   UNL     1      -6.709  -9.995  14.393  0.00  0.00    +0.054 C 
ATOM     13  C   UNL     1      -5.256 -10.560  16.415  0.00  0.00    +0.010 C 
ATOM     14  C   UNL     1      -2.753 -10.603  16.176  0.00  0.00    +0.123 C 
ATOM     15  C   UNL     1      -4.387 -10.874  12.569  0.00  0.00    +0.049 C 
ATOM     16  C   UNL     1      -3.951 -11.115  16.967  0.00  0.00    +0.032 C 
ATOM     17  C   UNL     1      -5.886 -12.392  14.806  0.00  0.00    +0.012 C 
ATOM     18  C   UNL     1      -6.767  -9.994  12.886  0.00  0.00    +0.058 A 
ATOM     20  C   UNL     1      -1.680 -10.182  13.952  0.00  0.00    +0.016 C 
ATOM     21  C   UNL     1      -5.708 -10.376  12.088  0.00  0.00    +0.015 A 
ATOM     24  C   UNL     1      -7.662  -9.642  10.912  0.00  0.00    +0.165 A 
ATOM     29  C   UNL     1      -9.824  -8.818   9.998  0.00  0.00    +0.222 C 
ATOM     39  H   UNL     1      -8.139  -9.459   8.956  0.00  0.00    +0.157 HD
ENDROOT
BRANCH  29  28
ATOM     28  C   UNL     1     -10.494  -8.568   8.631  0.00  0.00    +0.075 C 
ATOM     32  C   UNL     1      -9.847  -7.519   7.704  0.00  0.00    +0.013 C 
ATOM     33  C   UNL     1     -11.763  -7.691   8.612  0.00  0.00    +0.013 C 
ATOM     35  C   UNL     1     -11.276  -7.150   7.252  0.00  0.00    +0.001 C 
ENDBRANCH  29  28
BRANCH  14   2
ATOM      2  O   UNL     1      -1.558 -11.110  16.772  0.00  0.00    -0.391 OA
ATOM     36  H   UNL     1      -0.975 -11.407  16.053  0.00  0.00    +0.210 HD
ENDBRANCH  14   2
BRANCH  11  19
ATOM     19  C   UNL     1      -2.474 -12.465  14.452  0.00  0.00    +0.165 C 
BRANCH  19   3
ATOM      3  O   UNL     1      -1.115 -12.552  14.086  0.00  0.00    -0.394 OA
ATOM     37  H   UNL     1      -0.612 -12.772  14.890  0.00  0.00    +0.209 HD
ENDBRANCH  19   3
ENDBRANCH  11  19
BRANCH  12  22
ATOM     22  C   UNL     1      -8.074 -10.333  15.006  0.00  0.00    +0.106 C 
BRANCH  22  23
ATOM      4  O   UNL     1      -8.025  -9.300  17.194  0.00  0.00    -0.276 OA
ATOM      7  N   UNL     1      -9.451  -8.461  15.561  0.00  0.00    -0.312 N 
ATOM     23  C   UNL     1      -8.488  -9.328  16.057  0.00  0.00    +0.214 C 
ATOM     38  H   UNL     1      -9.720  -8.540  14.584  0.00  0.00    +0.149 HD
BRANCH   7  25
ATOM     25  C   UNL     1     -10.034  -7.396  16.346  0.00  0.00    +0.073 C 
ATOM     26  C   UNL     1     -11.169  -7.923  17.230  0.00  0.00    +0.022 C 
ATOM     27  C   UNL     1     -10.514  -6.248  15.451  0.00  0.00    +0.022 C 
ATOM     30  C   UNL     1     -12.417  -8.287  16.425  0.00  0.00    +0.002 C 
ATOM     31  C   UNL     1     -11.762  -6.616  14.648  0.00  0.00    +0.002 C 
ATOM     34  C   UNL     1     -12.881  -7.127  15.550  0.00  0.00    +0.000 C 
ENDBRANCH   7  25
ENDBRANCH  22  23
ENDBRANCH  12  22
TORSDOF 7
ENDMDL
MODEL 8
REMARK VINA RESULT:      -5.9     15.950     20.142
REMARK  Name = 11883097
REMARK  9 active torsions:
REMARK  status: ('A' for Active; 'I' for Inactive)
REMARK    1  A    between atoms: O_2  and  C_14
REMARK    2  A    between atoms: O_3  and  C_19
REMARK    3  A    between atoms: N_7  and  C_25
REMARK    4  A    between atoms: C_9  and  C_17
REMARK    5  A    between atoms: C_11  and  C_19
REMARK    6  A    between atoms: C_11  and  C_20
REMARK    7  A    between atoms: C_12  and  C_22
REMARK    8  A    between atoms: C_22  and  C_23
REMARK    9  A    between atoms: C_28  and  C_29
REMARK                            x       y       z     vdW  Elec       q    Type
REMARK                         _______ _______ _______ _____ _____    ______ ____
ROOT
ATOM      1  S   UNL     1      18.051   6.255  20.104  0.00  0.00    -0.057 S 
ATOM      5  O   UNL     1      20.923   8.756  22.766  0.00  0.00    -0.275 OA
ATOM      6  N   UNL     1      18.280   8.418  21.505  0.00  0.00    -0.229 NA
ATOM      8  N   UNL     1      20.211   6.979  21.402  0.00  0.00    -0.264 N 
ATOM      9  C   UNL     1      14.786   9.450  20.241  0.00  0.00    -0.019 C 
ATOM     10  C   UNL     1      14.294   7.941  20.128  0.00  0.00    +0.011 C 
ATOM     11  C   UNL     1      12.865   7.698  19.505  0.00  0.00    +0.021 C 
ATOM     12  C   UNL     1      16.010   9.494  21.267  0.00  0.00    +0.054 C 
ATOM     13  C   UNL     1      13.639  10.324  20.812  0.00  0.00    +0.010 C 
ATOM     14  C   UNL     1      11.851   8.684  20.153  0.00  0.00    +0.123 C 
ATOM     15  C   UNL     1      15.402   7.025  19.529  0.00  0.00    +0.049 C 
ATOM     16  C   UNL     1      12.307  10.137  20.100  0.00  0.00    +0.032 C 
ATOM     17  C   UNL     1      15.232  10.042  18.882  0.00  0.00    +0.012 C 
ATOM     18  C   UNL     1      17.004   8.399  20.973  0.00  0.00    +0.058 A 
ATOM     20  C   UNL     1      12.398   6.257  19.856  0.00  0.00    +0.016 C 
ATOM     21  C   UNL     1      16.704   7.292  20.206  0.00  0.00    +0.015 A 
ATOM     24  C   UNL     1      18.923   7.341  21.108  0.00  0.00    +0.165 A 
ATOM     29  C   UNL     1      21.133   7.681  22.197  0.00  0.00    +0.222 C 
ATOM     39  H   UNL     1      20.515   6.101  20.990  0.00  0.00    +0.157 HD
ENDROOT
BRANCH  29  28
ATOM     28  C   UNL     1      22.501   6.976  22.308  0.00  0.00    +0.075 C 
ATOM     32  C   UNL     1      23.016   6.226  21.062  0.00  0.00    +0.013 C 
ATOM     33  C   UNL     1      22.546   5.624  23.047  0.00  0.00    +0.013 C 
ATOM     35  C   UNL     1      23.624   5.191  22.032  0.00  0.00    +0.001 C 
ENDBRANCH  29  28
BRANCH  14   2
ATOM      2  O   UNL     1      10.575   8.579  19.521  0.00  0.00    -0.391 OA
ATOM     36  H   UNL     1       9.938   8.281  20.192  0.00  0.00    +0.210 HD
ENDBRANCH  14   2
BRANCH  11  19
ATOM     19  C   UNL     1      12.813   7.789  17.964  0.00  0.00    +0.165 C 
BRANCH  19   3
ATOM      3  O   UNL     1      11.796   6.921  17.515  0.00  0.00    -0.394 OA
ATOM     37  H   UNL     1      11.816   6.132  18.085  0.00  0.00    +0.209 HD
ENDBRANCH  19   3
ENDBRANCH  11  19
BRANCH  12  22
ATOM     22  C   UNL     1      16.699  10.861  21.381  0.00  0.00    +0.106 C 
BRANCH  22  23
ATOM      4  O   UNL     1      15.643  11.471  23.470  0.00  0.00    -0.276 OA
ATOM      7  N   UNL     1      17.930  11.790  23.205  0.00  0.00    -0.312 N 
ATOM     23  C   UNL     1      16.665  11.397  22.793  0.00  0.00    +0.214 C 
ATOM     38  H   UNL     1      18.716  11.630  22.582  0.00  0.00    +0.149 HD
BRANCH   7  25
ATOM     25  C   UNL     1      18.197  12.344  24.514  0.00  0.00    +0.073 C 
ATOM     26  C   UNL     1      18.191  13.876  24.474  0.00  0.00    +0.022 C 
ATOM     27  C   UNL     1      19.517  11.810  25.081  0.00  0.00    +0.022 C 
ATOM     30  C   UNL     1      19.414  14.449  23.758  0.00  0.00    +0.002 C 
ATOM     31  C   UNL     1      20.738  12.385  24.363  0.00  0.00    +0.002 C 
ATOM     34  C   UNL     1      20.714  13.910  24.346  0.00  0.00    +0.000 C 
ENDBRANCH   7  25
ENDBRANCH  22  23
ENDBRANCH  12  22
TORSDOF 7
ENDMDL
MODEL 9
REMARK VINA RESULT:      -5.9      2.936      7.897
REMARK  Name = 11883097
REMARK  9 active torsions:
REMARK  status: ('A' for Active; 'I' for Inactive)
REMARK    1  A    between atoms: O_2  and  C_14
REMARK    2  A    between atoms: O_3  and  C_19
REMARK    3  A    between atoms: N_7  and  C_25
REMARK    4  A    between atoms: C_9  and  C_17
REMARK    5  A    between atoms: C_11  and  C_19
REMARK    6  A    between atoms: C_11  and  C_20
REMARK    7  A    between atoms: C_12  and  C_22
REMARK    8  A    between atoms: C_22  and  C_23
REMARK    9  A    between atoms: C_28  and  C_29
REMARK                            x       y       z     vdW  Elec       q    Type
REMARK                         _______ _______ _______ _____ _____    ______ ____
ROOT
ATOM      1  S   UNL     1      10.158   4.778   3.143  0.00  0.00    -0.057 S 
ATOM      5  O   UNL     1      12.576   7.453   6.073  0.00  0.00    -0.275 OA
ATOM      6  N   UNL     1      12.326   6.159   3.436  0.00  0.00    -0.229 NA
ATOM      8  N   UNL     1      10.813   6.098   5.312  0.00  0.00    -0.264 N 
ATOM      9  C   UNL     1      13.477   4.838   0.001  0.00  0.00    -0.019 C 
ATOM     10  C   UNL     1      11.986   4.733  -0.547  0.00  0.00    +0.011 C 
ATOM     11  C   UNL     1      11.791   4.094  -1.976  0.00  0.00    +0.021 C 
ATOM     12  C   UNL     1      13.485   5.880   1.212  0.00  0.00    +0.054 C 
ATOM     13  C   UNL     1      14.400   5.384  -1.120  0.00  0.00    +0.010 C 
ATOM     14  C   UNL     1      12.822   4.718  -2.960  0.00  0.00    +0.123 C 
ATOM     15  C   UNL     1      11.022   4.159   0.533  0.00  0.00    +0.049 C 
ATOM     16  C   UNL     1      14.255   4.656  -2.448  0.00  0.00    +0.032 C 
ATOM     17  C   UNL     1      14.036   3.479   0.487  0.00  0.00    +0.012 C 
ATOM     18  C   UNL     1      12.350   5.610   2.167  0.00  0.00    +0.058 A 
ATOM     20  C   UNL     1      10.373   4.453  -2.502  0.00  0.00    +0.016 C 
ATOM     21  C   UNL     1      11.247   4.851   1.835  0.00  0.00    +0.015 A 
ATOM     24  C   UNL     1      11.221   5.782   4.042  0.00  0.00    +0.165 A 
ATOM     29  C   UNL     1      11.488   6.898   6.249  0.00  0.00    +0.222 C 
ATOM     39  H   UNL     1       9.920   5.699   5.587  0.00  0.00    +0.157 HD
ENDROOT
BRANCH  29  28
ATOM     28  C   UNL     1      10.733   7.034   7.588  0.00  0.00    +0.075 C 
ATOM     32  C   UNL     1      10.087   5.761   8.171  0.00  0.00    +0.013 C 
ATOM     33  C   UNL     1       9.316   7.643   7.546  0.00  0.00    +0.013 C 
ATOM     35  C   UNL     1       8.946   6.667   8.682  0.00  0.00    +0.001 C 
ENDBRANCH  29  28
BRANCH  14   2
ATOM      2  O   UNL     1      12.759   4.069  -4.231  0.00  0.00    -0.391 OA
ATOM     36  H   UNL     1      13.498   4.402  -4.768  0.00  0.00    +0.210 HD
ENDBRANCH  14   2
BRANCH  11  19
ATOM     19  C   UNL     1      11.867   2.552  -2.005  0.00  0.00    +0.165 C 
BRANCH  19   3
ATOM      3  O   UNL     1      10.687   2.073  -2.609  0.00  0.00    -0.394 OA
ATOM     37  H   UNL     1      10.507   2.637  -3.381  0.00  0.00    +0.209 HD
ENDBRANCH  19   3
ENDBRANCH  11  19
BRANCH  12  22
ATOM     22  C   UNL     1      14.825   5.989   1.951  0.00  0.00    +0.106 C 
BRANCH  22  23
ATOM      4  O   UNL     1      14.964   8.268   1.151  0.00  0.00    -0.276 OA
ATOM      7  N   UNL     1      16.449   7.533   2.781  0.00  0.00    -0.312 N 
ATOM     23  C   UNL     1      15.392   7.389   1.894  0.00  0.00    +0.214 C 
ATOM     38  H   UNL     1      16.682   6.754   3.390  0.00  0.00    +0.149 HD
BRANCH   7  25
ATOM     25  C   UNL     1      17.184   8.768   2.939  0.00  0.00    +0.073 C 
ATOM     26  C   UNL     1      18.694   8.508   2.973  0.00  0.00    +0.022 C 
ATOM     27  C   UNL     1      16.724   9.529   4.187  0.00  0.00    +0.022 C 
ATOM     30  C   UNL     1      19.144   7.837   4.271  0.00  0.00    +0.002 C 
ATOM     31  C   UNL     1      17.177   8.856   5.483  0.00  0.00    +0.002 C 
ATOM     34  C   UNL     1      18.684   8.617   5.497  0.00  0.00    +0.000 C 
ENDBRANCH   7  25
ENDBRANCH  22  23
ENDBRANCH  12  22
TORSDOF 7
ENDMDL
MODEL 10
REMARK VINA RESULT:      -5.9      2.826      9.007
REMARK  Name = 11883097
REMARK  9 active torsions:
REMARK  status: ('A' for Active; 'I' for Inactive)
REMARK    1  A    between atoms: O_2  and  C_14
REMARK    2  A    between atoms: O_3  and  C_19
REMARK    3  A    between atoms: N_7  and  C_25
REMARK    4  A    between atoms: C_9  and  C_17
REMARK    5  A    between atoms: C_11  and  C_19
REMARK    6  A    between atoms: C_11  and  C_20
REMARK    7  A    between atoms: C_12  and  C_22
REMARK    8  A    between atoms: C_22  and  C_23
REMARK    9  A    between atoms: C_28  and  C_29
REMARK                            x       y       z     vdW  Elec       q    Type
REMARK                         _______ _______ _______ _____ _____    ______ ____
ROOT
ATOM      1  S   UNL     1      16.270   7.137   0.573  0.00  0.00    -0.057 S 
ATOM      5  O   UNL     1      16.140   7.838   5.165  0.00  0.00    -0.275 OA
ATOM      6  N   UNL     1      14.803   6.941   2.695  0.00  0.00    -0.229 NA
ATOM      8  N   UNL     1      17.031   7.815   2.990  0.00  0.00    -0.264 N 
ATOM      9  C   UNL     1      11.869   5.915   0.413  0.00  0.00    -0.019 C 
ATOM     10  C   UNL     1      12.833   5.228  -0.650  0.00  0.00    +0.011 C 
ATOM     11  C   UNL     1      12.168   4.682  -1.973  0.00  0.00    +0.021 C 
ATOM     12  C   UNL     1      12.643   5.984   1.809  0.00  0.00    +0.054 C 
ATOM     13  C   UNL     1      10.602   5.040   0.600  0.00  0.00    +0.010 C 
ATOM     14  C   UNL     1      10.892   3.872  -1.607  0.00  0.00    +0.123 C 
ATOM     15  C   UNL     1      14.110   6.084  -0.898  0.00  0.00    +0.049 C 
ATOM     16  C   UNL     1       9.932   4.638  -0.705  0.00  0.00    +0.032 C 
ATOM     17  C   UNL     1      11.432   7.340  -0.004  0.00  0.00    +0.012 C 
ATOM     18  C   UNL     1      14.049   6.497   1.625  0.00  0.00    +0.058 A 
ATOM     20  C   UNL     1      13.155   3.703  -2.669  0.00  0.00    +0.016 C 
ATOM     21  C   UNL     1      14.693   6.516   0.405  0.00  0.00    +0.015 A 
ATOM     24  C   UNL     1      15.988   7.310   2.258  0.00  0.00    +0.165 A 
ATOM     29  C   UNL     1      17.064   8.052   4.375  0.00  0.00    +0.222 C 
ATOM     39  H   UNL     1      17.864   8.037   2.452  0.00  0.00    +0.157 HD
ENDROOT
BRANCH  29  28
ATOM     28  C   UNL     1      18.407   8.636   4.859  0.00  0.00    +0.075 C 
ATOM     32  C   UNL     1      19.662   7.755   4.699  0.00  0.00    +0.013 C 
ATOM     33  C   UNL     1      18.682   8.621   6.377  0.00  0.00    +0.013 C 
ATOM     35  C   UNL     1      20.162   8.360   6.029  0.00  0.00    +0.001 C 
ENDBRANCH  29  28
BRANCH  14   2
ATOM      2  O   UNL     1      10.195   3.473  -2.788  0.00  0.00    -0.391 OA
ATOM     36  H   UNL     1       9.321   3.145  -2.517  0.00  0.00    +0.210 HD
ENDBRANCH  14   2
BRANCH  11  19
ATOM     19  C   UNL     1      11.849   5.768  -3.024  0.00  0.00    +0.165 C 
BRANCH  19   3
ATOM      3  O   UNL     1      11.999   5.189  -4.301  0.00  0.00    -0.394 OA
ATOM     37  H   UNL     1      11.638   4.286  -4.254  0.00  0.00    +0.209 HD
ENDBRANCH  19   3
ENDBRANCH  11  19
BRANCH  12  22
ATOM     22  C   UNL     1      11.905   6.754   2.912  0.00  0.00    +0.106 C 
BRANCH  22  23
ATOM      4  O   UNL     1      11.049   4.648   3.741  0.00  0.00    -0.276 OA
ATOM      7  N   UNL     1      11.111   6.495   5.151  0.00  0.00    -0.312 N 
ATOM     23  C   UNL     1      11.313   5.829   3.951  0.00  0.00    +0.214 C 
ATOM     38  H   UNL     1      11.420   7.460   5.229  0.00  0.00    +0.149 HD
BRANCH   7  25
ATOM     25  C   UNL     1      10.554   5.858   6.323  0.00  0.00    +0.073 C 
ATOM     26  C   UNL     1       9.036   5.697   6.192  0.00  0.00    +0.022 C 
ATOM     27  C   UNL     1      10.923   6.627   7.597  0.00  0.00    +0.022 C 
ATOM     30  C   UNL     1       8.293   7.028   6.312  0.00  0.00    +0.002 C 
ATOM     31  C   UNL     1      10.177   7.956   7.714  0.00  0.00    +0.002 C 
ATOM     34  C   UNL     1       8.668   7.769   7.591  0.00  0.00    +0.000 C 
ENDBRANCH   7  25
ENDBRANCH  22  23
ENDBRANCH  12  22
TORSDOF 7
ENDMDL
