MODEL 1
REMARK VINA RESULT:      -6.2      0.000      0.000
REMARK  Name = 51137969
REMARK  7 active torsions:
REMARK  status: ('A' for Active; 'I' for Inactive)
REMARK    1  A    between atoms: N_4  and  C_21
REMARK    2  A    between atoms: C_5  and  C_6
REMARK    3  A    between atoms: C_6  and  C_12
REMARK    4  A    between atoms: C_8  and  C_16
REMARK    5  A    between atoms: C_12  and  C_17
REMARK    6  A    between atoms: C_12  and  C_18
REMARK    7  A    between atoms: C_21  and  C_22
REMARK                            x       y       z     vdW  Elec       q    Type
REMARK                         _______ _______ _______ _____ _____    ______ ____
ROOT
ATOM      2  N   UNL     1      -4.553 -10.362  14.924  0.00  0.00    -0.299 NA
ATOM      3  N   UNL     1      -8.360  -9.531  18.136  0.00  0.00    -0.360 N 
ATOM      5  C   UNL     1      -4.258 -11.177  16.110  0.00  0.00    +0.085 C 
ATOM      7  C   UNL     1      -5.177 -10.960  17.316  0.00  0.00    -0.021 A 
ATOM      8  C   UNL     1      -5.847 -10.626  14.310  0.00  0.00    +0.145 C 
ATOM      9  C   UNL     1      -6.449 -10.318  17.274  0.00  0.00    +0.008 A 
ATOM     10  C   UNL     1      -6.903  -9.625  14.775  0.00  0.00    +0.065 C 
ATOM     11  C   UNL     1      -7.238  -9.729  16.226  0.00  0.00    -0.020 A 
ATOM     13  C   UNL     1      -7.198 -10.195  18.450  0.00  0.00    +0.047 A 
ATOM     14  C   UNL     1      -4.789 -11.498  18.570  0.00  0.00    +0.006 A 
ATOM     15  C   UNL     1      -8.397  -9.251  16.802  0.00  0.00    +0.087 A 
ATOM     19  C   UNL     1      -6.777 -10.692  19.685  0.00  0.00    +0.026 A 
ATOM     20  C   UNL     1      -5.561 -11.360  19.722  0.00  0.00    +0.002 A 
ATOM     24  H   UNL     1      -4.438  -9.370  15.126  0.00  0.00    +0.123 HD
ATOM     25  H   UNL     1      -9.089  -9.299  18.797  0.00  0.00    +0.165 HD
ENDROOT
BRANCH   8  16
ATOM      1  O   UNL     1      -6.562 -10.383  12.047  0.00  0.00    -0.274 OA
ATOM      4  N   UNL     1      -4.281 -10.425  12.511  0.00  0.00    -0.303 N 
ATOM     16  C   UNL     1      -5.626 -10.458  12.838  0.00  0.00    +0.231 C 
ATOM     26  H   UNL     1      -3.586 -10.472  13.251  0.00  0.00    +0.150 HD
BRANCH   4  21
ATOM     21  C   UNL     1      -3.801 -10.292  11.155  0.00  0.00    +0.193 C 
BRANCH  21  22
ATOM     22  C   UNL     1      -2.443  -9.747  11.127  0.00  0.00    -0.087 C 
ATOM     23  C   UNL     1      -1.331  -9.298  11.100  0.00  0.00    +0.005 C 
ENDBRANCH  21  22
ENDBRANCH   4  21
ENDBRANCH   8  16
BRANCH   5   6
ATOM      6  C   UNL     1      -2.783 -10.878  16.430  0.00  0.00    +0.026 C 
BRANCH   6  12
ATOM     12  C   UNL     1      -1.945 -10.595  15.180  0.00  0.00    -0.015 C 
ATOM     17  C   UNL     1      -1.505 -11.921  14.556  0.00  0.00    +0.007 C 
ATOM     18  C   UNL     1      -0.719  -9.731  15.476  0.00  0.00    +0.007 C 
ENDBRANCH   6  12
ENDBRANCH   5   6
TORSDOF 5
ENDMDL
MODEL 2
REMARK VINA RESULT:      -6.0     25.395     28.062
REMARK  Name = 51137969
REMARK  7 active torsions:
REMARK  status: ('A' for Active; 'I' for Inactive)
REMARK    1  A    between atoms: N_4  and  C_21
REMARK    2  A    between atoms: C_5  and  C_6
REMARK    3  A    between atoms: C_6  and  C_12
REMARK    4  A    between atoms: C_8  and  C_16
REMARK    5  A    between atoms: C_12  and  C_17
REMARK    6  A    between atoms: C_12  and  C_18
REMARK    7  A    between atoms: C_21  and  C_22
REMARK                            x       y       z     vdW  Elec       q    Type
REMARK                         _______ _______ _______ _____ _____    ______ ____
ROOT
ATOM      2  N   UNL     1      12.629  10.889  21.851  0.00  0.00    -0.299 NA
ATOM      3  N   UNL     1      11.792   6.199  20.176  0.00  0.00    -0.360 N 
ATOM      5  C   UNL     1      12.835  10.943  20.398  0.00  0.00    +0.085 C 
ATOM      7  C   UNL     1      12.819   9.595  19.669  0.00  0.00    -0.021 A 
ATOM      8  C   UNL     1      11.324  10.392  22.262  0.00  0.00    +0.145 C 
ATOM      9  C   UNL     1      12.300   8.380  20.203  0.00  0.00    +0.008 A 
ATOM     10  C   UNL     1      11.374   8.905  22.611  0.00  0.00    +0.065 C 
ATOM     11  C   UNL     1      11.673   8.021  21.447  0.00  0.00    -0.020 A 
ATOM     13  C   UNL     1      12.334   7.217  19.426  0.00  0.00    +0.047 A 
ATOM     14  C   UNL     1      13.282   9.543  18.330  0.00  0.00    +0.006 A 
ATOM     15  C   UNL     1      11.388   6.672  21.389  0.00  0.00    +0.087 A 
ATOM     19  C   UNL     1      12.836   7.176  18.124  0.00  0.00    +0.026 A 
ATOM     20  C   UNL     1      13.300   8.366  17.582  0.00  0.00    +0.002 A 
ATOM     24  H   UNL     1      13.379  10.372  22.307  0.00  0.00    +0.123 HD
ATOM     25  H   UNL     1      11.694   5.242  19.865  0.00  0.00    +0.165 HD
ENDROOT
BRANCH   8  16
ATOM      1  O   UNL     1      11.011  10.667  24.612  0.00  0.00    -0.274 OA
ATOM      4  N   UNL     1      10.602  12.473  23.200  0.00  0.00    -0.303 N 
ATOM     16  C   UNL     1      10.975  11.172  23.493  0.00  0.00    +0.231 C 
ATOM     26  H   UNL     1      10.631  12.795  22.237  0.00  0.00    +0.150 HD
BRANCH   4  21
ATOM     21  C   UNL     1      10.198  13.425  24.208  0.00  0.00    +0.193 C 
BRANCH  21  22
ATOM     22  C   UNL     1       9.426  14.520  23.620  0.00  0.00    -0.087 C 
ATOM     23  C   UNL     1       8.788  15.415  23.137  0.00  0.00    +0.005 C 
ENDBRANCH  21  22
ENDBRANCH   4  21
ENDBRANCH   8  16
BRANCH   5   6
ATOM      6  C   UNL     1      14.167  11.694  20.222  0.00  0.00    +0.026 C 
BRANCH   6  12
ATOM     12  C   UNL     1      15.260  11.203  21.176  0.00  0.00    -0.015 C 
ATOM     17  C   UNL     1      15.987  12.410  21.774  0.00  0.00    +0.007 C 
ATOM     18  C   UNL     1      16.269  10.280  20.492  0.00  0.00    +0.007 C 
ENDBRANCH   6  12
ENDBRANCH   5   6
TORSDOF 5
ENDMDL
MODEL 3
REMARK VINA RESULT:      -6.0     25.055     27.395
REMARK  Name = 51137969
REMARK  7 active torsions:
REMARK  status: ('A' for Active; 'I' for Inactive)
REMARK    1  A    between atoms: N_4  and  C_21
REMARK    2  A    between atoms: C_5  and  C_6
REMARK    3  A    between atoms: C_6  and  C_12
REMARK    4  A    between atoms: C_8  and  C_16
REMARK    5  A    between atoms: C_12  and  C_17
REMARK    6  A    between atoms: C_12  and  C_18
REMARK    7  A    between atoms: C_21  and  C_22
REMARK                            x       y       z     vdW  Elec       q    Type
REMARK                         _______ _______ _______ _____ _____    ______ ____
ROOT
ATOM      2  N   UNL     1      14.192   9.383  19.082  0.00  0.00    -0.299 NA
ATOM      3  N   UNL     1      10.635  10.196  22.572  0.00  0.00    -0.360 N 
ATOM      5  C   UNL     1      13.440   8.125  19.183  0.00  0.00    +0.085 C 
ATOM      7  C   UNL     1      12.410   8.051  20.315  0.00  0.00    -0.021 A 
ATOM      8  C   UNL     1      13.383  10.552  18.768  0.00  0.00    +0.145 C 
ATOM      9  C   UNL     1      11.896   9.171  21.032  0.00  0.00    +0.008 A 
ATOM     10  C   UNL     1      13.014  11.333  20.028  0.00  0.00    +0.065 C 
ATOM     11  C   UNL     1      12.113  10.591  20.958  0.00  0.00    -0.020 A 
ATOM     13  C   UNL     1      10.946   8.967  22.039  0.00  0.00    +0.047 A 
ATOM     14  C   UNL     1      11.854   6.789  20.644  0.00  0.00    +0.006 A 
ATOM     15  C   UNL     1      11.326  11.178  21.927  0.00  0.00    +0.087 A 
ATOM     19  C   UNL     1      10.444   7.710  22.379  0.00  0.00    +0.026 A 
ATOM     20  C   UNL     1      10.906   6.621  21.653  0.00  0.00    +0.002 A 
ATOM     24  H   UNL     1      14.756   9.539  19.916  0.00  0.00    +0.123 HD
ATOM     25  H   UNL     1       9.976  10.348  23.323  0.00  0.00    +0.165 HD
ENDROOT
BRANCH   8  16
ATOM      1  O   UNL     1      15.322  11.860  18.293  0.00  0.00    -0.274 OA
ATOM      4  N   UNL     1      13.687  11.628  16.651  0.00  0.00    -0.303 N 
ATOM     16  C   UNL     1      14.250  11.409  17.897  0.00  0.00    +0.231 C 
ATOM     26  H   UNL     1      12.802  11.186  16.419  0.00  0.00    +0.150 HD
BRANCH   4  21
ATOM     21  C   UNL     1      14.313  12.440  15.633  0.00  0.00    +0.193 C 
BRANCH  21  22
ATOM     22  C   UNL     1      15.333  11.682  14.908  0.00  0.00    -0.087 C 
ATOM     23  C   UNL     1      16.170  11.057  14.318  0.00  0.00    +0.005 C 
ENDBRANCH  21  22
ENDBRANCH   4  21
ENDBRANCH   8  16
BRANCH   5   6
ATOM      6  C   UNL     1      14.520   7.034  19.295  0.00  0.00    +0.026 C 
BRANCH   6  12
ATOM     12  C   UNL     1      15.727   7.471  20.129  0.00  0.00    -0.015 C 
ATOM     17  C   UNL     1      16.951   6.651  19.715  0.00  0.00    +0.007 C 
ATOM     18  C   UNL     1      15.489   7.321  21.632  0.00  0.00    +0.007 C 
ENDBRANCH   6  12
ENDBRANCH   5   6
TORSDOF 5
ENDMDL
MODEL 4
REMARK VINA RESULT:      -6.0     25.232     27.817
REMARK  Name = 51137969
REMARK  7 active torsions:
REMARK  status: ('A' for Active; 'I' for Inactive)
REMARK    1  A    between atoms: N_4  and  C_21
REMARK    2  A    between atoms: C_5  and  C_6
REMARK    3  A    between atoms: C_6  and  C_12
REMARK    4  A    between atoms: C_8  and  C_16
REMARK    5  A    between atoms: C_12  and  C_17
REMARK    6  A    between atoms: C_12  and  C_18
REMARK    7  A    between atoms: C_21  and  C_22
REMARK                            x       y       z     vdW  Elec       q    Type
REMARK                         _______ _______ _______ _____ _____    ______ ____
ROOT
ATOM      2  N   UNL     1      14.983   8.709  20.164  0.00  0.00    -0.299 NA
ATOM      3  N   UNL     1      10.455   7.556  22.078  0.00  0.00    -0.360 N 
ATOM      5  C   UNL     1      14.711   9.731  21.184  0.00  0.00    +0.085 C 
ATOM      7  C   UNL     1      13.305   9.711  21.792  0.00  0.00    -0.021 A 
ATOM      8  C   UNL     1      14.933   7.337  20.648  0.00  0.00    +0.145 C 
ATOM      9  C   UNL     1      12.390   8.621  21.708  0.00  0.00    +0.008 A 
ATOM     10  C   UNL     1      13.578   6.693  20.366  0.00  0.00    +0.065 C 
ATOM     11  C   UNL     1      12.446   7.311  21.117  0.00  0.00    -0.020 A 
ATOM     13  C   UNL     1      11.136   8.726  22.321  0.00  0.00    +0.047 A 
ATOM     14  C   UNL     1      12.885  10.822  22.567  0.00  0.00    +0.006 A 
ATOM     15  C   UNL     1      11.234   6.698  21.360  0.00  0.00    +0.087 A 
ATOM     19  C   UNL     1      10.724   9.848  23.042  0.00  0.00    +0.026 A 
ATOM     20  C   UNL     1      11.628  10.893  23.165  0.00  0.00    +0.002 A 
ATOM     24  H   UNL     1      14.380   8.835  19.352  0.00  0.00    +0.123 HD
ATOM     25  H   UNL     1       9.518   7.357  22.399  0.00  0.00    +0.165 HD
ENDROOT
BRANCH   8  16
ATOM      1  O   UNL     1      15.771   6.130  18.767  0.00  0.00    -0.274 OA
ATOM      4  N   UNL     1      17.188   6.537  20.569  0.00  0.00    -0.303 N 
ATOM     16  C   UNL     1      15.992   6.609  19.876  0.00  0.00    +0.231 C 
ATOM     26  H   UNL     1      17.268   6.991  21.475  0.00  0.00    +0.150 HD
BRANCH   4  21
ATOM     21  C   UNL     1      18.361   5.868  20.054  0.00  0.00    +0.193 C 
BRANCH  21  22
ATOM     22  C   UNL     1      19.585   6.452  20.604  0.00  0.00    -0.087 C 
ATOM     23  C   UNL     1      20.590   6.933  21.050  0.00  0.00    +0.005 C 
ENDBRANCH  21  22
ENDBRANCH   4  21
ENDBRANCH   8  16
BRANCH   5   6
ATOM      6  C   UNL     1      15.037  11.067  20.493  0.00  0.00    +0.026 C 
BRANCH   6  12
ATOM     12  C   UNL     1      14.368  11.211  19.124  0.00  0.00    -0.015 C 
ATOM     17  C   UNL     1      15.424  11.594  18.084  0.00  0.00    +0.007 C 
ATOM     18  C   UNL     1      13.242  12.246  19.123  0.00  0.00    +0.007 C 
ENDBRANCH   6  12
ENDBRANCH   5   6
TORSDOF 5
ENDMDL
MODEL 5
REMARK VINA RESULT:      -5.9     26.151     28.623
REMARK  Name = 51137969
REMARK  7 active torsions:
REMARK  status: ('A' for Active; 'I' for Inactive)
REMARK    1  A    between atoms: N_4  and  C_21
REMARK    2  A    between atoms: C_5  and  C_6
REMARK    3  A    between atoms: C_6  and  C_12
REMARK    4  A    between atoms: C_8  and  C_16
REMARK    5  A    between atoms: C_12  and  C_17
REMARK    6  A    between atoms: C_12  and  C_18
REMARK    7  A    between atoms: C_21  and  C_22
REMARK                            x       y       z     vdW  Elec       q    Type
REMARK                         _______ _______ _______ _____ _____    ______ ____
ROOT
ATOM      2  N   UNL     1      13.901   9.056  20.016  0.00  0.00    -0.299 NA
ATOM      3  N   UNL     1      18.672   8.456  21.557  0.00  0.00    -0.360 N 
ATOM      5  C   UNL     1      14.290   7.707  19.586  0.00  0.00    +0.085 C 
ATOM      7  C   UNL     1      15.767   7.345  19.775  0.00  0.00    -0.021 A 
ATOM      8  C   UNL     1      14.044   9.304  21.443  0.00  0.00    +0.145 C 
ATOM      9  C   UNL     1      16.683   8.046  20.612  0.00  0.00    +0.008 A 
ATOM     10  C   UNL     1      15.360  10.011  21.760  0.00  0.00    +0.065 C 
ATOM     11  C   UNL     1      16.572   9.187  21.481  0.00  0.00    -0.020 A 
ATOM     13  C   UNL     1      18.008   7.604  20.707  0.00  0.00    +0.047 A 
ATOM     14  C   UNL     1      16.268   6.182  19.136  0.00  0.00    +0.006 A 
ATOM     15  C   UNL     1      17.818   9.407  22.032  0.00  0.00    +0.087 A 
ATOM     19  C   UNL     1      18.493   6.481  20.034  0.00  0.00    +0.026 A 
ATOM     20  C   UNL     1      17.594   5.768  19.254  0.00  0.00    +0.002 A 
ATOM     24  H   UNL     1      14.383   9.767  19.469  0.00  0.00    +0.123 HD
ATOM     25  H   UNL     1      19.648   8.377  21.806  0.00  0.00    +0.165 HD
ENDROOT
BRANCH   8  16
ATOM      1  O   UNL     1      12.828  11.357  21.374  0.00  0.00    -0.274 OA
ATOM      4  N   UNL     1      12.004   9.600  22.661  0.00  0.00    -0.303 N 
ATOM     16  C   UNL     1      12.903  10.208  21.802  0.00  0.00    +0.231 C 
ATOM     26  H   UNL     1      12.151   8.633  22.935  0.00  0.00    +0.150 HD
BRANCH   4  21
ATOM     21  C   UNL     1      10.829  10.265  23.175  0.00  0.00    +0.193 C 
BRANCH  21  22
ATOM     22  C   UNL     1      11.166  11.136  24.302  0.00  0.00    -0.087 C 
ATOM     23  C   UNL     1      11.437  11.853  25.225  0.00  0.00    +0.005 C 
ENDBRANCH  21  22
ENDBRANCH   4  21
ENDBRANCH   8  16
BRANCH   5   6
ATOM      6  C   UNL     1      13.846   7.624  18.115  0.00  0.00    +0.026 C 
BRANCH   6  12
ATOM     12  C   UNL     1      13.320   8.956  17.573  0.00  0.00    -0.015 C 
ATOM     17  C   UNL     1      11.889   8.765  17.066  0.00  0.00    +0.007 C 
ATOM     18  C   UNL     1      14.193   9.523  16.454  0.00  0.00    +0.007 C 
ENDBRANCH   6  12
ENDBRANCH   5   6
TORSDOF 5
ENDMDL
MODEL 6
REMARK VINA RESULT:      -5.9      1.873      3.786
REMARK  Name = 51137969
REMARK  7 active torsions:
REMARK  status: ('A' for Active; 'I' for Inactive)
REMARK    1  A    between atoms: N_4  and  C_21
REMARK    2  A    between atoms: C_5  and  C_6
REMARK    3  A    between atoms: C_6  and  C_12
REMARK    4  A    between atoms: C_8  and  C_16
REMARK    5  A    between atoms: C_12  and  C_17
REMARK    6  A    between atoms: C_12  and  C_18
REMARK    7  A    between atoms: C_21  and  C_22
REMARK                            x       y       z     vdW  Elec       q    Type
REMARK                         _______ _______ _______ _____ _____    ______ ____
ROOT
ATOM      2  N   UNL     1      -4.613 -10.599  14.895  0.00  0.00    -0.299 NA
ATOM      3  N   UNL     1      -5.143 -11.831  19.763  0.00  0.00    -0.360 N 
ATOM      5  C   UNL     1      -5.817  -9.894  15.354  0.00  0.00    +0.085 C 
ATOM      7  C   UNL     1      -6.303 -10.250  16.763  0.00  0.00    -0.021 A 
ATOM      8  C   UNL     1      -3.409 -10.309  15.661  0.00  0.00    +0.145 C 
ATOM      9  C   UNL     1      -5.527 -10.917  17.755  0.00  0.00    +0.008 A 
ATOM     10  C   UNL     1      -3.150 -11.376  16.722  0.00  0.00    +0.065 C 
ATOM     11  C   UNL     1      -4.181 -11.421  17.800  0.00  0.00    -0.020 A 
ATOM     13  C   UNL     1      -6.087 -11.171  19.012  0.00  0.00    +0.047 A 
ATOM     14  C   UNL     1      -7.596  -9.825  17.162  0.00  0.00    +0.006 A 
ATOM     15  C   UNL     1      -3.992 -11.981  19.047  0.00  0.00    +0.087 A 
ATOM     19  C   UNL     1      -7.380 -10.785  19.370  0.00  0.00    +0.026 A 
ATOM     20  C   UNL     1      -8.124 -10.094  18.424  0.00  0.00    +0.002 A 
ATOM     24  H   UNL     1      -4.778 -11.602  14.835  0.00  0.00    +0.123 HD
ATOM     25  H   UNL     1      -5.278 -12.143  20.715  0.00  0.00    +0.165 HD
ENDROOT
BRANCH   8  16
ATOM      1  O   UNL     1      -1.117 -10.214  15.001  0.00  0.00    -0.274 OA
ATOM      4  N   UNL     1      -2.753 -10.464  13.364  0.00  0.00    -0.303 N 
ATOM     16  C   UNL     1      -2.292 -10.329  14.662  0.00  0.00    +0.231 C 
ATOM     26  H   UNL     1      -3.750 -10.576  13.198  0.00  0.00    +0.150 HD
BRANCH   4  21
ATOM     21  C   UNL     1      -1.880 -10.489  12.214  0.00  0.00    +0.193 C 
BRANCH  21  22
ATOM     22  C   UNL     1      -2.505  -9.837  11.062  0.00  0.00    -0.087 C 
ATOM     23  C   UNL     1      -3.018  -9.297  10.121  0.00  0.00    +0.005 C 
ENDBRANCH  21  22
ENDBRANCH   4  21
ENDBRANCH   8  16
BRANCH   5   6
ATOM      6  C   UNL     1      -6.874 -10.186  14.274  0.00  0.00    +0.026 C 
BRANCH   6  12
ATOM     12  C   UNL     1      -6.273 -10.329  12.873  0.00  0.00    -0.015 C 
ATOM     17  C   UNL     1      -6.379  -8.991  12.139  0.00  0.00    +0.007 C 
ATOM     18  C   UNL     1      -6.951 -11.425  12.050  0.00  0.00    +0.007 C 
ENDBRANCH   6  12
ENDBRANCH   5   6
TORSDOF 5
ENDMDL
MODEL 7
REMARK VINA RESULT:      -5.7      2.150      6.273
REMARK  Name = 51137969
REMARK  7 active torsions:
REMARK  status: ('A' for Active; 'I' for Inactive)
REMARK    1  A    between atoms: N_4  and  C_21
REMARK    2  A    between atoms: C_5  and  C_6
REMARK    3  A    between atoms: C_6  and  C_12
REMARK    4  A    between atoms: C_8  and  C_16
REMARK    5  A    between atoms: C_12  and  C_17
REMARK    6  A    between atoms: C_12  and  C_18
REMARK    7  A    between atoms: C_21  and  C_22
REMARK                            x       y       z     vdW  Elec       q    Type
REMARK                         _______ _______ _______ _____ _____    ______ ____
ROOT
ATOM      2  N   UNL     1      -6.641  -9.451  14.150  0.00  0.00    -0.299 NA
ATOM      3  N   UNL     1      -2.188 -11.248  15.712  0.00  0.00    -0.360 N 
ATOM      5  C   UNL     1      -5.970  -9.952  12.943  0.00  0.00    +0.085 C 
ATOM      7  C   UNL     1      -4.512 -10.388  13.122  0.00  0.00    -0.021 A 
ATOM      8  C   UNL     1      -6.797 -10.433  15.212  0.00  0.00    +0.145 C 
ATOM      9  C   UNL     1      -3.885 -10.662  14.372  0.00  0.00    +0.008 A 
ATOM     10  C   UNL     1      -5.689 -10.310  16.256  0.00  0.00    +0.065 C 
ATOM     11  C   UNL     1      -4.330 -10.647  15.739  0.00  0.00    -0.020 A 
ATOM     13  C   UNL     1      -2.545 -11.066  14.396  0.00  0.00    +0.047 A 
ATOM     14  C   UNL     1      -3.726 -10.616  11.964  0.00  0.00    +0.006 A 
ATOM     15  C   UNL     1      -3.255 -11.004  16.526  0.00  0.00    +0.087 A 
ATOM     19  C   UNL     1      -1.774 -11.242  13.246  0.00  0.00    +0.026 A 
ATOM     20  C   UNL     1      -2.393 -11.021  12.024  0.00  0.00    +0.002 A 
ATOM     24  H   UNL     1      -6.189  -8.605  14.494  0.00  0.00    +0.123 HD
ATOM     25  H   UNL     1      -1.273 -11.536  16.027  0.00  0.00    +0.165 HD
ENDROOT
BRANCH   8  16
ATOM      1  O   UNL     1      -9.066 -10.887  15.797  0.00  0.00    -0.274 OA
ATOM      4  N   UNL     1      -8.108  -8.874  16.470  0.00  0.00    -0.303 N 
ATOM     16  C   UNL     1      -8.113 -10.114  15.854  0.00  0.00    +0.231 C 
ATOM     26  H   UNL     1      -7.254  -8.325  16.477  0.00  0.00    +0.150 HD
BRANCH   4  21
ATOM     21  C   UNL     1      -9.261  -8.321  17.142  0.00  0.00    +0.193 C 
BRANCH  21  22
ATOM     22  C   UNL     1      -9.962  -7.364  16.286  0.00  0.00    -0.087 C 
ATOM     23  C   UNL     1     -10.540  -6.577  15.588  0.00  0.00    +0.005 C 
ENDBRANCH  21  22
ENDBRANCH   4  21
ENDBRANCH   8  16
BRANCH   5   6
ATOM      6  C   UNL     1      -6.126  -8.820  11.912  0.00  0.00    +0.026 C 
BRANCH   6  12
ATOM     12  C   UNL     1      -6.926  -9.243  10.677  0.00  0.00    -0.015 C 
ATOM     17  C   UNL     1      -7.365 -10.701  10.834  0.00  0.00    +0.007 C 
ATOM     18  C   UNL     1      -6.135  -9.079   9.378  0.00  0.00    +0.007 C 
ENDBRANCH   6  12
ENDBRANCH   5   6
TORSDOF 5
ENDMDL
MODEL 8
REMARK VINA RESULT:      -5.6      2.290      6.190
REMARK  Name = 51137969
REMARK  7 active torsions:
REMARK  status: ('A' for Active; 'I' for Inactive)
REMARK    1  A    between atoms: N_4  and  C_21
REMARK    2  A    between atoms: C_5  and  C_6
REMARK    3  A    between atoms: C_6  and  C_12
REMARK    4  A    between atoms: C_8  and  C_16
REMARK    5  A    between atoms: C_12  and  C_17
REMARK    6  A    between atoms: C_12  and  C_18
REMARK    7  A    between atoms: C_21  and  C_22
REMARK                            x       y       z     vdW  Elec       q    Type
REMARK                         _______ _______ _______ _____ _____    ______ ____
ROOT
ATOM      2  N   UNL     1      -3.515 -11.615  14.311  0.00  0.00    -0.299 NA
ATOM      3  N   UNL     1      -6.706  -8.952  11.443  0.00  0.00    -0.360 N 
ATOM      5  C   UNL     1      -2.691 -11.008  13.258  0.00  0.00    +0.085 C 
ATOM      7  C   UNL     1      -3.455 -10.290  12.141  0.00  0.00    -0.021 A 
ATOM      8  C   UNL     1      -4.290 -10.667  15.100  0.00  0.00    +0.145 C 
ATOM      9  C   UNL     1      -4.818  -9.880  12.212  0.00  0.00    +0.008 A 
ATOM     10  C   UNL     1      -5.725 -10.555  14.589  0.00  0.00    +0.065 C 
ATOM     11  C   UNL     1      -5.837  -9.963  13.224  0.00  0.00    -0.020 A 
ATOM     13  C   UNL     1      -5.396  -9.219  11.122  0.00  0.00    +0.047 A 
ATOM     14  C   UNL     1      -2.753  -9.927  10.964  0.00  0.00    +0.006 A 
ATOM     15  C   UNL     1      -6.980  -9.391  12.705  0.00  0.00    +0.087 A 
ATOM     19  C   UNL     1      -4.700  -8.911   9.952  0.00  0.00    +0.026 A 
ATOM     20  C   UNL     1      -3.359  -9.267   9.896  0.00  0.00    +0.002 A 
ATOM     24  H   UNL     1      -4.110 -12.350  13.931  0.00  0.00    +0.123 HD
ATOM     25  H   UNL     1      -7.365  -8.485  10.837  0.00  0.00    +0.165 HD
ENDROOT
BRANCH   8  16
ATOM      1  O   UNL     1      -3.324 -11.169  17.224  0.00  0.00    -0.274 OA
ATOM      4  N   UNL     1      -5.518 -11.824  16.799  0.00  0.00    -0.303 N 
ATOM     16  C   UNL     1      -4.306 -11.231  16.488  0.00  0.00    +0.231 C 
ATOM     26  H   UNL     1      -6.274 -11.797  16.121  0.00  0.00    +0.150 HD
BRANCH   4  21
ATOM     21  C   UNL     1      -5.784 -12.461  18.068  0.00  0.00    +0.193 C 
BRANCH  21  22
ATOM     22  C   UNL     1      -6.068 -11.470  19.106  0.00  0.00    -0.087 C 
ATOM     23  C   UNL     1      -6.305 -10.654  19.954  0.00  0.00    +0.005 C 
ENDBRANCH  21  22
ENDBRANCH   4  21
ENDBRANCH   8  16
BRANCH   5   6
ATOM      6  C   UNL     1      -1.820 -12.162  12.731  0.00  0.00    +0.026 C 
BRANCH   6  12
ATOM     12  C   UNL     1      -2.518 -13.523  12.815  0.00  0.00    -0.015 C 
ATOM     17  C   UNL     1      -1.508 -14.582  13.263  0.00  0.00    +0.007 C 
ATOM     18  C   UNL     1      -3.152 -13.943  11.488  0.00  0.00    +0.007 C 
ENDBRANCH   6  12
ENDBRANCH   5   6
TORSDOF 5
ENDMDL
MODEL 9
REMARK VINA RESULT:      -5.6     26.022     28.978
REMARK  Name = 51137969
REMARK  7 active torsions:
REMARK  status: ('A' for Active; 'I' for Inactive)
REMARK    1  A    between atoms: N_4  and  C_21
REMARK    2  A    between atoms: C_5  and  C_6
REMARK    3  A    between atoms: C_6  and  C_12
REMARK    4  A    between atoms: C_8  and  C_16
REMARK    5  A    between atoms: C_12  and  C_17
REMARK    6  A    between atoms: C_12  and  C_18
REMARK    7  A    between atoms: C_21  and  C_22
REMARK                            x       y       z     vdW  Elec       q    Type
REMARK                         _______ _______ _______ _____ _____    ______ ____
ROOT
ATOM      2  N   UNL     1      14.664   9.503  20.244  0.00  0.00    -0.299 NA
ATOM      3  N   UNL     1      19.286   7.927  21.529  0.00  0.00    -0.360 N 
ATOM      5  C   UNL     1      14.755   8.115  19.774  0.00  0.00    +0.085 C 
ATOM      7  C   UNL     1      16.138   7.462  19.881  0.00  0.00    -0.021 A 
ATOM      8  C   UNL     1      14.922   9.682  21.666  0.00  0.00    +0.145 C 
ATOM      9  C   UNL     1      17.214   7.945  20.681  0.00  0.00    +0.008 A 
ATOM     10  C   UNL     1      16.366  10.105  21.925  0.00  0.00    +0.065 C 
ATOM     11  C   UNL     1      17.374   9.063  21.572  0.00  0.00    -0.020 A 
ATOM     13  C   UNL     1      18.426   7.246  20.700  0.00  0.00    +0.047 A 
ATOM     14  C   UNL     1      16.365   6.239  19.200  0.00  0.00    +0.006 A 
ATOM     15  C   UNL     1      18.663   9.017  22.061  0.00  0.00    +0.087 A 
ATOM     19  C   UNL     1      18.645   6.067  19.986  0.00  0.00    +0.026 A 
ATOM     20  C   UNL     1      17.585   5.566  19.242  0.00  0.00    +0.002 A 
ATOM     24  H   UNL     1      15.253  10.118  19.684  0.00  0.00    +0.123 HD
ATOM     25  H   UNL     1      20.238   7.649  21.726  0.00  0.00    +0.165 HD
ENDROOT
BRANCH   8  16
ATOM      1  O   UNL     1      14.149  11.368  23.167  0.00  0.00    -0.274 OA
ATOM      4  N   UNL     1      13.002  11.025  21.171  0.00  0.00    -0.303 N 
ATOM     16  C   UNL     1      14.003  10.785  22.096  0.00  0.00    +0.231 C 
ATOM     26  H   UNL     1      12.989  10.497  20.302  0.00  0.00    +0.150 HD
BRANCH   4  21
ATOM     21  C   UNL     1      11.975  12.023  21.358  0.00  0.00    +0.193 C 
BRANCH  21  22
ATOM     22  C   UNL     1      12.192  13.174  20.481  0.00  0.00    -0.087 C 
ATOM     23  C   UNL     1      12.376  14.117  19.762  0.00  0.00    +0.005 C 
ENDBRANCH  21  22
ENDBRANCH   4  21
ENDBRANCH   8  16
BRANCH   5   6
ATOM      6  C   UNL     1      14.234   8.159  18.326  0.00  0.00    +0.026 C 
BRANCH   6  12
ATOM     12  C   UNL     1      12.863   7.497  18.164  0.00  0.00    -0.015 C 
ATOM     17  C   UNL     1      11.828   8.564  17.799  0.00  0.00    +0.007 C 
ATOM     18  C   UNL     1      12.416   6.753  19.423  0.00  0.00    +0.007 C 
ENDBRANCH   6  12
ENDBRANCH   5   6
TORSDOF 5
ENDMDL
MODEL 10
REMARK VINA RESULT:      -5.6     15.101     18.515
REMARK  Name = 51137969
REMARK  7 active torsions:
REMARK  status: ('A' for Active; 'I' for Inactive)
REMARK    1  A    between atoms: N_4  and  C_21
REMARK    2  A    between atoms: C_5  and  C_6
REMARK    3  A    between atoms: C_6  and  C_12
REMARK    4  A    between atoms: C_8  and  C_16
REMARK    5  A    between atoms: C_12  and  C_17
REMARK    6  A    between atoms: C_12  and  C_18
REMARK    7  A    between atoms: C_21  and  C_22
REMARK                            x       y       z     vdW  Elec       q    Type
REMARK                         _______ _______ _______ _____ _____    ______ ____
ROOT
ATOM      2  N   UNL     1       2.312 -14.000  -1.990  0.00  0.00    -0.299 NA
ATOM      3  N   UNL     1      -1.860 -13.764   0.846  0.00  0.00    -0.360 N 
ATOM      5  C   UNL     1       2.653 -14.665  -0.725  0.00  0.00    +0.085 C 
ATOM      7  C   UNL     1       1.603 -14.566   0.387  0.00  0.00    -0.021 A 
ATOM      8  C   UNL     1       1.157 -14.558  -2.679  0.00  0.00    +0.145 C 
ATOM      9  C   UNL     1       0.239 -14.198   0.197  0.00  0.00    +0.008 A 
ATOM     10  C   UNL     1      -0.113 -13.765  -2.376  0.00  0.00    +0.065 C 
ATOM     11  C   UNL     1      -0.551 -13.846  -0.951  0.00  0.00    -0.020 A 
ATOM     13  C   UNL     1      -0.623 -14.158   1.299  0.00  0.00    +0.047 A 
ATOM     14  C   UNL     1       1.974 -14.937   1.704  0.00  0.00    +0.006 A 
ATOM     15  C   UNL     1      -1.829 -13.578  -0.505  0.00  0.00    +0.087 A 
ATOM     19  C   UNL     1      -0.227 -14.483   2.597  0.00  0.00    +0.026 A 
ATOM     20  C   UNL     1       1.088 -14.887   2.780  0.00  0.00    +0.002 A 
ATOM     24  H   UNL     1       2.211 -12.995  -1.858  0.00  0.00    +0.123 HD
ATOM     25  H   UNL     1      -2.677 -13.645   1.429  0.00  0.00    +0.165 HD
ENDROOT
BRANCH   8  16
ATOM      1  O   UNL     1       0.659 -14.746  -5.005  0.00  0.00    -0.274 OA
ATOM      4  N   UNL     1       2.760 -13.977  -4.359  0.00  0.00    -0.303 N 
ATOM     16  C   UNL     1       1.473 -14.438  -4.138  0.00  0.00    +0.231 C 
ATOM     26  H   UNL     1       3.343 -13.728  -3.566  0.00  0.00    +0.150 HD
BRANCH   4  21
ATOM     21  C   UNL     1       3.318 -13.794  -5.679  0.00  0.00    +0.193 C 
BRANCH  21  22
ATOM     22  C   UNL     1       2.817 -12.566  -6.298  0.00  0.00    -0.087 C 
ATOM     23  C   UNL     1       2.406 -11.561  -6.810  0.00  0.00    +0.005 C 
ENDBRANCH  21  22
ENDBRANCH   4  21
ENDBRANCH   8  16
BRANCH   5   6
ATOM      6  C   UNL     1       4.005 -14.054  -0.317  0.00  0.00    +0.026 C 
BRANCH   6  12
ATOM     12  C   UNL     1       5.142 -15.080  -0.297  0.00  0.00    -0.015 C 
ATOM     17  C   UNL     1       4.799 -16.232  -1.244  0.00  0.00    +0.007 C 
ATOM     18  C   UNL     1       5.418 -15.627   1.104  0.00  0.00    +0.007 C 
ENDBRANCH   6  12
ENDBRANCH   5   6
TORSDOF 5
ENDMDL
