MODEL 1
REMARK VINA RESULT:      -6.8      0.000      0.000
REMARK  Name = 56775489
REMARK  8 active torsions:
REMARK  status: ('A' for Active; 'I' for Inactive)
REMARK    1  A    between atoms: O_4  and  C_19
REMARK    2  A    between atoms: O_4  and  C_27
REMARK    3  A    between atoms: N_5  and  C_7
REMARK    4  A    between atoms: N_5  and  C_11
REMARK    5  A    between atoms: C_7  and  C_10
REMARK    6  A    between atoms: C_10  and  C_12
REMARK    7  A    between atoms: C_11  and  C_13
REMARK    8  A    between atoms: C_15  and  C_18
REMARK                            x       y       z     vdW  Elec       q    Type
REMARK                         _______ _______ _______ _____ _____    ______ ____
ROOT
ATOM      2  O   UNL     1      11.039   6.777  20.977  0.00  0.00    -0.376 OA
ATOM      7  C   UNL     1      12.571   8.263  21.031  0.00  0.00    +0.072 C 
ATOM      8  C   UNL     1      12.464   6.755  21.223  0.00  0.00    +0.184 C 
ATOM      9  C   UNL     1      11.086   8.194  20.689  0.00  0.00    +0.184 C 
ENDROOT
BRANCH   7   5
ATOM      5  N   UNL     1      12.722   8.893  22.335  0.00  0.00    -0.302 NA
ATOM     28  H   UNL     1      13.265   8.360  23.013  0.00  0.00    +0.123 HD
BRANCH   5  11
ATOM     11  C   UNL     1      13.302  10.225  22.177  0.00  0.00    +0.117 C 
BRANCH  11  13
ATOM     13  C   UNL     1      12.326  11.309  22.553  0.00  0.00    -0.030 A 
ATOM     16  C   UNL     1      11.986  11.509  23.890  0.00  0.00    +0.050 A 
ATOM     17  C   UNL     1      11.762  12.112  21.562  0.00  0.00    +0.005 A 
ATOM     19  C   UNL     1      11.082  12.513  24.238  0.00  0.00    +0.120 A 
ATOM     20  C   UNL     1      10.857  13.115  21.909  0.00  0.00    +0.004 A 
ATOM     21  C   UNL     1      10.517  13.315  23.247  0.00  0.00    +0.045 A 
BRANCH  19   4
ATOM      4  O   UNL     1      10.751  12.708  25.543  0.00  0.00    -0.495 OA
ATOM     27  C   UNL     1      10.625  14.059  25.986  0.00  0.00    +0.277 C 
ENDBRANCH  19   4
ENDBRANCH  11  13
ENDBRANCH   5  11
ENDBRANCH   7   5
BRANCH   7  10
ATOM     10  C   UNL     1      13.549   8.814  19.984  0.00  0.00    +0.085 C 
BRANCH  10  12
ATOM      3  O   UNL     1      16.185   6.524  19.231  0.00  0.00    -0.354 OA
ATOM      6  N   UNL     1      14.935   7.080  18.989  0.00  0.00    -0.083 NA
ATOM     12  C   UNL     1      14.782   8.011  19.935  0.00  0.00    +0.086 A 
ATOM     14  C   UNL     1      15.891   8.087  20.795  0.00  0.00    +0.076 A 
ATOM     15  C   UNL     1      16.744   7.131  20.308  0.00  0.00    +0.167 A 
BRANCH  15  18
ATOM      1  F   UNL     1      21.807   5.306  21.751  0.00  0.00    -0.205 F 
ATOM     18  C   UNL     1      18.055   6.658  20.682  0.00  0.00    +0.020 A 
ATOM     22  C   UNL     1      18.695   7.189  21.802  0.00  0.00    +0.014 A 
ATOM     23  C   UNL     1      18.683   5.670  19.923  0.00  0.00    +0.014 A 
ATOM     24  C   UNL     1      19.963   6.732  22.164  0.00  0.00    +0.039 A 
ATOM     25  C   UNL     1      19.950   5.213  20.284  0.00  0.00    +0.039 A 
ATOM     26  C   UNL     1      20.589   5.744  21.405  0.00  0.00    +0.123 A 
ENDBRANCH  15  18
ENDBRANCH  10  12
ENDBRANCH   7  10
TORSDOF 7
ENDMDL
MODEL 2
REMARK VINA RESULT:      -6.6      1.748      2.374
REMARK  Name = 56775489
REMARK  8 active torsions:
REMARK  status: ('A' for Active; 'I' for Inactive)
REMARK    1  A    between atoms: O_4  and  C_19
REMARK    2  A    between atoms: O_4  and  C_27
REMARK    3  A    between atoms: N_5  and  C_7
REMARK    4  A    between atoms: N_5  and  C_11
REMARK    5  A    between atoms: C_7  and  C_10
REMARK    6  A    between atoms: C_10  and  C_12
REMARK    7  A    between atoms: C_11  and  C_13
REMARK    8  A    between atoms: C_15  and  C_18
REMARK                            x       y       z     vdW  Elec       q    Type
REMARK                         _______ _______ _______ _____ _____    ______ ____
ROOT
ATOM      2  O   UNL     1      13.428   8.085  16.880  0.00  0.00    -0.376 OA
ATOM      7  C   UNL     1      12.717   7.958  18.888  0.00  0.00    +0.072 C 
ATOM      8  C   UNL     1      12.390   7.325  17.541  0.00  0.00    +0.184 C 
ATOM      9  C   UNL     1      13.851   8.652  18.141  0.00  0.00    +0.184 C 
ENDROOT
BRANCH   7   5
ATOM      5  N   UNL     1      11.693   8.944  19.204  0.00  0.00    -0.302 NA
ATOM     28  H   UNL     1      10.875   8.931  18.595  0.00  0.00    +0.123 HD
BRANCH   5  11
ATOM     11  C   UNL     1      11.273   8.793  20.596  0.00  0.00    +0.117 C 
BRANCH  11  13
ATOM     13  C   UNL     1      11.511  10.049  21.392  0.00  0.00    -0.030 A 
ATOM     16  C   UNL     1      10.937  10.194  22.655  0.00  0.00    +0.050 A 
ATOM     17  C   UNL     1      12.303  11.068  20.865  0.00  0.00    +0.005 A 
ATOM     19  C   UNL     1      11.158  11.357  23.392  0.00  0.00    +0.120 A 
ATOM     20  C   UNL     1      12.523  12.232  21.601  0.00  0.00    +0.004 A 
ATOM     21  C   UNL     1      11.950  12.377  22.864  0.00  0.00    +0.045 A 
BRANCH  19   4
ATOM      4  O   UNL     1      10.598  11.498  24.624  0.00  0.00    -0.495 OA
ATOM     27  C   UNL     1      10.636  12.799  25.209  0.00  0.00    +0.277 C 
ENDBRANCH  19   4
ENDBRANCH  11  13
ENDBRANCH   5  11
ENDBRANCH   7   5
BRANCH   7  10
ATOM     10  C   UNL     1      13.057   7.047  20.076  0.00  0.00    +0.085 C 
BRANCH  10  12
ATOM      3  O   UNL     1      16.026   8.192  21.697  0.00  0.00    -0.354 OA
ATOM      6  N   UNL     1      14.654   8.229  21.478  0.00  0.00    -0.083 NA
ATOM     12  C   UNL     1      14.427   7.289  20.556  0.00  0.00    +0.086 A 
ATOM     14  C   UNL     1      15.605   6.633  20.159  0.00  0.00    +0.076 A 
ATOM     15  C   UNL     1      16.581   7.239  20.907  0.00  0.00    +0.167 A 
BRANCH  15  18
ATOM      1  F   UNL     1      22.099   6.626  21.370  0.00  0.00    -0.205 F 
ATOM     18  C   UNL     1      18.010   7.080  21.025  0.00  0.00    +0.020 A 
ATOM     22  C   UNL     1      18.643   5.992  20.426  0.00  0.00    +0.014 A 
ATOM     23  C   UNL     1      18.758   8.015  21.741  0.00  0.00    +0.014 A 
ATOM     24  C   UNL     1      20.025   5.838  20.542  0.00  0.00    +0.039 A 
ATOM     25  C   UNL     1      20.139   7.862  21.857  0.00  0.00    +0.039 A 
ATOM     26  C   UNL     1      20.773   6.774  21.257  0.00  0.00    +0.123 A 
ENDBRANCH  15  18
ENDBRANCH  10  12
ENDBRANCH   7  10
TORSDOF 7
ENDMDL
MODEL 3
REMARK VINA RESULT:      -6.3     27.348     29.118
REMARK  Name = 56775489
REMARK  8 active torsions:
REMARK  status: ('A' for Active; 'I' for Inactive)
REMARK    1  A    between atoms: O_4  and  C_19
REMARK    2  A    between atoms: O_4  and  C_27
REMARK    3  A    between atoms: N_5  and  C_7
REMARK    4  A    between atoms: N_5  and  C_11
REMARK    5  A    between atoms: C_7  and  C_10
REMARK    6  A    between atoms: C_10  and  C_12
REMARK    7  A    between atoms: C_11  and  C_13
REMARK    8  A    between atoms: C_15  and  C_18
REMARK                            x       y       z     vdW  Elec       q    Type
REMARK                         _______ _______ _______ _____ _____    ______ ____
ROOT
ATOM      2  O   UNL     1      -2.003 -14.130  13.915  0.00  0.00    -0.376 OA
ATOM      7  C   UNL     1      -2.063 -12.050  13.438  0.00  0.00    +0.072 C 
ATOM      8  C   UNL     1      -3.051 -13.135  13.849  0.00  0.00    +0.184 C 
ATOM      9  C   UNL     1      -1.001 -13.129  13.620  0.00  0.00    +0.184 C 
ENDROOT
BRANCH   7   5
ATOM      5  N   UNL     1      -2.223 -11.786  12.015  0.00  0.00    -0.302 NA
ATOM     28  H   UNL     1      -3.079 -12.150  11.599  0.00  0.00    +0.123 HD
BRANCH   5  11
ATOM     11  C   UNL     1      -2.125 -10.350  11.764  0.00  0.00    +0.117 C 
BRANCH  11  13
ATOM     13  C   UNL     1      -3.367  -9.810  11.106  0.00  0.00    -0.030 A 
ATOM     16  C   UNL     1      -4.598  -9.904  11.755  0.00  0.00    +0.050 A 
ATOM     17  C   UNL     1      -3.287  -9.216   9.847  0.00  0.00    +0.005 A 
ATOM     19  C   UNL     1      -5.749  -9.404  11.146  0.00  0.00    +0.120 A 
ATOM     20  C   UNL     1      -4.437  -8.716   9.237  0.00  0.00    +0.004 A 
ATOM     21  C   UNL     1      -5.668  -8.811   9.886  0.00  0.00    +0.045 A 
BRANCH  19   4
ATOM      4  O   UNL     1      -6.949  -9.497  11.779  0.00  0.00    -0.495 OA
ATOM     27  C   UNL     1      -6.924  -9.776  13.179  0.00  0.00    +0.277 C 
ENDBRANCH  19   4
ENDBRANCH  11  13
ENDBRANCH   5  11
ENDBRANCH   7   5
BRANCH   7  10
ATOM     10  C   UNL     1      -1.972 -10.768  14.277  0.00  0.00    +0.085 C 
BRANCH  10  12
ATOM      3  O   UNL     1      -3.367 -11.133  17.544  0.00  0.00    -0.354 OA
ATOM      6  N   UNL     1      -2.296 -11.133  16.659  0.00  0.00    -0.083 NA
ATOM     12  C   UNL     1      -2.832 -10.851  15.468  0.00  0.00    +0.086 A 
ATOM     14  C   UNL     1      -4.223 -10.664  15.539  0.00  0.00    +0.076 A 
ATOM     15  C   UNL     1      -4.509 -10.852  16.866  0.00  0.00    +0.167 A 
BRANCH  15  18
ATOM      1  F   UNL     1      -9.162 -10.703  19.927  0.00  0.00    -0.205 F 
ATOM     18  C   UNL     1      -5.714 -10.815  17.658  0.00  0.00    +0.020 A 
ATOM     22  C   UNL     1      -6.863 -10.209  17.150  0.00  0.00    +0.014 A 
ATOM     23  C   UNL     1      -5.729 -11.382  18.933  0.00  0.00    +0.014 A 
ATOM     24  C   UNL     1      -8.029 -10.172  17.917  0.00  0.00    +0.039 A 
ATOM     25  C   UNL     1      -6.893 -11.345  19.699  0.00  0.00    +0.039 A 
ATOM     26  C   UNL     1      -8.044 -10.740  19.190  0.00  0.00    +0.123 A 
ENDBRANCH  15  18
ENDBRANCH  10  12
ENDBRANCH   7  10
TORSDOF 7
ENDMDL
MODEL 4
REMARK VINA RESULT:      -6.2     27.638     31.294
REMARK  Name = 56775489
REMARK  8 active torsions:
REMARK  status: ('A' for Active; 'I' for Inactive)
REMARK    1  A    between atoms: O_4  and  C_19
REMARK    2  A    between atoms: O_4  and  C_27
REMARK    3  A    between atoms: N_5  and  C_7
REMARK    4  A    between atoms: N_5  and  C_11
REMARK    5  A    between atoms: C_7  and  C_10
REMARK    6  A    between atoms: C_10  and  C_12
REMARK    7  A    between atoms: C_11  and  C_13
REMARK    8  A    between atoms: C_15  and  C_18
REMARK                            x       y       z     vdW  Elec       q    Type
REMARK                         _______ _______ _______ _____ _____    ______ ____
ROOT
ATOM      2  O   UNL     1      -8.935 -11.101  13.515  0.00  0.00    -0.376 OA
ATOM      7  C   UNL     1      -9.153  -9.726  15.133  0.00  0.00    +0.072 C 
ATOM      8  C   UNL     1      -9.228  -9.687  13.611  0.00  0.00    +0.184 C 
ATOM      9  C   UNL     1      -8.943 -11.226  14.955  0.00  0.00    +0.184 C 
ENDROOT
BRANCH   7   5
ATOM      5  N   UNL     1      -7.897  -9.124  15.557  0.00  0.00    -0.302 NA
ATOM     28  H   UNL     1      -7.777  -8.145  15.301  0.00  0.00    +0.123 HD
BRANCH   5  11
ATOM     11  C   UNL     1      -7.735  -9.280  17.000  0.00  0.00    +0.117 C 
BRANCH  11  13
ATOM     13  C   UNL     1      -6.466 -10.014  17.346  0.00  0.00    -0.030 A 
ATOM     16  C   UNL     1      -5.462 -10.162  16.389  0.00  0.00    +0.050 A 
ATOM     17  C   UNL     1      -6.295 -10.546  18.624  0.00  0.00    +0.005 A 
ATOM     19  C   UNL     1      -4.287 -10.842  16.709  0.00  0.00    +0.120 A 
ATOM     20  C   UNL     1      -5.120 -11.226  18.944  0.00  0.00    +0.004 A 
ATOM     21  C   UNL     1      -4.117 -11.375  17.987  0.00  0.00    +0.045 A 
BRANCH  19   4
ATOM      4  O   UNL     1      -3.309 -10.986  15.775  0.00  0.00    -0.495 OA
ATOM     27  C   UNL     1      -1.974 -10.686  16.182  0.00  0.00    +0.277 C 
ENDBRANCH  19   4
ENDBRANCH  11  13
ENDBRANCH   5  11
ENDBRANCH   7   5
BRANCH   7  10
ATOM     10  C   UNL     1     -10.356  -9.235  15.951  0.00  0.00    +0.085 C 
BRANCH  10  12
ATOM      3  O   UNL     1     -10.897  -5.793  15.170  0.00  0.00    -0.354 OA
ATOM      6  N   UNL     1     -10.189  -6.815  15.789  0.00  0.00    -0.083 NA
ATOM     12  C   UNL     1     -10.838  -7.935  15.459  0.00  0.00    +0.086 A 
ATOM     14  C   UNL     1     -11.953  -7.685  14.641  0.00  0.00    +0.076 A 
ATOM     15  C   UNL     1     -11.945  -6.322  14.489  0.00  0.00    +0.167 A 
BRANCH  15  18
ATOM      1  F   UNL     1     -15.162  -2.672  11.774  0.00  0.00    -0.205 F 
ATOM     18  C   UNL     1     -12.778  -5.376  13.787  0.00  0.00    +0.020 A 
ATOM     22  C   UNL     1     -14.167  -5.473  13.873  0.00  0.00    +0.014 A 
ATOM     23  C   UNL     1     -12.195  -4.367  13.021  0.00  0.00    +0.014 A 
ATOM     24  C   UNL     1     -14.973  -4.559  13.192  0.00  0.00    +0.039 A 
ATOM     25  C   UNL     1     -13.000  -3.454  12.342  0.00  0.00    +0.039 A 
ATOM     26  C   UNL     1     -14.389  -3.549  12.428  0.00  0.00    +0.123 A 
ENDBRANCH  15  18
ENDBRANCH  10  12
ENDBRANCH   7  10
TORSDOF 7
ENDMDL
MODEL 5
REMARK VINA RESULT:      -6.2     27.650     29.422
REMARK  Name = 56775489
REMARK  8 active torsions:
REMARK  status: ('A' for Active; 'I' for Inactive)
REMARK    1  A    between atoms: O_4  and  C_19
REMARK    2  A    between atoms: O_4  and  C_27
REMARK    3  A    between atoms: N_5  and  C_7
REMARK    4  A    between atoms: N_5  and  C_11
REMARK    5  A    between atoms: C_7  and  C_10
REMARK    6  A    between atoms: C_10  and  C_12
REMARK    7  A    between atoms: C_11  and  C_13
REMARK    8  A    between atoms: C_15  and  C_18
REMARK                            x       y       z     vdW  Elec       q    Type
REMARK                         _______ _______ _______ _____ _____    ______ ____
ROOT
ATOM      2  O   UNL     1      -2.595 -14.028  13.373  0.00  0.00    -0.376 OA
ATOM      7  C   UNL     1      -2.520 -12.054  14.181  0.00  0.00    +0.072 C 
ATOM      8  C   UNL     1      -1.529 -13.109  13.706  0.00  0.00    +0.184 C 
ATOM      9  C   UNL     1      -3.590 -13.037  13.719  0.00  0.00    +0.184 C 
ENDROOT
BRANCH   7   5
ATOM      5  N   UNL     1      -2.510 -12.023  15.637  0.00  0.00    -0.302 NA
ATOM     28  H   UNL     1      -1.647 -12.347  16.072  0.00  0.00    +0.123 HD
BRANCH   5  11
ATOM     11  C   UNL     1      -2.823 -10.675  16.106  0.00  0.00    +0.117 C 
BRANCH  11  13
ATOM     13  C   UNL     1      -4.104 -10.640  16.897  0.00  0.00    -0.030 A 
ATOM     16  C   UNL     1      -5.198  -9.917  16.423  0.00  0.00    +0.050 A 
ATOM     17  C   UNL     1      -4.195 -11.331  18.106  0.00  0.00    +0.005 A 
ATOM     19  C   UNL     1      -6.384  -9.885  17.157  0.00  0.00    +0.120 A 
ATOM     20  C   UNL     1      -5.380 -11.298  18.840  0.00  0.00    +0.004 A 
ATOM     21  C   UNL     1      -6.474 -10.575  18.366  0.00  0.00    +0.045 A 
BRANCH  19   4
ATOM      4  O   UNL     1      -7.451  -9.179  16.694  0.00  0.00    -0.495 OA
ATOM     27  C   UNL     1      -8.709  -9.416  17.325  0.00  0.00    +0.277 C 
ENDBRANCH  19   4
ENDBRANCH  11  13
ENDBRANCH   5  11
ENDBRANCH   7   5
BRANCH   7  10
ATOM     10  C   UNL     1      -2.476 -10.654  13.554  0.00  0.00    +0.085 C 
BRANCH  10  12
ATOM      3  O   UNL     1      -5.068 -10.184  11.142  0.00  0.00    -0.354 OA
ATOM      6  N   UNL     1      -4.566 -10.110  12.435  0.00  0.00    -0.083 NA
ATOM     12  C   UNL     1      -3.320 -10.584  12.350  0.00  0.00    +0.086 A 
ATOM     14  C   UNL     1      -2.984 -10.970  11.041  0.00  0.00    +0.076 A 
ATOM     15  C   UNL     1      -4.117 -10.697  10.321  0.00  0.00    +0.167 A 
BRANCH  15  18
ATOM      1  F   UNL     1      -5.570 -11.222   4.968  0.00  0.00    -0.205 F 
ATOM     18  C   UNL     1      -4.495 -10.834   8.935  0.00  0.00    +0.020 A 
ATOM     22  C   UNL     1      -4.253 -12.031   8.261  0.00  0.00    +0.014 A 
ATOM     23  C   UNL     1      -5.099  -9.768   8.269  0.00  0.00    +0.014 A 
ATOM     24  C   UNL     1      -4.616 -12.162   6.920  0.00  0.00    +0.039 A 
ATOM     25  C   UNL     1      -5.462  -9.899   6.929  0.00  0.00    +0.039 A 
ATOM     26  C   UNL     1      -5.221 -11.097   6.255  0.00  0.00    +0.123 A 
ENDBRANCH  15  18
ENDBRANCH  10  12
ENDBRANCH   7  10
TORSDOF 7
ENDMDL
MODEL 6
REMARK VINA RESULT:      -6.2     26.760     29.808
REMARK  Name = 56775489
REMARK  8 active torsions:
REMARK  status: ('A' for Active; 'I' for Inactive)
REMARK    1  A    between atoms: O_4  and  C_19
REMARK    2  A    between atoms: O_4  and  C_27
REMARK    3  A    between atoms: N_5  and  C_7
REMARK    4  A    between atoms: N_5  and  C_11
REMARK    5  A    between atoms: C_7  and  C_10
REMARK    6  A    between atoms: C_10  and  C_12
REMARK    7  A    between atoms: C_11  and  C_13
REMARK    8  A    between atoms: C_15  and  C_18
REMARK                            x       y       z     vdW  Elec       q    Type
REMARK                         _______ _______ _______ _____ _____    ______ ____
ROOT
ATOM      2  O   UNL     1     -17.833   5.143  21.163  0.00  0.00    -0.376 OA
ATOM      7  C   UNL     1     -16.155   5.140  22.483  0.00  0.00    +0.072 C 
ATOM      8  C   UNL     1     -16.400   5.059  20.980  0.00  0.00    +0.184 C 
ATOM      9  C   UNL     1     -17.666   5.319  22.588  0.00  0.00    +0.184 C 
ENDROOT
BRANCH   7   5
ATOM      5  N   UNL     1     -15.805   3.815  22.973  0.00  0.00    -0.302 NA
ATOM     28  H   UNL     1     -15.096   3.324  22.430  0.00  0.00    +0.123 HD
BRANCH   5  11
ATOM     11  C   UNL     1     -15.385   3.899  24.370  0.00  0.00    +0.117 C 
BRANCH  11  13
ATOM     13  C   UNL     1     -16.105   2.897  25.233  0.00  0.00    -0.030 A 
ATOM     16  C   UNL     1     -16.041   2.999  26.623  0.00  0.00    +0.050 A 
ATOM     17  C   UNL     1     -16.834   1.865  24.643  0.00  0.00    +0.005 A 
ATOM     19  C   UNL     1     -16.707   2.070  27.422  0.00  0.00    +0.120 A 
ATOM     20  C   UNL     1     -17.500   0.936  25.441  0.00  0.00    +0.004 A 
ATOM     21  C   UNL     1     -17.436   1.038  26.831  0.00  0.00    +0.045 A 
BRANCH  19   4
ATOM      4  O   UNL     1     -16.645   2.170  28.777  0.00  0.00    -0.495 OA
ATOM     27  C   UNL     1     -17.580   3.045  29.407  0.00  0.00    +0.277 C 
ENDBRANCH  19   4
ENDBRANCH  11  13
ENDBRANCH   5  11
ENDBRANCH   7   5
BRANCH   7  10
ATOM     10  C   UNL     1     -15.236   6.242  23.029  0.00  0.00    +0.085 C 
BRANCH  10  12
ATOM      3  O   UNL     1     -12.229   6.071  21.110  0.00  0.00    -0.354 OA
ATOM      6  N   UNL     1     -13.139   5.541  22.016  0.00  0.00    -0.083 NA
ATOM     12  C   UNL     1     -14.091   6.471  22.133  0.00  0.00    +0.086 A 
ATOM     14  C   UNL     1     -13.838   7.598  21.333  0.00  0.00    +0.076 A 
ATOM     15  C   UNL     1     -12.655   7.295  20.710  0.00  0.00    +0.167 A 
BRANCH  15  18
ATOM      1  F   UNL     1      -9.387   9.917  17.037  0.00  0.00    -0.205 F 
ATOM     18  C   UNL     1     -11.808   7.974  19.759  0.00  0.00    +0.020 A 
ATOM     22  C   UNL     1     -11.298   9.237  20.058  0.00  0.00    +0.014 A 
ATOM     23  C   UNL     1     -11.501   7.367  18.542  0.00  0.00    +0.014 A 
ATOM     24  C   UNL     1     -10.479   9.894  19.138  0.00  0.00    +0.039 A 
ATOM     25  C   UNL     1     -10.683   8.023  17.623  0.00  0.00    +0.039 A 
ATOM     26  C   UNL     1     -10.172   9.287  17.921  0.00  0.00    +0.123 A 
ENDBRANCH  15  18
ENDBRANCH  10  12
ENDBRANCH   7  10
TORSDOF 7
ENDMDL
MODEL 7
REMARK VINA RESULT:      -6.2     16.722     18.924
REMARK  Name = 56775489
REMARK  8 active torsions:
REMARK  status: ('A' for Active; 'I' for Inactive)
REMARK    1  A    between atoms: O_4  and  C_19
REMARK    2  A    between atoms: O_4  and  C_27
REMARK    3  A    between atoms: N_5  and  C_7
REMARK    4  A    between atoms: N_5  and  C_11
REMARK    5  A    between atoms: C_7  and  C_10
REMARK    6  A    between atoms: C_10  and  C_12
REMARK    7  A    between atoms: C_11  and  C_13
REMARK    8  A    between atoms: C_15  and  C_18
REMARK                            x       y       z     vdW  Elec       q    Type
REMARK                         _______ _______ _______ _____ _____    ______ ____
ROOT
ATOM      2  O   UNL     1       9.180   5.621   9.221  0.00  0.00    -0.376 OA
ATOM      7  C   UNL     1       9.830   5.893   7.206  0.00  0.00    +0.072 C 
ATOM      8  C   UNL     1       9.548   4.726   8.146  0.00  0.00    +0.184 C 
ATOM      9  C   UNL     1       9.338   6.768   8.354  0.00  0.00    +0.184 C 
ENDROOT
BRANCH   7   5
ATOM      5  N   UNL     1      11.271   6.055   7.078  0.00  0.00    -0.302 NA
ATOM     28  H   UNL     1      11.739   5.348   6.511  0.00  0.00    +0.123 HD
BRANCH   5  11
ATOM     11  C   UNL     1      11.576   7.385   6.557  0.00  0.00    +0.117 C 
BRANCH  11  13
ATOM     13  C   UNL     1      12.941   7.441   5.924  0.00  0.00    -0.030 A 
ATOM     16  C   UNL     1      13.079   7.279   4.546  0.00  0.00    +0.050 A 
ATOM     17  C   UNL     1      14.068   7.653   6.717  0.00  0.00    +0.005 A 
ATOM     19  C   UNL     1      14.344   7.330   3.960  0.00  0.00    +0.120 A 
ATOM     20  C   UNL     1      15.333   7.703   6.132  0.00  0.00    +0.004 A 
ATOM     21  C   UNL     1      15.471   7.541   4.754  0.00  0.00    +0.045 A 
BRANCH  19   4
ATOM      4  O   UNL     1      14.478   7.172   2.615  0.00  0.00    -0.495 OA
ATOM     27  C   UNL     1      14.169   8.299   1.796  0.00  0.00    +0.277 C 
ENDBRANCH  19   4
ENDBRANCH  11  13
ENDBRANCH   5  11
ENDBRANCH   7   5
BRANCH   7  10
ATOM     10  C   UNL     1       9.100   5.956   5.857  0.00  0.00    +0.085 C 
BRANCH  10  12
ATOM      3  O   UNL     1      10.796   3.463   3.943  0.00  0.00    -0.354 OA
ATOM      6  N   UNL     1      10.170   3.907   5.102  0.00  0.00    -0.083 NA
ATOM     12  C   UNL     1       9.802   5.164   4.835  0.00  0.00    +0.086 A 
ATOM     14  C   UNL     1      10.164   5.563   3.537  0.00  0.00    +0.076 A 
ATOM     15  C   UNL     1      10.786   4.456   3.019  0.00  0.00    +0.167 A 
BRANCH  15  18
ATOM      1  F   UNL     1      13.166   3.232  -1.867  0.00  0.00    -0.205 F 
ATOM     18  C   UNL     1      11.403   4.140   1.753  0.00  0.00    +0.020 A 
ATOM     22  C   UNL     1      10.713   4.376   0.564  0.00  0.00    +0.014 A 
ATOM     23  C   UNL     1      12.687   3.598   1.720  0.00  0.00    +0.014 A 
ATOM     24  C   UNL     1      11.309   4.069  -0.660  0.00  0.00    +0.039 A 
ATOM     25  C   UNL     1      13.283   3.292   0.497  0.00  0.00    +0.039 A 
ATOM     26  C   UNL     1      12.594   3.528  -0.693  0.00  0.00    +0.123 A 
ENDBRANCH  15  18
ENDBRANCH  10  12
ENDBRANCH   7  10
TORSDOF 7
ENDMDL
MODEL 8
REMARK VINA RESULT:      -6.1     18.840     20.677
REMARK  Name = 56775489
REMARK  8 active torsions:
REMARK  status: ('A' for Active; 'I' for Inactive)
REMARK    1  A    between atoms: O_4  and  C_19
REMARK    2  A    between atoms: O_4  and  C_27
REMARK    3  A    between atoms: N_5  and  C_7
REMARK    4  A    between atoms: N_5  and  C_11
REMARK    5  A    between atoms: C_7  and  C_10
REMARK    6  A    between atoms: C_10  and  C_12
REMARK    7  A    between atoms: C_11  and  C_13
REMARK    8  A    between atoms: C_15  and  C_18
REMARK                            x       y       z     vdW  Elec       q    Type
REMARK                         _______ _______ _______ _____ _____    ______ ____
ROOT
ATOM      2  O   UNL     1      13.109   7.552   3.742  0.00  0.00    -0.376 OA
ATOM      7  C   UNL     1      11.395   6.321   3.419  0.00  0.00    +0.072 C 
ATOM      8  C   UNL     1      11.745   7.567   4.224  0.00  0.00    +0.184 C 
ATOM      9  C   UNL     1      12.819   6.426   2.883  0.00  0.00    +0.184 C 
ENDROOT
BRANCH   7   5
ATOM      5  N   UNL     1      11.319   5.184   4.326  0.00  0.00    -0.302 NA
ATOM     28  H   UNL     1      11.901   5.255   5.160  0.00  0.00    +0.123 HD
BRANCH   5  11
ATOM     11  C   UNL     1       9.930   4.950   4.711  0.00  0.00    +0.117 C 
BRANCH  11  13
ATOM     13  C   UNL     1       9.701   5.219   6.175  0.00  0.00    -0.030 A 
ATOM     16  C   UNL     1       9.255   6.472   6.593  0.00  0.00    +0.050 A 
ATOM     17  C   UNL     1       9.937   4.214   7.113  0.00  0.00    +0.005 A 
ATOM     19  C   UNL     1       9.044   6.721   7.949  0.00  0.00    +0.120 A 
ATOM     20  C   UNL     1       9.727   4.463   8.469  0.00  0.00    +0.004 A 
ATOM     21  C   UNL     1       9.281   5.717   8.887  0.00  0.00    +0.045 A 
BRANCH  19   4
ATOM      4  O   UNL     1       8.608   7.944   8.356  0.00  0.00    -0.495 OA
ATOM     27  C   UNL     1       9.405   9.071   7.993  0.00  0.00    +0.277 C 
ENDBRANCH  19   4
ENDBRANCH  11  13
ENDBRANCH   5  11
ENDBRANCH   7   5
BRANCH   7  10
ATOM     10  C   UNL     1      10.222   6.376   2.431  0.00  0.00    +0.085 C 
BRANCH  10  12
ATOM      3  O   UNL     1      10.498   3.537   0.283  0.00  0.00    -0.354 OA
ATOM      6  N   UNL     1      10.233   4.124   1.514  0.00  0.00    -0.083 NA
ATOM     12  C   UNL     1      10.419   5.433   1.319  0.00  0.00    +0.086 A 
ATOM     14  C   UNL     1      10.799   5.728  -0.002  0.00  0.00    +0.076 A 
ATOM     15  C   UNL     1      10.834   4.501  -0.611  0.00  0.00    +0.167 A 
BRANCH  15  18
ATOM      1  F   UNL     1      12.003   2.719  -5.759  0.00  0.00    -0.205 F 
ATOM     18  C   UNL     1      11.137   4.041  -1.945  0.00  0.00    +0.020 A 
ATOM     22  C   UNL     1      10.151   4.065  -2.931  0.00  0.00    +0.014 A 
ATOM     23  C   UNL     1      12.415   3.569  -2.246  0.00  0.00    +0.014 A 
ATOM     24  C   UNL     1      10.444   3.618  -4.221  0.00  0.00    +0.039 A 
ATOM     25  C   UNL     1      12.707   3.123  -3.534  0.00  0.00    +0.039 A 
ATOM     26  C   UNL     1      11.722   3.149  -4.522  0.00  0.00    +0.123 A 
ENDBRANCH  15  18
ENDBRANCH  10  12
ENDBRANCH   7  10
TORSDOF 7
ENDMDL
MODEL 9
REMARK VINA RESULT:      -6.1     29.719     31.799
REMARK  Name = 56775489
REMARK  8 active torsions:
REMARK  status: ('A' for Active; 'I' for Inactive)
REMARK    1  A    between atoms: O_4  and  C_19
REMARK    2  A    between atoms: O_4  and  C_27
REMARK    3  A    between atoms: N_5  and  C_7
REMARK    4  A    between atoms: N_5  and  C_11
REMARK    5  A    between atoms: C_7  and  C_10
REMARK    6  A    between atoms: C_10  and  C_12
REMARK    7  A    between atoms: C_11  and  C_13
REMARK    8  A    between atoms: C_15  and  C_18
REMARK                            x       y       z     vdW  Elec       q    Type
REMARK                         _______ _______ _______ _____ _____    ______ ____
ROOT
ATOM      2  O   UNL     1     -13.584   0.787  30.402  0.00  0.00    -0.376 OA
ATOM      7  C   UNL     1     -14.851   2.491  30.185  0.00  0.00    +0.072 C 
ATOM      8  C   UNL     1     -14.944   0.988  29.952  0.00  0.00    +0.184 C 
ATOM      9  C   UNL     1     -13.461   2.189  30.735  0.00  0.00    +0.184 C 
ENDROOT
BRANCH   7   5
ATOM      5  N   UNL     1     -14.711   3.158  28.898  0.00  0.00    -0.302 NA
ATOM     28  H   UNL     1     -14.278   2.598  28.165  0.00  0.00    +0.123 HD
BRANCH   5  11
ATOM     11  C   UNL     1     -16.014   3.641  28.447  0.00  0.00    +0.117 C 
BRANCH  11  13
ATOM     13  C   UNL     1     -16.521   2.862  27.263  0.00  0.00    -0.030 A 
ATOM     16  C   UNL     1     -16.081   3.178  25.978  0.00  0.00    +0.050 A 
ATOM     17  C   UNL     1     -17.434   1.824  27.452  0.00  0.00    +0.005 A 
ATOM     19  C   UNL     1     -16.552   2.456  24.881  0.00  0.00    +0.120 A 
ATOM     20  C   UNL     1     -17.906   1.102  26.355  0.00  0.00    +0.004 A 
ATOM     21  C   UNL     1     -17.465   1.419  25.070  0.00  0.00    +0.045 A 
BRANCH  19   4
ATOM      4  O   UNL     1     -16.121   2.765  23.628  0.00  0.00    -0.495 OA
ATOM     27  C   UNL     1     -16.268   4.121  23.208  0.00  0.00    +0.277 C 
ENDBRANCH  19   4
ENDBRANCH  11  13
ENDBRANCH   5  11
ENDBRANCH   7   5
BRANCH   7  10
ATOM     10  C   UNL     1     -15.881   3.168  31.100  0.00  0.00    +0.085 C 
BRANCH  10  12
ATOM      3  O   UNL     1     -14.473   4.790  33.953  0.00  0.00    -0.354 OA
ATOM      6  N   UNL     1     -15.132   3.729  33.344  0.00  0.00    -0.083 NA
ATOM     12  C   UNL     1     -15.227   4.074  32.057  0.00  0.00    +0.086 A 
ATOM     14  C   UNL     1     -14.653   5.331  31.797  0.00  0.00    +0.076 A 
ATOM     15  C   UNL     1     -14.194   5.737  33.022  0.00  0.00    +0.167 A 
BRANCH  15  18
ATOM      1  F   UNL     1     -11.527  10.255  34.899  0.00  0.00    -0.205 F 
ATOM     18  C   UNL     1     -13.504   6.908  33.508  0.00  0.00    +0.020 A 
ATOM     22  C   UNL     1     -12.857   7.758  32.611  0.00  0.00    +0.014 A 
ATOM     23  C   UNL     1     -13.482   7.188  34.874  0.00  0.00    +0.014 A 
ATOM     24  C   UNL     1     -12.189   8.890  33.081  0.00  0.00    +0.039 A 
ATOM     25  C   UNL     1     -12.815   8.318  35.344  0.00  0.00    +0.039 A 
ATOM     26  C   UNL     1     -12.169   9.170  34.447  0.00  0.00    +0.123 A 
ENDBRANCH  15  18
ENDBRANCH  10  12
ENDBRANCH   7  10
TORSDOF 7
ENDMDL
MODEL 10
REMARK VINA RESULT:      -6.0     27.875     31.510
REMARK  Name = 56775489
REMARK  8 active torsions:
REMARK  status: ('A' for Active; 'I' for Inactive)
REMARK    1  A    between atoms: O_4  and  C_19
REMARK    2  A    between atoms: O_4  and  C_27
REMARK    3  A    between atoms: N_5  and  C_7
REMARK    4  A    between atoms: N_5  and  C_11
REMARK    5  A    between atoms: C_7  and  C_10
REMARK    6  A    between atoms: C_10  and  C_12
REMARK    7  A    between atoms: C_11  and  C_13
REMARK    8  A    between atoms: C_15  and  C_18
REMARK                            x       y       z     vdW  Elec       q    Type
REMARK                         _______ _______ _______ _____ _____    ______ ____
ROOT
ATOM      2  O   UNL     1     -10.833 -11.930  16.733  0.00  0.00    -0.376 OA
ATOM      7  C   UNL     1     -10.098  -9.940  16.965  0.00  0.00    +0.072 C 
ATOM      8  C   UNL     1     -10.944 -10.712  15.960  0.00  0.00    +0.184 C 
ATOM      9  C   UNL     1     -10.105 -11.235  17.770  0.00  0.00    +0.184 C 
ENDROOT
BRANCH   7   5
ATOM      5  N   UNL     1      -8.768  -9.744  16.405  0.00  0.00    -0.302 NA
ATOM     28  H   UNL     1      -8.736  -9.199  15.545  0.00  0.00    +0.123 HD
BRANCH   5  11
ATOM     11  C   UNL     1      -7.894  -9.137  17.407  0.00  0.00    +0.117 C 
BRANCH  11  13
ATOM     13  C   UNL     1      -6.604  -9.899  17.560  0.00  0.00    -0.030 A 
ATOM     16  C   UNL     1      -5.681  -9.926  16.515  0.00  0.00    +0.050 A 
ATOM     17  C   UNL     1      -6.333 -10.579  18.748  0.00  0.00    +0.005 A 
ATOM     19  C   UNL     1      -4.486 -10.632  16.657  0.00  0.00    +0.120 A 
ATOM     20  C   UNL     1      -5.139 -11.285  18.890  0.00  0.00    +0.004 A 
ATOM     21  C   UNL     1      -4.216 -11.312  17.845  0.00  0.00    +0.045 A 
BRANCH  19   4
ATOM      4  O   UNL     1      -3.586 -10.657  15.638  0.00  0.00    -0.495 OA
ATOM     27  C   UNL     1      -2.204 -10.612  15.991  0.00  0.00    +0.277 C 
ENDBRANCH  19   4
ENDBRANCH  11  13
ENDBRANCH   5  11
ENDBRANCH   7   5
BRANCH   7  10
ATOM     10  C   UNL     1     -10.673  -8.666  17.600  0.00  0.00    +0.085 C 
BRANCH  10  12
ATOM      3  O   UNL     1     -10.784  -6.146  15.072  0.00  0.00    -0.354 OA
ATOM      6  N   UNL     1     -10.099  -6.958  15.966  0.00  0.00    -0.083 NA
ATOM     12  C   UNL     1     -11.045  -7.681  16.572  0.00  0.00    +0.086 A 
ATOM     14  C   UNL     1     -12.335  -7.371  16.106  0.00  0.00    +0.076 A 
ATOM     15  C   UNL     1     -12.114  -6.400  15.164  0.00  0.00    +0.167 A 
BRANCH  15  18
ATOM      1  F   UNL     1     -15.384  -3.421  11.776  0.00  0.00    -0.205 F 
ATOM     18  C   UNL     1     -12.961  -5.628  14.287  0.00  0.00    +0.020 A 
ATOM     22  C   UNL     1     -14.332  -5.880  14.243  0.00  0.00    +0.014 A 
ATOM     23  C   UNL     1     -12.408  -4.632  13.483  0.00  0.00    +0.014 A 
ATOM     24  C   UNL     1     -15.151  -5.134  13.395  0.00  0.00    +0.039 A 
ATOM     25  C   UNL     1     -13.226  -3.886  12.635  0.00  0.00    +0.039 A 
ATOM     26  C   UNL     1     -14.599  -4.137  12.592  0.00  0.00    +0.123 A 
ENDBRANCH  15  18
ENDBRANCH  10  12
ENDBRANCH   7  10
TORSDOF 7
ENDMDL
