MODEL 1
REMARK VINA RESULT:      -7.0      0.000      0.000
REMARK  Name = 45783966
REMARK  13 active torsions:
REMARK  status: ('A' for Active; 'I' for Inactive)
REMARK    1  A    between atoms: N_3  and  C_13
REMARK    2  A    between atoms: N_7  and  C_33
REMARK    3  A    between atoms: N_7  and  C_34
REMARK    4  A    between atoms: N_7  and  C_35
REMARK    5  A    between atoms: C_8  and  C_12
REMARK    6  A    between atoms: C_9  and  C_13
REMARK    7  A    between atoms: C_11  and  C_16
REMARK    8  A    between atoms: C_12  and  C_17
REMARK    9  A    between atoms: C_12  and  C_18
REMARK   10  A    between atoms: C_15  and  C_21
REMARK   11  A    between atoms: C_16  and  C_24
REMARK   12  A    between atoms: C_25  and  C_27
REMARK   13  A    between atoms: C_26  and  C_28
REMARK                            x       y       z     vdW  Elec       q    Type
REMARK                         _______ _______ _______ _____ _____    ______ ____
ROOT
ATOM      8  C   UNL     1      -3.843 -10.398  15.392  0.00  0.00    +0.000 C 
ATOM      9  C   UNL     1      -4.970 -11.216  14.721  0.00  0.00    +0.029 C 
ATOM     10  C   UNL     1      -4.050 -10.341  16.912  0.00  0.00    +0.012 C 
ATOM     11  C   UNL     1      -4.134 -11.735  17.570  0.00  0.00    +0.024 C 
ATOM     14  C   UNL     1      -5.288 -12.485  15.470  0.00  0.00    -0.023 C 
ATOM     15  C   UNL     1      -4.914 -12.741  16.737  0.00  0.00    -0.073 C 
ATOM     21  C   UNL     1      -5.210 -14.078  17.360  0.00  0.00    +0.039 C 
ENDROOT
BRANCH   8  12
ATOM     12  C   UNL     1      -2.458 -10.960  15.042  0.00  0.00    -0.013 C 
ATOM     17  C   UNL     1      -2.231 -10.915  13.534  0.00  0.00    +0.007 C 
ATOM     18  C   UNL     1      -1.368 -10.185  15.776  0.00  0.00    +0.007 C 
ENDBRANCH   8  12
BRANCH   9  13
ATOM     13  C   UNL     1      -6.251 -10.391  14.562  0.00  0.00    +0.092 C 
BRANCH  13   3
ATOM      2  O   UNL     1      -7.144  -8.008   8.865  0.00  0.00    -0.276 OA
ATOM      3  N   UNL     1      -6.732 -10.445  13.182  0.00  0.00    -0.299 NA
ATOM      4  N   UNL     1      -7.642  -9.347  10.697  0.00  0.00    -0.299 N 
ATOM     19  C   UNL     1      -5.794  -9.762  12.280  0.00  0.00    +0.103 C 
ATOM     20  C   UNL     1      -8.072  -9.849  13.078  0.00  0.00    +0.103 C 
ATOM     22  C   UNL     1      -6.275  -9.847  10.832  0.00  0.00    +0.123 C 
ATOM     23  C   UNL     1      -8.598  -9.928  11.645  0.00  0.00    +0.123 C 
ATOM     25  C   UNL     1      -7.967  -8.486   9.650  0.00  0.00    +0.213 C 
ATOM     27  C   UNL     1      -9.425  -8.132   9.496  0.00  0.00    +0.109 C 
ENDBRANCH  13   3
ENDBRANCH   9  13
BRANCH  11  16
ATOM     16  C   UNL     1      -4.694 -11.574  18.988  0.00  0.00    +0.105 C 
BRANCH  16  24
ATOM      1  O   UNL     1      -6.786 -10.509  18.320  0.00  0.00    -0.420 OA
ATOM      5  N   UNL     1      -7.052 -12.367  19.536  0.00  0.00    -0.112 NA
ATOM      6  N   UNL     1      -8.307 -11.874  19.230  0.00  0.00    -0.107 NA
ATOM     24  C   UNL     1      -6.196 -11.540  18.985  0.00  0.00    +0.218 A 
ATOM     26  C   UNL     1      -8.103 -10.789  18.519  0.00  0.00    +0.248 A 
BRANCH  26  28
ATOM     28  C   UNL     1      -9.035  -9.873  17.932  0.00  0.00    +0.039 A 
ATOM     29  C   UNL     1     -10.376  -9.896  18.318  0.00  0.00    +0.015 A 
ATOM     30  C   UNL     1      -8.602  -8.956  16.974  0.00  0.00    +0.015 A 
ATOM     31  C   UNL     1     -11.283  -9.004  17.747  0.00  0.00    +0.024 A 
ATOM     32  C   UNL     1      -9.509  -8.064  16.402  0.00  0.00    +0.024 A 
ATOM     33  C   UNL     1     -10.850  -8.088  16.789  0.00  0.00    +0.029 A 
BRANCH  33   7
ATOM      7  N   UNL     1     -11.767  -7.186  16.210  0.00  0.00    -0.336 N 
ATOM     34  C   UNL     1     -13.168  -7.540  16.092  0.00  0.00    +0.129 C 
ATOM     35  C   UNL     1     -11.320  -5.899  15.719  0.00  0.00    +0.129 C 
ENDBRANCH  33   7
ENDBRANCH  26  28
ENDBRANCH  16  24
ENDBRANCH  11  16
TORSDOF 7
ENDMDL
MODEL 2
REMARK VINA RESULT:      -7.0      3.994      6.535
REMARK  Name = 45783966
REMARK  13 active torsions:
REMARK  status: ('A' for Active; 'I' for Inactive)
REMARK    1  A    between atoms: N_3  and  C_13
REMARK    2  A    between atoms: N_7  and  C_33
REMARK    3  A    between atoms: N_7  and  C_34
REMARK    4  A    between atoms: N_7  and  C_35
REMARK    5  A    between atoms: C_8  and  C_12
REMARK    6  A    between atoms: C_9  and  C_13
REMARK    7  A    between atoms: C_11  and  C_16
REMARK    8  A    between atoms: C_12  and  C_17
REMARK    9  A    between atoms: C_12  and  C_18
REMARK   10  A    between atoms: C_15  and  C_21
REMARK   11  A    between atoms: C_16  and  C_24
REMARK   12  A    between atoms: C_25  and  C_27
REMARK   13  A    between atoms: C_26  and  C_28
REMARK                            x       y       z     vdW  Elec       q    Type
REMARK                         _______ _______ _______ _____ _____    ______ ____
ROOT
ATOM      8  C   UNL     1      -5.555 -10.610  10.906  0.00  0.00    +0.000 C 
ATOM      9  C   UNL     1      -4.881 -10.381   9.533  0.00  0.00    +0.029 C 
ATOM     10  C   UNL     1      -4.543 -11.168  11.916  0.00  0.00    +0.012 C 
ATOM     11  C   UNL     1      -3.302 -10.270  12.098  0.00  0.00    +0.024 C 
ATOM     14  C   UNL     1      -3.526  -9.731   9.656  0.00  0.00    -0.023 C 
ATOM     15  C   UNL     1      -2.811  -9.661  10.793  0.00  0.00    -0.073 C 
ATOM     21  C   UNL     1      -1.506  -8.912  10.823  0.00  0.00    +0.039 C 
ENDROOT
BRANCH   8  12
ATOM     12  C   UNL     1      -6.211  -9.325  11.430  0.00  0.00    -0.013 C 
ATOM     17  C   UNL     1      -7.267  -8.827  10.447  0.00  0.00    +0.007 C 
ATOM     18  C   UNL     1      -6.822  -9.563  12.807  0.00  0.00    +0.007 C 
ENDBRANCH   8  12
BRANCH   9  13
ATOM     13  C   UNL     1      -4.745 -11.686   8.744  0.00  0.00    +0.092 C 
BRANCH  13   3
ATOM      2  O   UNL     1      -6.565 -11.905   2.780  0.00  0.00    -0.276 OA
ATOM      3  N   UNL     1      -4.584 -11.412   7.317  0.00  0.00    -0.299 NA
ATOM      4  N   UNL     1      -5.025 -11.841   4.518  0.00  0.00    -0.299 N 
ATOM     19  C   UNL     1      -5.878 -11.079   6.706  0.00  0.00    +0.103 C 
ATOM     20  C   UNL     1      -3.976 -12.565   6.635  0.00  0.00    +0.103 C 
ATOM     22  C   UNL     1      -5.710 -10.757   5.220  0.00  0.00    +0.123 C 
ATOM     23  C   UNL     1      -3.774 -12.277   5.146  0.00  0.00    +0.123 C 
ATOM     25  C   UNL     1      -5.508 -12.287   3.289  0.00  0.00    +0.213 C 
ATOM     27  C   UNL     1      -4.665 -13.305   2.562  0.00  0.00    +0.109 C 
ENDBRANCH  13   3
ENDBRANCH   9  13
BRANCH  11  16
ATOM     16  C   UNL     1      -2.217 -11.073  12.825  0.00  0.00    +0.105 C 
BRANCH  16  24
ATOM      1  O   UNL     1      -3.662 -11.240  14.786  0.00  0.00    -0.420 OA
ATOM      5  N   UNL     1      -1.521 -10.801  15.260  0.00  0.00    -0.112 NA
ATOM      6  N   UNL     1      -2.218 -10.867  16.453  0.00  0.00    -0.107 NA
ATOM     24  C   UNL     1      -2.403 -11.024  14.315  0.00  0.00    +0.218 A 
ATOM     26  C   UNL     1      -3.463 -11.125  16.127  0.00  0.00    +0.248 A 
BRANCH  26  28
ATOM     28  C   UNL     1      -4.622 -11.302  16.951  0.00  0.00    +0.039 A 
ATOM     29  C   UNL     1      -5.883 -10.951  16.466  0.00  0.00    +0.015 A 
ATOM     30  C   UNL     1      -4.491 -11.825  18.237  0.00  0.00    +0.015 A 
ATOM     31  C   UNL     1      -7.012 -11.123  17.267  0.00  0.00    +0.024 A 
ATOM     32  C   UNL     1      -5.620 -11.997  19.039  0.00  0.00    +0.024 A 
ATOM     33  C   UNL     1      -6.880 -11.647  18.554  0.00  0.00    +0.029 A 
BRANCH  33   7
ATOM      7  N   UNL     1      -8.021 -11.820  19.365  0.00  0.00    -0.336 N 
ATOM     34  C   UNL     1      -9.079 -10.829  19.363  0.00  0.00    +0.129 C 
ATOM     35  C   UNL     1      -8.147 -12.986  20.215  0.00  0.00    +0.129 C 
ENDBRANCH  33   7
ENDBRANCH  26  28
ENDBRANCH  16  24
ENDBRANCH  11  16
TORSDOF 7
ENDMDL
MODEL 3
REMARK VINA RESULT:      -7.0      2.565      7.797
REMARK  Name = 45783966
REMARK  13 active torsions:
REMARK  status: ('A' for Active; 'I' for Inactive)
REMARK    1  A    between atoms: N_3  and  C_13
REMARK    2  A    between atoms: N_7  and  C_33
REMARK    3  A    between atoms: N_7  and  C_34
REMARK    4  A    between atoms: N_7  and  C_35
REMARK    5  A    between atoms: C_8  and  C_12
REMARK    6  A    between atoms: C_9  and  C_13
REMARK    7  A    between atoms: C_11  and  C_16
REMARK    8  A    between atoms: C_12  and  C_17
REMARK    9  A    between atoms: C_12  and  C_18
REMARK   10  A    between atoms: C_15  and  C_21
REMARK   11  A    between atoms: C_16  and  C_24
REMARK   12  A    between atoms: C_25  and  C_27
REMARK   13  A    between atoms: C_26  and  C_28
REMARK                            x       y       z     vdW  Elec       q    Type
REMARK                         _______ _______ _______ _____ _____    ______ ____
ROOT
ATOM      8  C   UNL     1      -4.981 -12.077  15.497  0.00  0.00    +0.000 C 
ATOM      9  C   UNL     1      -4.624 -11.179  16.704  0.00  0.00    +0.029 C 
ATOM     10  C   UNL     1      -4.414 -11.484  14.199  0.00  0.00    +0.012 C 
ATOM     11  C   UNL     1      -2.887 -11.265  14.242  0.00  0.00    +0.024 C 
ATOM     14  C   UNL     1      -3.192 -10.707  16.671  0.00  0.00    -0.023 C 
ATOM     15  C   UNL     1      -2.397 -10.748  15.587  0.00  0.00    -0.073 C 
ATOM     21  C   UNL     1      -0.955 -10.331  15.688  0.00  0.00    +0.039 C 
ENDROOT
BRANCH   8  12
ATOM     12  C   UNL     1      -4.493 -13.518  15.708  0.00  0.00    -0.013 C 
ATOM     17  C   UNL     1      -5.051 -14.083  17.011  0.00  0.00    +0.007 C 
ATOM     18  C   UNL     1      -4.893 -14.392  14.524  0.00  0.00    +0.007 C 
ENDBRANCH   8  12
BRANCH   9  13
ATOM     13  C   UNL     1      -5.552  -9.964  16.800  0.00  0.00    +0.092 C 
BRANCH  13   3
ATOM      2  O   UNL     1     -11.567  -8.918  18.087  0.00  0.00    -0.276 OA
ATOM      3  N   UNL     1      -6.933 -10.387  17.031  0.00  0.00    -0.299 NA
ATOM      4  N   UNL     1      -9.591 -10.140  18.071  0.00  0.00    -0.299 N 
ATOM     19  C   UNL     1      -7.874  -9.417  16.452  0.00  0.00    +0.103 C 
ATOM     20  C   UNL     1      -7.188 -10.555  18.470  0.00  0.00    +0.103 C 
ATOM     22  C   UNL     1      -9.318  -9.872  16.660  0.00  0.00    +0.123 C 
ATOM     23  C   UNL     1      -8.621 -11.026  18.721  0.00  0.00    +0.123 C 
ATOM     25  C   UNL     1     -10.765  -9.665  18.654  0.00  0.00    +0.213 C 
ATOM     27  C   UNL     1     -11.042 -10.105  20.070  0.00  0.00    +0.109 C 
ENDBRANCH  13   3
ENDBRANCH   9  13
BRANCH  11  16
ATOM     16  C   UNL     1      -2.489 -10.355  13.074  0.00  0.00    +0.105 C 
BRANCH  16  24
ATOM      1  O   UNL     1      -3.889  -9.969  11.111  0.00  0.00    -0.420 OA
ATOM      5  N   UNL     1      -2.931 -11.990  11.171  0.00  0.00    -0.112 NA
ATOM      6  N   UNL     1      -3.687 -11.910  10.016  0.00  0.00    -0.107 NA
ATOM     24  C   UNL     1      -3.078 -10.837  11.778  0.00  0.00    +0.218 A 
ATOM     26  C   UNL     1      -4.228 -10.714  10.023  0.00  0.00    +0.248 A 
BRANCH  26  28
ATOM     28  C   UNL     1      -5.103 -10.083   9.080  0.00  0.00    +0.039 A 
ATOM     29  C   UNL     1      -5.088 -10.477   7.741  0.00  0.00    +0.015 A 
ATOM     30  C   UNL     1      -5.970  -9.074   9.500  0.00  0.00    +0.015 A 
ATOM     31  C   UNL     1      -5.939  -9.863   6.823  0.00  0.00    +0.024 A 
ATOM     32  C   UNL     1      -6.822  -8.459   8.581  0.00  0.00    +0.024 A 
ATOM     33  C   UNL     1      -6.806  -8.854   7.243  0.00  0.00    +0.029 A 
BRANCH  33   7
ATOM      7  N   UNL     1      -7.667  -8.232   6.314  0.00  0.00    -0.336 N 
ATOM     34  C   UNL     1      -7.599  -8.575   4.908  0.00  0.00    +0.129 C 
ATOM     35  C   UNL     1      -8.624  -7.237   6.753  0.00  0.00    +0.129 C 
ENDBRANCH  33   7
ENDBRANCH  26  28
ENDBRANCH  16  24
ENDBRANCH  11  16
TORSDOF 7
ENDMDL
MODEL 4
REMARK VINA RESULT:      -6.9      2.697      7.169
REMARK  Name = 45783966
REMARK  13 active torsions:
REMARK  status: ('A' for Active; 'I' for Inactive)
REMARK    1  A    between atoms: N_3  and  C_13
REMARK    2  A    between atoms: N_7  and  C_33
REMARK    3  A    between atoms: N_7  and  C_34
REMARK    4  A    between atoms: N_7  and  C_35
REMARK    5  A    between atoms: C_8  and  C_12
REMARK    6  A    between atoms: C_9  and  C_13
REMARK    7  A    between atoms: C_11  and  C_16
REMARK    8  A    between atoms: C_12  and  C_17
REMARK    9  A    between atoms: C_12  and  C_18
REMARK   10  A    between atoms: C_15  and  C_21
REMARK   11  A    between atoms: C_16  and  C_24
REMARK   12  A    between atoms: C_25  and  C_27
REMARK   13  A    between atoms: C_26  and  C_28
REMARK                            x       y       z     vdW  Elec       q    Type
REMARK                         _______ _______ _______ _____ _____    ______ ____
ROOT
ATOM      8  C   UNL     1     -11.110  -8.244  15.142  0.00  0.00    +0.000 C 
ATOM      9  C   UNL     1     -12.636  -7.995  15.164  0.00  0.00    +0.029 C 
ATOM     10  C   UNL     1     -10.588  -8.516  16.560  0.00  0.00    +0.012 C 
ATOM     11  C   UNL     1     -11.291  -9.701  17.254  0.00  0.00    +0.024 C 
ATOM     14  C   UNL     1     -13.369  -8.974  16.046  0.00  0.00    -0.023 C 
ATOM     15  C   UNL     1     -12.785  -9.753  16.976  0.00  0.00    -0.073 C 
ATOM     21  C   UNL     1     -13.601 -10.759  17.742  0.00  0.00    +0.039 C 
ENDROOT
BRANCH   8  12
ATOM     12  C   UNL     1     -10.744  -9.390  14.187  0.00  0.00    -0.013 C 
ATOM     17  C   UNL     1     -11.284  -9.110  12.788  0.00  0.00    +0.007 C 
ATOM     18  C   UNL     1      -9.232  -9.591  14.153  0.00  0.00    +0.007 C 
ENDBRANCH   8  12
BRANCH   9  13
ATOM     13  C   UNL     1     -12.970  -6.568  15.610  0.00  0.00    +0.092 C 
BRANCH  13   3
ATOM      2  O   UNL     1     -13.324  -5.409   9.490  0.00  0.00    -0.276 OA
ATOM      3  N   UNL     1     -13.259  -5.721  14.454  0.00  0.00    -0.299 NA
ATOM      4  N   UNL     1     -13.025  -4.867  11.729  0.00  0.00    -0.299 N 
ATOM     19  C   UNL     1     -13.859  -6.512  13.370  0.00  0.00    +0.103 C 
ATOM     20  C   UNL     1     -12.036  -5.052  13.985  0.00  0.00    +0.103 C 
ATOM     22  C   UNL     1     -14.195  -5.623  12.173  0.00  0.00    +0.123 C 
ATOM     23  C   UNL     1     -12.332  -4.138  12.795  0.00  0.00    +0.123 C 
ATOM     25  C   UNL     1     -12.726  -4.784  10.370  0.00  0.00    +0.213 C 
ATOM     27  C   UNL     1     -11.591  -3.869   9.984  0.00  0.00    +0.109 C 
ENDBRANCH  13   3
ENDBRANCH   9  13
BRANCH  11  16
ATOM     16  C   UNL     1     -10.965  -9.655  18.752  0.00  0.00    +0.105 C 
BRANCH  16  24
ATOM      1  O   UNL     1      -8.651 -10.050  18.084  0.00  0.00    -0.420 OA
ATOM      5  N   UNL     1      -9.184 -10.896  20.085  0.00  0.00    -0.112 NA
ATOM      6  N   UNL     1      -7.856 -11.190  19.837  0.00  0.00    -0.107 NA
ATOM     24  C   UNL     1      -9.606 -10.230  19.036  0.00  0.00    +0.218 A 
ATOM     26  C   UNL     1      -7.588 -10.678  18.658  0.00  0.00    +0.248 A 
BRANCH  26  28
ATOM     28  C   UNL     1      -6.373 -10.678  17.898  0.00  0.00    +0.039 A 
ATOM     29  C   UNL     1      -6.297  -9.960  16.703  0.00  0.00    +0.015 A 
ATOM     30  C   UNL     1      -5.266 -11.394  18.352  0.00  0.00    +0.015 A 
ATOM     31  C   UNL     1      -5.115  -9.959  15.963  0.00  0.00    +0.024 A 
ATOM     32  C   UNL     1      -4.083 -11.393  17.612  0.00  0.00    +0.024 A 
ATOM     33  C   UNL     1      -4.008 -10.675  16.418  0.00  0.00    +0.029 A 
BRANCH  33   7
ATOM      7  N   UNL     1      -2.812 -10.676  15.669  0.00  0.00    -0.336 N 
ATOM     34  C   UNL     1      -1.527 -10.672  16.339  0.00  0.00    +0.129 C 
ATOM     35  C   UNL     1      -2.854 -10.672  14.221  0.00  0.00    +0.129 C 
ENDBRANCH  33   7
ENDBRANCH  26  28
ENDBRANCH  16  24
ENDBRANCH  11  16
TORSDOF 7
ENDMDL
MODEL 5
REMARK VINA RESULT:      -6.8      2.460      6.856
REMARK  Name = 45783966
REMARK  13 active torsions:
REMARK  status: ('A' for Active; 'I' for Inactive)
REMARK    1  A    between atoms: N_3  and  C_13
REMARK    2  A    between atoms: N_7  and  C_33
REMARK    3  A    between atoms: N_7  and  C_34
REMARK    4  A    between atoms: N_7  and  C_35
REMARK    5  A    between atoms: C_8  and  C_12
REMARK    6  A    between atoms: C_9  and  C_13
REMARK    7  A    between atoms: C_11  and  C_16
REMARK    8  A    between atoms: C_12  and  C_17
REMARK    9  A    between atoms: C_12  and  C_18
REMARK   10  A    between atoms: C_15  and  C_21
REMARK   11  A    between atoms: C_16  and  C_24
REMARK   12  A    between atoms: C_25  and  C_27
REMARK   13  A    between atoms: C_26  and  C_28
REMARK                            x       y       z     vdW  Elec       q    Type
REMARK                         _______ _______ _______ _____ _____    ______ ____
ROOT
ATOM      8  C   UNL     1      -6.998 -12.204  16.891  0.00  0.00    +0.000 C 
ATOM      9  C   UNL     1      -7.188 -11.965  18.406  0.00  0.00    +0.029 C 
ATOM     10  C   UNL     1      -5.762 -11.453  16.378  0.00  0.00    +0.012 C 
ATOM     11  C   UNL     1      -4.464 -11.830  17.122  0.00  0.00    +0.024 C 
ATOM     14  C   UNL     1      -5.893 -12.063  19.174  0.00  0.00    -0.023 C 
ATOM     15  C   UNL     1      -4.669 -12.016  18.618  0.00  0.00    -0.073 C 
ATOM     21  C   UNL     1      -3.443 -12.211  19.469  0.00  0.00    +0.039 C 
ENDROOT
BRANCH   8  12
ATOM     12  C   UNL     1      -6.911 -13.703  16.567  0.00  0.00    -0.013 C 
ATOM     17  C   UNL     1      -8.081 -14.452  17.196  0.00  0.00    +0.007 C 
ATOM     18  C   UNL     1      -6.878 -13.919  15.057  0.00  0.00    +0.007 C 
ENDBRANCH   8  12
BRANCH   9  13
ATOM     13  C   UNL     1      -7.839 -10.608  18.688  0.00  0.00    +0.092 C 
BRANCH  13   3
ATOM      2  O   UNL     1     -11.889  -6.815  15.837  0.00  0.00    -0.276 OA
ATOM      3  N   UNL     1      -8.824 -10.283  17.658  0.00  0.00    -0.299 NA
ATOM      4  N   UNL     1     -11.044  -8.863  16.533  0.00  0.00    -0.299 N 
ATOM     19  C   UNL     1      -8.672  -8.889  17.219  0.00  0.00    +0.103 C 
ATOM     20  C   UNL     1     -10.188 -10.521  18.154  0.00  0.00    +0.103 C 
ATOM     22  C   UNL     1      -9.677  -8.556  16.116  0.00  0.00    +0.123 C 
ATOM     23  C   UNL     1     -11.225 -10.214  17.072  0.00  0.00    +0.123 C 
ATOM     25  C   UNL     1     -12.067  -7.948  16.291  0.00  0.00    +0.213 C 
ATOM     27  C   UNL     1     -13.468  -8.399  16.619  0.00  0.00    +0.109 C 
ENDBRANCH  13   3
ENDBRANCH   9  13
BRANCH  11  16
ATOM     16  C   UNL     1      -3.389 -10.786  16.794  0.00  0.00    +0.105 C 
BRANCH  16  24
ATOM      1  O   UNL     1      -3.878 -10.460  14.425  0.00  0.00    -0.420 OA
ATOM      5  N   UNL     1      -1.835 -11.272  14.835  0.00  0.00    -0.112 NA
ATOM      6  N   UNL     1      -1.974 -11.139  13.466  0.00  0.00    -0.107 NA
ATOM     24  C   UNL     1      -2.969 -10.865  15.354  0.00  0.00    +0.218 A 
ATOM     26  C   UNL     1      -3.182 -10.662  13.273  0.00  0.00    +0.248 A 
BRANCH  26  28
ATOM     28  C   UNL     1      -3.867 -10.326  12.059  0.00  0.00    +0.039 A 
ATOM     29  C   UNL     1      -3.142  -9.920  10.938  0.00  0.00    +0.015 A 
ATOM     30  C   UNL     1      -5.258 -10.407  11.999  0.00  0.00    +0.015 A 
ATOM     31  C   UNL     1      -3.808  -9.594   9.757  0.00  0.00    +0.024 A 
ATOM     32  C   UNL     1      -5.925 -10.080  10.817  0.00  0.00    +0.024 A 
ATOM     33  C   UNL     1      -5.200  -9.674   9.696  0.00  0.00    +0.029 A 
BRANCH  33   7
ATOM      7  N   UNL     1      -5.873  -9.342   8.502  0.00  0.00    -0.336 N 
ATOM     34  C   UNL     1      -5.458  -9.921   7.240  0.00  0.00    +0.129 C 
ATOM     35  C   UNL     1      -6.985  -8.413   8.521  0.00  0.00    +0.129 C 
ENDBRANCH  33   7
ENDBRANCH  26  28
ENDBRANCH  16  24
ENDBRANCH  11  16
TORSDOF 7
ENDMDL
MODEL 6
REMARK VINA RESULT:      -6.8      3.063      7.761
REMARK  Name = 45783966
REMARK  13 active torsions:
REMARK  status: ('A' for Active; 'I' for Inactive)
REMARK    1  A    between atoms: N_3  and  C_13
REMARK    2  A    between atoms: N_7  and  C_33
REMARK    3  A    between atoms: N_7  and  C_34
REMARK    4  A    between atoms: N_7  and  C_35
REMARK    5  A    between atoms: C_8  and  C_12
REMARK    6  A    between atoms: C_9  and  C_13
REMARK    7  A    between atoms: C_11  and  C_16
REMARK    8  A    between atoms: C_12  and  C_17
REMARK    9  A    between atoms: C_12  and  C_18
REMARK   10  A    between atoms: C_15  and  C_21
REMARK   11  A    between atoms: C_16  and  C_24
REMARK   12  A    between atoms: C_25  and  C_27
REMARK   13  A    between atoms: C_26  and  C_28
REMARK                            x       y       z     vdW  Elec       q    Type
REMARK                         _______ _______ _______ _____ _____    ______ ____
ROOT
ATOM      8  C   UNL     1      -3.703 -11.763  12.612  0.00  0.00    +0.000 C 
ATOM      9  C   UNL     1      -2.652 -11.222  13.609  0.00  0.00    +0.029 C 
ATOM     10  C   UNL     1      -4.124 -10.666  11.624  0.00  0.00    +0.012 C 
ATOM     11  C   UNL     1      -2.939 -10.061  10.842  0.00  0.00    +0.024 C 
ATOM     14  C   UNL     1      -1.591 -10.389  12.935  0.00  0.00    -0.023 C 
ATOM     15  C   UNL     1      -1.695  -9.872  11.697  0.00  0.00    -0.073 C 
ATOM     21  C   UNL     1      -0.539  -9.127  11.087  0.00  0.00    +0.039 C 
ENDROOT
BRANCH   8  12
ATOM     12  C   UNL     1      -3.186 -13.006  11.874  0.00  0.00    -0.013 C 
ATOM     17  C   UNL     1      -2.642 -14.028  12.868  0.00  0.00    +0.007 C 
ATOM     18  C   UNL     1      -4.293 -13.617  11.021  0.00  0.00    +0.007 C 
ENDBRANCH   8  12
BRANCH   9  13
ATOM     13  C   UNL     1      -3.303 -10.401  14.726  0.00  0.00    +0.092 C 
BRANCH  13   3
ATOM      2  O   UNL     1      -8.447 -10.825  18.231  0.00  0.00    -0.276 OA
ATOM      3  N   UNL     1      -4.434 -11.123  15.306  0.00  0.00    -0.299 NA
ATOM      4  N   UNL     1      -6.503 -11.608  17.228  0.00  0.00    -0.299 N 
ATOM     19  C   UNL     1      -5.627 -10.264  15.351  0.00  0.00    +0.103 C 
ATOM     20  C   UNL     1      -4.100 -11.610  16.653  0.00  0.00    +0.103 C 
ATOM     22  C   UNL     1      -6.821 -11.027  15.925  0.00  0.00    +0.123 C 
ATOM     23  C   UNL     1      -5.266 -12.394  17.257  0.00  0.00    +0.123 C 
ATOM     25  C   UNL     1      -7.411 -11.494  18.279  0.00  0.00    +0.213 C 
ATOM     27  C   UNL     1      -7.075 -12.243  19.545  0.00  0.00    +0.109 C 
ENDBRANCH  13   3
ENDBRANCH   9  13
BRANCH  11  16
ATOM     16  C   UNL     1      -3.406  -8.762  10.174  0.00  0.00    +0.105 C 
BRANCH  16  24
ATOM      1  O   UNL     1      -5.681  -8.076   9.615  0.00  0.00    -0.420 OA
ATOM      5  N   UNL     1      -4.977  -9.896   8.521  0.00  0.00    -0.112 NA
ATOM      6  N   UNL     1      -6.269  -9.624   8.110  0.00  0.00    -0.107 NA
ATOM     24  C   UNL     1      -4.676  -8.968   9.398  0.00  0.00    +0.218 A 
ATOM     26  C   UNL     1      -6.640  -8.555   8.775  0.00  0.00    +0.248 A 
BRANCH  26  28
ATOM     28  C   UNL     1      -7.874  -7.826   8.752  0.00  0.00    +0.039 A 
ATOM     29  C   UNL     1      -7.924  -6.556   8.176  0.00  0.00    +0.015 A 
ATOM     30  C   UNL     1      -9.025  -8.387   9.306  0.00  0.00    +0.015 A 
ATOM     31  C   UNL     1      -9.125  -5.847   8.154  0.00  0.00    +0.024 A 
ATOM     32  C   UNL     1     -10.226  -7.677   9.285  0.00  0.00    +0.024 A 
ATOM     33  C   UNL     1     -10.276  -6.408   8.708  0.00  0.00    +0.029 A 
BRANCH  33   7
ATOM      7  N   UNL     1     -11.490  -5.690   8.686  0.00  0.00    -0.336 N 
ATOM     34  C   UNL     1     -12.699  -6.308   8.180  0.00  0.00    +0.129 C 
ATOM     35  C   UNL     1     -11.543  -4.323   9.163  0.00  0.00    +0.129 C 
ENDBRANCH  33   7
ENDBRANCH  26  28
ENDBRANCH  16  24
ENDBRANCH  11  16
TORSDOF 7
ENDMDL
MODEL 7
REMARK VINA RESULT:      -6.7     22.585     26.302
REMARK  Name = 45783966
REMARK  13 active torsions:
REMARK  status: ('A' for Active; 'I' for Inactive)
REMARK    1  A    between atoms: N_3  and  C_13
REMARK    2  A    between atoms: N_7  and  C_33
REMARK    3  A    between atoms: N_7  and  C_34
REMARK    4  A    between atoms: N_7  and  C_35
REMARK    5  A    between atoms: C_8  and  C_12
REMARK    6  A    between atoms: C_9  and  C_13
REMARK    7  A    between atoms: C_11  and  C_16
REMARK    8  A    between atoms: C_12  and  C_17
REMARK    9  A    between atoms: C_12  and  C_18
REMARK   10  A    between atoms: C_15  and  C_21
REMARK   11  A    between atoms: C_16  and  C_24
REMARK   12  A    between atoms: C_25  and  C_27
REMARK   13  A    between atoms: C_26  and  C_28
REMARK                            x       y       z     vdW  Elec       q    Type
REMARK                         _______ _______ _______ _____ _____    ______ ____
ROOT
ATOM      8  C   UNL     1     -10.809  10.281  31.630  0.00  0.00    +0.000 C 
ATOM      9  C   UNL     1     -10.497  11.210  32.826  0.00  0.00    +0.029 C 
ATOM     10  C   UNL     1     -11.531   9.013  32.108  0.00  0.00    +0.012 C 
ATOM     11  C   UNL     1     -12.834   9.306  32.882  0.00  0.00    +0.024 C 
ATOM     14  C   UNL     1     -11.660  11.337  33.778  0.00  0.00    -0.023 C 
ATOM     15  C   UNL     1     -12.717  10.505  33.811  0.00  0.00    -0.073 C 
ATOM     21  C   UNL     1     -13.865  10.775  34.745  0.00  0.00    +0.039 C 
ENDROOT
BRANCH   8  12
ATOM     12  C   UNL     1     -11.622  11.010  30.551  0.00  0.00    -0.013 C 
ATOM     17  C   UNL     1     -10.988  12.360  30.229  0.00  0.00    +0.007 C 
ATOM     18  C   UNL     1     -11.732  10.150  29.297  0.00  0.00    +0.007 C 
ENDBRANCH   8  12
BRANCH   9  13
ATOM     13  C   UNL     1      -9.261  10.742  33.600  0.00  0.00    +0.092 C 
BRANCH  13   3
ATOM      2  O   UNL     1      -3.886  13.317  31.757  0.00  0.00    -0.276 OA
ATOM      3  N   UNL     1      -8.237  11.786  33.618  0.00  0.00    -0.299 NA
ATOM      4  N   UNL     1      -5.605  12.856  33.249  0.00  0.00    -0.299 N 
ATOM     19  C   UNL     1      -7.707  12.012  32.266  0.00  0.00    +0.103 C 
ATOM     20  C   UNL     1      -7.152  11.428  34.544  0.00  0.00    +0.103 C 
ATOM     22  C   UNL     1      -6.660  13.127  32.275  0.00  0.00    +0.123 C 
ATOM     23  C   UNL     1      -6.089  12.527  34.594  0.00  0.00    +0.123 C 
ATOM     25  C   UNL     1      -4.270  13.041  32.897  0.00  0.00    +0.213 C 
ATOM     27  C   UNL     1      -3.252  12.881  33.999  0.00  0.00    +0.109 C 
ENDBRANCH  13   3
ENDBRANCH   9  13
BRANCH  11  16
ATOM     16  C   UNL     1     -13.269   8.029  33.610  0.00  0.00    +0.105 C 
BRANCH  16  24
ATOM      1  O   UNL     1     -13.806   5.853  32.642  0.00  0.00    -0.420 OA
ATOM      5  N   UNL     1     -15.201   7.495  32.038  0.00  0.00    -0.112 NA
ATOM      6  N   UNL     1     -15.621   6.330  31.423  0.00  0.00    -0.107 NA
ATOM     24  C   UNL     1     -14.140   7.170  32.739  0.00  0.00    +0.218 A 
ATOM     26  C   UNL     1     -14.777   5.399  31.803  0.00  0.00    +0.248 A 
BRANCH  26  28
ATOM     28  C   UNL     1     -14.723   4.004  31.479  0.00  0.00    +0.039 A 
ATOM     29  C   UNL     1     -14.909   3.586  30.160  0.00  0.00    +0.015 A 
ATOM     30  C   UNL     1     -14.483   3.064  32.481  0.00  0.00    +0.015 A 
ATOM     31  C   UNL     1     -14.856   2.228  29.844  0.00  0.00    +0.024 A 
ATOM     32  C   UNL     1     -14.430   1.706  32.165  0.00  0.00    +0.024 A 
ATOM     33  C   UNL     1     -14.616   1.288  30.847  0.00  0.00    +0.029 A 
BRANCH  33   7
ATOM      7  N   UNL     1     -14.564  -0.085  30.527  0.00  0.00    -0.336 N 
ATOM     34  C   UNL     1     -15.532  -1.006  31.089  0.00  0.00    +0.129 C 
ATOM     35  C   UNL     1     -13.538  -0.593  29.640  0.00  0.00    +0.129 C 
ENDBRANCH  33   7
ENDBRANCH  26  28
ENDBRANCH  16  24
ENDBRANCH  11  16
TORSDOF 7
ENDMDL
MODEL 8
REMARK VINA RESULT:      -6.6      2.362      6.482
REMARK  Name = 45783966
REMARK  13 active torsions:
REMARK  status: ('A' for Active; 'I' for Inactive)
REMARK    1  A    between atoms: N_3  and  C_13
REMARK    2  A    between atoms: N_7  and  C_33
REMARK    3  A    between atoms: N_7  and  C_34
REMARK    4  A    between atoms: N_7  and  C_35
REMARK    5  A    between atoms: C_8  and  C_12
REMARK    6  A    between atoms: C_9  and  C_13
REMARK    7  A    between atoms: C_11  and  C_16
REMARK    8  A    between atoms: C_12  and  C_17
REMARK    9  A    between atoms: C_12  and  C_18
REMARK   10  A    between atoms: C_15  and  C_21
REMARK   11  A    between atoms: C_16  and  C_24
REMARK   12  A    between atoms: C_25  and  C_27
REMARK   13  A    between atoms: C_26  and  C_28
REMARK                            x       y       z     vdW  Elec       q    Type
REMARK                         _______ _______ _______ _____ _____    ______ ____
ROOT
ATOM      8  C   UNL     1      -5.134 -12.259  15.897  0.00  0.00    +0.000 C 
ATOM      9  C   UNL     1      -4.964 -10.739  16.122  0.00  0.00    +0.029 C 
ATOM     10  C   UNL     1      -4.261 -12.731  14.726  0.00  0.00    +0.012 C 
ATOM     11  C   UNL     1      -2.764 -12.403  14.908  0.00  0.00    +0.024 C 
ATOM     14  C   UNL     1      -3.523 -10.301  16.052  0.00  0.00    -0.023 C 
ATOM     15  C   UNL     1      -2.525 -11.034  15.526  0.00  0.00    -0.073 C 
ATOM     21  C   UNL     1      -1.106 -10.536  15.586  0.00  0.00    +0.039 C 
ENDROOT
BRANCH   8  12
ATOM     12  C   UNL     1      -4.824 -13.052  17.174  0.00  0.00    -0.013 C 
ATOM     17  C   UNL     1      -5.567 -12.454  18.365  0.00  0.00    +0.007 C 
ATOM     18  C   UNL     1      -5.190 -14.521  16.990  0.00  0.00    +0.007 C 
ENDBRANCH   8  12
BRANCH   9  13
ATOM     13  C   UNL     1      -5.787  -9.923  15.120  0.00  0.00    +0.092 C 
BRANCH  13   3
ATOM      2  O   UNL     1     -11.782  -8.212  14.877  0.00  0.00    -0.276 OA
ATOM      3  N   UNL     1      -7.218 -10.137  15.331  0.00  0.00    -0.299 NA
ATOM      4  N   UNL     1      -9.939  -9.336  15.735  0.00  0.00    -0.299 N 
ATOM     19  C   UNL     1      -7.996  -9.555  14.228  0.00  0.00    +0.103 C 
ATOM     20  C   UNL     1      -7.642  -9.565  16.617  0.00  0.00    +0.103 C 
ATOM     22  C   UNL     1      -9.490  -9.808  14.427  0.00  0.00    +0.123 C 
ATOM     23  C   UNL     1      -9.131  -9.811  16.863  0.00  0.00    +0.123 C 
ATOM     25  C   UNL     1     -11.119  -8.603  15.842  0.00  0.00    +0.213 C 
ATOM     27  C   UNL     1     -11.588  -8.277  17.238  0.00  0.00    +0.109 C 
ENDBRANCH  13   3
ENDBRANCH   9  13
BRANCH  11  16
ATOM     16  C   UNL     1      -2.055 -12.580  13.559  0.00  0.00    +0.105 C 
BRANCH  16  24
ATOM      1  O   UNL     1      -3.606 -11.210  12.264  0.00  0.00    -0.420 OA
ATOM      5  N   UNL     1      -1.474 -10.543  12.145  0.00  0.00    -0.112 NA
ATOM      6  N   UNL     1      -2.234  -9.685  11.371  0.00  0.00    -0.107 NA
ATOM     24  C   UNL     1      -2.315 -11.416  12.646  0.00  0.00    +0.218 A 
ATOM     26  C   UNL     1      -3.471 -10.113  11.470  0.00  0.00    +0.248 A 
BRANCH  26  28
ATOM     28  C   UNL     1      -4.679  -9.612  10.883  0.00  0.00    +0.039 A 
ATOM     29  C   UNL     1      -4.617  -8.669   9.856  0.00  0.00    +0.015 A 
ATOM     30  C   UNL     1      -5.916 -10.067  11.338  0.00  0.00    +0.015 A 
ATOM     31  C   UNL     1      -5.792  -8.181   9.284  0.00  0.00    +0.024 A 
ATOM     32  C   UNL     1      -7.092  -9.579  10.766  0.00  0.00    +0.024 A 
ATOM     33  C   UNL     1      -7.030  -8.637   9.739  0.00  0.00    +0.029 A 
BRANCH  33   7
ATOM      7  N   UNL     1      -8.218  -8.142   9.162  0.00  0.00    -0.336 N 
ATOM     34  C   UNL     1      -8.191  -6.957   8.328  0.00  0.00    +0.129 C 
ATOM     35  C   UNL     1      -9.482  -8.808   9.402  0.00  0.00    +0.129 C 
ENDBRANCH  33   7
ENDBRANCH  26  28
ENDBRANCH  16  24
ENDBRANCH  11  16
TORSDOF 7
ENDMDL
MODEL 9
REMARK VINA RESULT:      -6.6      3.347      8.548
REMARK  Name = 45783966
REMARK  13 active torsions:
REMARK  status: ('A' for Active; 'I' for Inactive)
REMARK    1  A    between atoms: N_3  and  C_13
REMARK    2  A    between atoms: N_7  and  C_33
REMARK    3  A    between atoms: N_7  and  C_34
REMARK    4  A    between atoms: N_7  and  C_35
REMARK    5  A    between atoms: C_8  and  C_12
REMARK    6  A    between atoms: C_9  and  C_13
REMARK    7  A    between atoms: C_11  and  C_16
REMARK    8  A    between atoms: C_12  and  C_17
REMARK    9  A    between atoms: C_12  and  C_18
REMARK   10  A    between atoms: C_15  and  C_21
REMARK   11  A    between atoms: C_16  and  C_24
REMARK   12  A    between atoms: C_25  and  C_27
REMARK   13  A    between atoms: C_26  and  C_28
REMARK                            x       y       z     vdW  Elec       q    Type
REMARK                         _______ _______ _______ _____ _____    ______ ____
ROOT
ATOM      8  C   UNL     1      -7.430 -12.364  17.022  0.00  0.00    +0.000 C 
ATOM      9  C   UNL     1      -7.493 -12.329  18.566  0.00  0.00    +0.029 C 
ATOM     10  C   UNL     1      -6.386 -11.364  16.503  0.00  0.00    +0.012 C 
ATOM     11  C   UNL     1      -4.975 -11.599  17.080  0.00  0.00    +0.024 C 
ATOM     14  C   UNL     1      -6.126 -12.292  19.201  0.00  0.00    -0.023 C 
ATOM     15  C   UNL     1      -4.989 -11.981  18.553  0.00  0.00    -0.073 C 
ATOM     21  C   UNL     1      -3.665 -12.060  19.264  0.00  0.00    +0.039 C 
ENDROOT
BRANCH   8  12
ATOM     12  C   UNL     1      -7.144 -13.782  16.505  0.00  0.00    -0.013 C 
ATOM     17  C   UNL     1      -8.121 -14.779  17.121  0.00  0.00    +0.007 C 
ATOM     18  C   UNL     1      -7.221 -13.818  14.983  0.00  0.00    +0.007 C 
ENDBRANCH   8  12
BRANCH   9  13
ATOM     13  C   UNL     1      -8.315 -11.139  19.072  0.00  0.00    +0.092 C 
BRANCH  13   3
ATOM      2  O   UNL     1     -13.671 -11.646  22.232  0.00  0.00    -0.276 OA
ATOM      3  N   UNL     1      -9.724 -11.505  19.207  0.00  0.00    -0.299 NA
ATOM      4  N   UNL     1     -12.096 -12.247  20.634  0.00  0.00    -0.299 N 
ATOM     19  C   UNL     1     -10.437 -10.520  20.032  0.00  0.00    +0.103 C 
ATOM     20  C   UNL     1      -9.855 -12.851  19.785  0.00  0.00    +0.103 C 
ATOM     22  C   UNL     1     -11.919 -10.880  20.147  0.00  0.00    +0.123 C 
ATOM     23  C   UNL     1     -11.325 -13.257  19.902  0.00  0.00    +0.123 C 
ATOM     25  C   UNL     1     -13.034 -12.514  21.629  0.00  0.00    +0.213 C 
ATOM     27  C   UNL     1     -13.259 -13.965  21.973  0.00  0.00    +0.109 C 
ENDBRANCH  13   3
ENDBRANCH   9  13
BRANCH  11  16
ATOM     16  C   UNL     1      -4.117 -10.360  16.795  0.00  0.00    +0.105 C 
BRANCH  16  24
ATOM      1  O   UNL     1      -4.071 -10.525  14.360  0.00  0.00    -0.420 OA
ATOM      5  N   UNL     1      -2.055 -10.626  15.323  0.00  0.00    -0.112 NA
ATOM      6  N   UNL     1      -1.880 -10.731  13.955  0.00  0.00    -0.107 NA
ATOM     24  C   UNL     1      -3.347 -10.508  15.513  0.00  0.00    +0.218 A 
ATOM     26  C   UNL     1      -3.083 -10.668  13.434  0.00  0.00    +0.248 A 
BRANCH  26  28
ATOM     28  C   UNL     1      -3.509 -10.723  12.067  0.00  0.00    +0.039 A 
ATOM     29  C   UNL     1      -3.087  -9.746  11.164  0.00  0.00    +0.015 A 
ATOM     30  C   UNL     1      -4.346 -11.754  11.638  0.00  0.00    +0.015 A 
ATOM     31  C   UNL     1      -3.501  -9.800   9.833  0.00  0.00    +0.024 A 
ATOM     32  C   UNL     1      -4.761 -11.808  10.307  0.00  0.00    +0.024 A 
ATOM     33  C   UNL     1      -4.337 -10.831   9.404  0.00  0.00    +0.029 A 
BRANCH  33   7
ATOM      7  N   UNL     1      -4.757 -10.885   8.059  0.00  0.00    -0.336 N 
ATOM     34  C   UNL     1      -5.544  -9.807   7.492  0.00  0.00    +0.129 C 
ATOM     35  C   UNL     1      -4.415 -12.021   7.228  0.00  0.00    +0.129 C 
ENDBRANCH  33   7
ENDBRANCH  26  28
ENDBRANCH  16  24
ENDBRANCH  11  16
TORSDOF 7
ENDMDL
MODEL 10
REMARK VINA RESULT:      -6.5      4.908      7.420
REMARK  Name = 45783966
REMARK  13 active torsions:
REMARK  status: ('A' for Active; 'I' for Inactive)
REMARK    1  A    between atoms: N_3  and  C_13
REMARK    2  A    between atoms: N_7  and  C_33
REMARK    3  A    between atoms: N_7  and  C_34
REMARK    4  A    between atoms: N_7  and  C_35
REMARK    5  A    between atoms: C_8  and  C_12
REMARK    6  A    between atoms: C_9  and  C_13
REMARK    7  A    between atoms: C_11  and  C_16
REMARK    8  A    between atoms: C_12  and  C_17
REMARK    9  A    between atoms: C_12  and  C_18
REMARK   10  A    between atoms: C_15  and  C_21
REMARK   11  A    between atoms: C_16  and  C_24
REMARK   12  A    between atoms: C_25  and  C_27
REMARK   13  A    between atoms: C_26  and  C_28
REMARK                            x       y       z     vdW  Elec       q    Type
REMARK                         _______ _______ _______ _____ _____    ______ ____
ROOT
ATOM      8  C   UNL     1      -5.181 -13.009   9.863  0.00  0.00    +0.000 C 
ATOM      9  C   UNL     1      -5.077 -12.365   8.461  0.00  0.00    +0.029 C 
ATOM     10  C   UNL     1      -3.995 -12.583  10.740  0.00  0.00    +0.012 C 
ATOM     11  C   UNL     1      -3.862 -11.053  10.888  0.00  0.00    +0.024 C 
ATOM     14  C   UNL     1      -4.688 -10.910   8.521  0.00  0.00    -0.023 C 
ATOM     15  C   UNL     1      -4.156 -10.303   9.597  0.00  0.00    -0.073 C 
ATOM     21  C   UNL     1      -3.884  -8.823   9.576  0.00  0.00    +0.039 C 
ENDROOT
BRANCH   8  12
ATOM     12  C   UNL     1      -6.519 -12.672  10.537  0.00  0.00    -0.013 C 
ATOM     17  C   UNL     1      -7.684 -13.140   9.670  0.00  0.00    +0.007 C 
ATOM     18  C   UNL     1      -6.589 -13.301  11.924  0.00  0.00    +0.007 C 
ENDBRANCH   8  12
BRANCH   9  13
ATOM     13  C   UNL     1      -4.086 -13.116   7.566  0.00  0.00    +0.092 C 
BRANCH  13   3
ATOM      2  O   UNL     1      -5.392 -12.980   1.467  0.00  0.00    -0.276 OA
ATOM      3  N   UNL     1      -4.041 -12.519   6.232  0.00  0.00    -0.299 NA
ATOM      4  N   UNL     1      -4.134 -12.535   3.368  0.00  0.00    -0.299 N 
ATOM     19  C   UNL     1      -5.314 -12.731   5.528  0.00  0.00    +0.103 C 
ATOM     20  C   UNL     1      -2.924 -13.075   5.454  0.00  0.00    +0.103 C 
ATOM     22  C   UNL     1      -5.284 -12.078   4.146  0.00  0.00    +0.123 C 
ATOM     23  C   UNL     1      -2.849 -12.435   4.067  0.00  0.00    +0.123 C 
ATOM     25  C   UNL     1      -4.299 -12.901   2.034  0.00  0.00    +0.213 C 
ATOM     27  C   UNL     1      -3.043 -13.222   1.262  0.00  0.00    +0.109 C 
ENDBRANCH  13   3
ENDBRANCH   9  13
BRANCH  11  16
ATOM     16  C   UNL     1      -2.475 -10.735  11.459  0.00  0.00    +0.105 C 
BRANCH  16  24
ATOM      1  O   UNL     1      -3.711 -10.838  13.561  0.00  0.00    -0.420 OA
ATOM      5  N   UNL     1      -1.537 -10.369  13.799  0.00  0.00    -0.112 NA
ATOM      6  N   UNL     1      -2.108 -10.396  15.058  0.00  0.00    -0.107 NA
ATOM     24  C   UNL     1      -2.509 -10.632  12.958  0.00  0.00    +0.218 A 
ATOM     26  C   UNL     1      -3.378 -10.673  14.871  0.00  0.00    +0.248 A 
BRANCH  26  28
ATOM     28  C   UNL     1      -4.446 -10.826  15.814  0.00  0.00    +0.039 A 
ATOM     29  C   UNL     1      -4.203 -10.656  17.178  0.00  0.00    +0.015 A 
ATOM     30  C   UNL     1      -5.729 -11.144  15.369  0.00  0.00    +0.015 A 
ATOM     31  C   UNL     1      -5.242 -10.805  18.096  0.00  0.00    +0.024 A 
ATOM     32  C   UNL     1      -6.769 -11.294  16.287  0.00  0.00    +0.024 A 
ATOM     33  C   UNL     1      -6.525 -11.124  17.651  0.00  0.00    +0.029 A 
BRANCH  33   7
ATOM      7  N   UNL     1      -7.576 -11.276  18.579  0.00  0.00    -0.336 N 
ATOM     34  C   UNL     1      -7.424 -12.154  19.722  0.00  0.00    +0.129 C 
ATOM     35  C   UNL     1      -8.824 -10.563  18.398  0.00  0.00    +0.129 C 
ENDBRANCH  33   7
ENDBRANCH  26  28
ENDBRANCH  16  24
ENDBRANCH  11  16
TORSDOF 7
ENDMDL
