MODEL 1
REMARK VINA RESULT:      -6.4      0.000      0.000
REMARK  Name = 26763589
REMARK  4 active torsions:
REMARK  status: ('A' for Active; 'I' for Inactive)
REMARK    1  A    between atoms: S_1  and  N_8
REMARK    2  A    between atoms: S_1  and  C_25
REMARK    3  A    between atoms: N_10  and  C_18
REMARK    4  A    between atoms: C_13  and  C_17
REMARK                            x       y       z     vdW  Elec       q    Type
REMARK                         _______ _______ _______ _____ _____    ______ ____
ROOT
ATOM      5  O   UNL     1      13.575   3.545   0.539  0.00  0.00    -0.377 OA
ATOM      6  O   UNL     1       9.843   6.829   0.874  0.00  0.00    -0.252 OA
ATOM      8  N   UNL     1      10.013   7.180   5.771  0.00  0.00    -0.167 NA
ATOM      9  N   UNL     1      10.120   6.149   3.058  0.00  0.00    -0.282 N 
ATOM     11  N   UNL     1      11.417   5.200   1.280  0.00  0.00    -0.281 N 
ATOM     13  C   UNL     1      11.214   6.444   5.291  0.00  0.00    +0.182 C 
ATOM     14  C   UNL     1      10.920   5.512   4.116  0.00  0.00    +0.139 C 
ATOM     15  C   UNL     1       8.775   6.953   4.977  0.00  0.00    +0.129 C 
ATOM     16  C   UNL     1       9.101   7.097   3.500  0.00  0.00    +0.126 C 
ATOM     19  C   UNL     1      10.421   6.095   1.687  0.00  0.00    +0.305 C 
ATOM     22  C   UNL     1      12.242   5.531   0.118  0.00  0.00    +0.137 C 
ATOM     23  C   UNL     1      11.418   3.771   1.608  0.00  0.00    +0.137 C 
ATOM     27  C   UNL     1      13.641   4.953   0.290  0.00  0.00    +0.179 C 
ATOM     28  C   UNL     1      12.845   3.263   1.738  0.00  0.00    +0.179 C 
ENDROOT
BRANCH   8   1
ATOM      1  S   UNL     1       9.809   7.309   7.463  0.00  0.00    +0.030 S 
ATOM      3  O   UNL     1      10.683   6.355   8.112  0.00  0.00    -0.158 OA
ATOM      4  O   UNL     1       8.394   7.368   7.759  0.00  0.00    -0.158 OA
ATOM     25  C   UNL     1      10.489   8.929   7.708  0.00  0.00    +0.215 C 
ENDBRANCH   8   1
BRANCH  13  17
ATOM      2  O   UNL     1      11.825   8.585   4.442  0.00  0.00    -0.274 OA
ATOM     10  N   UNL     1      13.500   7.134   5.158  0.00  0.00    -0.303 N 
ATOM     17  C   UNL     1      12.190   7.514   4.919  0.00  0.00    +0.234 C 
ATOM     29  H   UNL     1      13.683   6.223   5.567  0.00  0.00    +0.149 HD
BRANCH  10  18
ATOM      7  O   UNL     1      14.994   6.564   2.942  0.00  0.00    -0.274 OA
ATOM     12  N   UNL     1      16.842   7.544   3.862  0.00  0.00    -0.314 N 
ATOM     18  C   UNL     1      14.629   7.978   4.864  0.00  0.00    +0.159 C 
ATOM     20  C   UNL     1      15.369   8.356   6.140  0.00  0.00    +0.033 C 
ATOM     21  C   UNL     1      16.650   9.094   5.786  0.00  0.00    +0.021 C 
ATOM     24  C   UNL     1      15.491   7.264   3.827  0.00  0.00    +0.233 C 
ATOM     26  C   UNL     1      17.539   8.180   4.964  0.00  0.00    +0.104 C 
ATOM     30  H   UNL     1      17.416   7.121   3.140  0.00  0.00    +0.149 HD
ENDBRANCH  10  18
ENDBRANCH  13  17
TORSDOF 3
ENDMDL
MODEL 2
REMARK VINA RESULT:      -6.0     26.544     28.665
REMARK  Name = 26763589
REMARK  4 active torsions:
REMARK  status: ('A' for Active; 'I' for Inactive)
REMARK    1  A    between atoms: S_1  and  N_8
REMARK    2  A    between atoms: S_1  and  C_25
REMARK    3  A    between atoms: N_10  and  C_18
REMARK    4  A    between atoms: C_13  and  C_17
REMARK                            x       y       z     vdW  Elec       q    Type
REMARK                         _______ _______ _______ _____ _____    ______ ____
ROOT
ATOM      5  O   UNL     1      -1.969 -15.490  13.983  0.00  0.00    -0.377 OA
ATOM      6  O   UNL     1      -6.656 -13.902  13.410  0.00  0.00    -0.252 OA
ATOM      8  N   UNL     1      -7.269 -12.649  18.120  0.00  0.00    -0.167 NA
ATOM      9  N   UNL     1      -6.436 -14.023  15.701  0.00  0.00    -0.282 N 
ATOM     11  N   UNL     1      -4.661 -14.695  14.238  0.00  0.00    -0.281 N 
ATOM     13  C   UNL     1      -5.829 -12.936  17.874  0.00  0.00    +0.182 C 
ATOM     14  C   UNL     1      -5.603 -14.102  16.911  0.00  0.00    +0.139 C 
ATOM     15  C   UNL     1      -8.221 -13.474  17.330  0.00  0.00    +0.129 C 
ATOM     16  C   UNL     1      -7.781 -13.480  15.875  0.00  0.00    +0.126 C 
ATOM     19  C   UNL     1      -5.961 -14.199  14.391  0.00  0.00    +0.305 C 
ATOM     22  C   UNL     1      -3.871 -14.284  13.078  0.00  0.00    +0.137 C 
ATOM     23  C   UNL     1      -4.177 -15.931  14.864  0.00  0.00    +0.137 C 
ATOM     27  C   UNL     1      -2.393 -14.235  13.443  0.00  0.00    +0.179 C 
ATOM     28  C   UNL     1      -2.693 -15.815  15.175  0.00  0.00    +0.179 C 
ENDROOT
BRANCH   8   1
ATOM      1  S   UNL     1      -7.724 -12.311  19.733  0.00  0.00    +0.030 S 
ATOM      3  O   UNL     1      -6.614 -11.672  20.406  0.00  0.00    -0.158 OA
ATOM      4  O   UNL     1      -8.381 -13.475  20.285  0.00  0.00    -0.158 OA
ATOM     25  C   UNL     1      -8.962 -11.077  19.426  0.00  0.00    +0.215 C 
ENDBRANCH   8   1
BRANCH  13  17
ATOM      2  O   UNL     1      -5.871 -10.590  17.458  0.00  0.00    -0.274 OA
ATOM     10  N   UNL     1      -4.065 -11.841  16.687  0.00  0.00    -0.303 N 
ATOM     17  C   UNL     1      -5.276 -11.657  17.334  0.00  0.00    +0.234 C 
ATOM     29  H   UNL     1      -3.659 -12.771  16.654  0.00  0.00    +0.149 HD
BRANCH  10  18
ATOM      7  O   UNL     1      -4.881 -10.996  14.219  0.00  0.00    -0.274 OA
ATOM     12  N   UNL     1      -2.780 -10.254  13.712  0.00  0.00    -0.314 N 
ATOM     18  C   UNL     1      -3.337 -10.768  16.060  0.00  0.00    +0.159 C 
ATOM     20  C   UNL     1      -1.841 -10.918  16.298  0.00  0.00    +0.033 C 
ATOM     21  C   UNL     1      -1.088  -9.879  15.483  0.00  0.00    +0.021 C 
ATOM     24  C   UNL     1      -3.736 -10.726  14.589  0.00  0.00    +0.233 C 
ATOM     26  C   UNL     1      -1.368 -10.108  14.010  0.00  0.00    +0.104 C 
ATOM     30  H   UNL     1      -3.055 -10.167  12.738  0.00  0.00    +0.149 HD
ENDBRANCH  10  18
ENDBRANCH  13  17
TORSDOF 3
ENDMDL
MODEL 3
REMARK VINA RESULT:      -5.9     28.616     31.301
REMARK  Name = 26763589
REMARK  4 active torsions:
REMARK  status: ('A' for Active; 'I' for Inactive)
REMARK    1  A    between atoms: S_1  and  N_8
REMARK    2  A    between atoms: S_1  and  C_25
REMARK    3  A    between atoms: N_10  and  C_18
REMARK    4  A    between atoms: C_13  and  C_17
REMARK                            x       y       z     vdW  Elec       q    Type
REMARK                         _______ _______ _______ _____ _____    ______ ____
ROOT
ATOM      5  O   UNL     1     -12.731  -6.106  15.997  0.00  0.00    -0.377 OA
ATOM      6  O   UNL     1     -10.298  -9.879  13.837  0.00  0.00    -0.252 OA
ATOM      8  N   UNL     1      -7.167 -10.564  17.560  0.00  0.00    -0.167 NA
ATOM      9  N   UNL     1      -8.922  -9.331  15.603  0.00  0.00    -0.282 N 
ATOM     11  N   UNL     1     -10.918  -8.088  15.141  0.00  0.00    -0.281 N 
ATOM     13  C   UNL     1      -8.249  -9.639  17.995  0.00  0.00    +0.182 C 
ATOM     14  C   UNL     1      -8.691  -8.671  16.897  0.00  0.00    +0.139 C 
ATOM     15  C   UNL     1      -6.775 -10.449  16.131  0.00  0.00    +0.129 C 
ATOM     16  C   UNL     1      -8.028 -10.438  15.272  0.00  0.00    +0.126 C 
ATOM     19  C   UNL     1     -10.057  -9.136  14.798  0.00  0.00    +0.305 C 
ATOM     22  C   UNL     1     -12.347  -8.217  14.860  0.00  0.00    +0.137 C 
ATOM     23  C   UNL     1     -10.484  -6.699  15.328  0.00  0.00    +0.137 C 
ATOM     27  C   UNL     1     -13.157  -7.470  15.912  0.00  0.00    +0.179 C 
ATOM     28  C   UNL     1     -11.352  -6.015  16.372  0.00  0.00    +0.179 C 
ENDROOT
BRANCH   8   1
ATOM      1  S   UNL     1      -5.897 -10.844  18.670  0.00  0.00    +0.030 S 
ATOM      3  O   UNL     1      -6.327 -10.424  19.986  0.00  0.00    -0.158 OA
ATOM      4  O   UNL     1      -4.659 -10.373  18.088  0.00  0.00    -0.158 OA
ATOM     25  C   UNL     1      -5.878 -12.617  18.639  0.00  0.00    +0.215 C 
ENDBRANCH   8   1
BRANCH  13  17
ATOM      2  O   UNL     1      -9.274 -11.760  18.356  0.00  0.00    -0.274 OA
ATOM     10  N   UNL     1     -10.468  -9.828  18.867  0.00  0.00    -0.303 N 
ATOM     17  C   UNL     1      -9.365 -10.537  18.424  0.00  0.00    +0.234 C 
ATOM     29  H   UNL     1     -10.426  -8.813  18.890  0.00  0.00    +0.149 HD
BRANCH  10  18
ATOM      7  O   UNL     1     -12.195 -10.787  16.979  0.00  0.00    -0.274 OA
ATOM     12  N   UNL     1     -13.971 -10.554  18.398  0.00  0.00    -0.314 N 
ATOM     18  C   UNL     1     -11.682 -10.459  19.315  0.00  0.00    +0.159 C 
ATOM     20  C   UNL     1     -12.274  -9.714  20.503  0.00  0.00    +0.033 C 
ATOM     21  C   UNL     1     -13.638 -10.294  20.840  0.00  0.00    +0.021 C 
ATOM     24  C   UNL     1     -12.619 -10.577  18.117  0.00  0.00    +0.233 C 
ATOM     26  C   UNL     1     -14.561 -10.116  19.649  0.00  0.00    +0.104 C 
ATOM     30  H   UNL     1     -14.603 -10.689  17.615  0.00  0.00    +0.149 HD
ENDBRANCH  10  18
ENDBRANCH  13  17
TORSDOF 3
ENDMDL
MODEL 4
REMARK VINA RESULT:      -5.8      2.787      6.205
REMARK  Name = 26763589
REMARK  4 active torsions:
REMARK  status: ('A' for Active; 'I' for Inactive)
REMARK    1  A    between atoms: S_1  and  N_8
REMARK    2  A    between atoms: S_1  and  C_25
REMARK    3  A    between atoms: N_10  and  C_18
REMARK    4  A    between atoms: C_13  and  C_17
REMARK                            x       y       z     vdW  Elec       q    Type
REMARK                         _______ _______ _______ _____ _____    ______ ____
ROOT
ATOM      5  O   UNL     1      16.067   9.124   6.171  0.00  0.00    -0.377 OA
ATOM      6  O   UNL     1      13.133  10.470   2.377  0.00  0.00    -0.252 OA
ATOM      8  N   UNL     1      11.885   5.882   1.144  0.00  0.00    -0.167 NA
ATOM      9  N   UNL     1      13.377   8.202   2.051  0.00  0.00    -0.282 N 
ATOM     11  N   UNL     1      14.509   9.338   3.831  0.00  0.00    -0.281 N 
ATOM     13  C   UNL     1      12.583   5.863   2.458  0.00  0.00    +0.182 C 
ATOM     14  C   UNL     1      13.735   6.863   2.543  0.00  0.00    +0.139 C 
ATOM     15  C   UNL     1      12.364   6.917   0.190  0.00  0.00    +0.129 C 
ATOM     16  C   UNL     1      12.461   8.250   0.913  0.00  0.00    +0.126 C 
ATOM     19  C   UNL     1      13.651   9.402   2.728  0.00  0.00    +0.305 C 
ATOM     22  C   UNL     1      14.321  10.276   4.938  0.00  0.00    +0.137 C 
ATOM     23  C   UNL     1      15.850   8.743   3.793  0.00  0.00    +0.137 C 
ATOM     27  C   UNL     1      14.728   9.622   6.252  0.00  0.00    +0.179 C 
ATOM     28  C   UNL     1      16.192   8.135   5.144  0.00  0.00    +0.179 C 
ENDROOT
BRANCH   8   1
ATOM      1  S   UNL     1      11.470   4.368   0.466  0.00  0.00    +0.030 S 
ATOM      3  O   UNL     1      11.804   4.380  -0.941  0.00  0.00    -0.158 OA
ATOM      4  O   UNL     1      10.152   3.995   0.932  0.00  0.00    -0.158 OA
ATOM     25  C   UNL     1      12.656   3.347   1.302  0.00  0.00    +0.215 C 
ENDBRANCH   8   1
BRANCH  13  17
ATOM      2  O   UNL     1      10.400   6.555   3.118  0.00  0.00    -0.274 OA
ATOM     10  N   UNL     1      11.943   5.967   4.760  0.00  0.00    -0.303 N 
ATOM     17  C   UNL     1      11.513   6.163   3.458  0.00  0.00    +0.234 C 
ATOM     29  H   UNL     1      12.886   5.629   4.923  0.00  0.00    +0.149 HD
BRANCH  10  18
ATOM      7  O   UNL     1      13.154   6.637   7.116  0.00  0.00    -0.274 OA
ATOM     12  N   UNL     1      11.405   5.799   8.324  0.00  0.00    -0.314 N 
ATOM     18  C   UNL     1      11.109   6.209   5.909  0.00  0.00    +0.159 C 
ATOM     20  C   UNL     1       9.959   5.212   5.962  0.00  0.00    +0.033 C 
ATOM     21  C   UNL     1       9.202   5.376   7.270  0.00  0.00    +0.021 C 
ATOM     24  C   UNL     1      12.001   6.203   7.146  0.00  0.00    +0.233 C 
ATOM     26  C   UNL     1      10.143   5.091   8.426  0.00  0.00    +0.104 C 
ATOM     30  H   UNL     1      11.973   5.847   9.164  0.00  0.00    +0.149 HD
ENDBRANCH  10  18
ENDBRANCH  13  17
TORSDOF 3
ENDMDL
MODEL 5
REMARK VINA RESULT:      -5.8     27.001     30.069
REMARK  Name = 26763589
REMARK  4 active torsions:
REMARK  status: ('A' for Active; 'I' for Inactive)
REMARK    1  A    between atoms: S_1  and  N_8
REMARK    2  A    between atoms: S_1  and  C_25
REMARK    3  A    between atoms: N_10  and  C_18
REMARK    4  A    between atoms: C_13  and  C_17
REMARK                            x       y       z     vdW  Elec       q    Type
REMARK                         _______ _______ _______ _____ _____    ______ ____
ROOT
ATOM      5  O   UNL     1     -10.794 -13.074  19.027  0.00  0.00    -0.377 OA
ATOM      6  O   UNL     1      -6.749 -10.415  20.205  0.00  0.00    -0.252 OA
ATOM      8  N   UNL     1      -4.370 -11.364  16.013  0.00  0.00    -0.167 NA
ATOM      9  N   UNL     1      -6.050 -11.619  18.368  0.00  0.00    -0.282 N 
ATOM     11  N   UNL     1      -8.238 -11.915  19.297  0.00  0.00    -0.281 N 
ATOM     13  C   UNL     1      -5.783 -11.813  15.886  0.00  0.00    +0.182 C 
ATOM     14  C   UNL     1      -6.339 -12.425  17.172  0.00  0.00    +0.139 C 
ATOM     15  C   UNL     1      -3.784 -11.502  17.372  0.00  0.00    +0.129 C 
ATOM     16  C   UNL     1      -4.758 -10.936  18.391  0.00  0.00    +0.126 C 
ATOM     19  C   UNL     1      -6.996 -11.273  19.347  0.00  0.00    +0.305 C 
ATOM     22  C   UNL     1      -9.430 -11.202  19.756  0.00  0.00    +0.137 C 
ATOM     23  C   UNL     1      -8.406 -13.372  19.268  0.00  0.00    +0.137 C 
ATOM     27  C   UNL     1     -10.647 -11.652  18.959  0.00  0.00    +0.179 C 
ATOM     28  C   UNL     1      -9.652 -13.741  18.478  0.00  0.00    +0.179 C 
ENDROOT
BRANCH   8   1
ATOM      1  S   UNL     1      -3.328 -11.712  14.703  0.00  0.00    +0.030 S 
ATOM      3  O   UNL     1      -3.620 -10.800  13.619  0.00  0.00    -0.158 OA
ATOM      4  O   UNL     1      -3.294 -13.145  14.504  0.00  0.00    -0.158 OA
ATOM     25  C   UNL     1      -1.785 -11.223  15.430  0.00  0.00    +0.215 C 
ENDBRANCH   8   1
BRANCH  13  17
ATOM      2  O   UNL     1      -5.962  -9.542  15.187  0.00  0.00    -0.274 OA
ATOM     10  N   UNL     1      -7.908 -10.777  15.520  0.00  0.00    -0.303 N 
ATOM     17  C   UNL     1      -6.536 -10.585  15.486  0.00  0.00    +0.234 C 
ATOM     29  H   UNL     1      -8.272 -11.690  15.774  0.00  0.00    +0.149 HD
BRANCH  10  18
ATOM      7  O   UNL     1      -8.398  -8.852  17.397  0.00  0.00    -0.274 OA
ATOM     12  N   UNL     1     -10.485  -8.471  16.548  0.00  0.00    -0.314 N 
ATOM     18  C   UNL     1      -8.855  -9.741  15.200  0.00  0.00    +0.159 C 
ATOM     20  C   UNL     1     -10.046 -10.312  14.442  0.00  0.00    +0.033 C 
ATOM     21  C   UNL     1     -11.106  -9.235  14.273  0.00  0.00    +0.021 C 
ATOM     24  C   UNL     1      -9.221  -9.023  16.495  0.00  0.00    +0.233 C 
ATOM     26  C   UNL     1     -11.576  -8.783  15.643  0.00  0.00    +0.104 C 
ATOM     30  H   UNL     1     -10.719  -7.941  17.382  0.00  0.00    +0.149 HD
ENDBRANCH  10  18
ENDBRANCH  13  17
TORSDOF 3
ENDMDL
MODEL 6
REMARK VINA RESULT:      -5.7      2.871      7.370
REMARK  Name = 26763589
REMARK  4 active torsions:
REMARK  status: ('A' for Active; 'I' for Inactive)
REMARK    1  A    between atoms: S_1  and  N_8
REMARK    2  A    between atoms: S_1  and  C_25
REMARK    3  A    between atoms: N_10  and  C_18
REMARK    4  A    between atoms: C_13  and  C_17
REMARK                            x       y       z     vdW  Elec       q    Type
REMARK                         _______ _______ _______ _____ _____    ______ ____
ROOT
ATOM      5  O   UNL     1       9.073   7.319   8.295  0.00  0.00    -0.377 OA
ATOM      6  O   UNL     1      13.182   8.046   5.574  0.00  0.00    -0.252 OA
ATOM      8  N   UNL     1      11.412   5.892   1.530  0.00  0.00    -0.167 NA
ATOM      9  N   UNL     1      11.989   6.541   4.301  0.00  0.00    -0.282 N 
ATOM     11  N   UNL     1      11.193   7.278   6.438  0.00  0.00    -0.281 N 
ATOM     13  C   UNL     1      10.304   6.089   2.504  0.00  0.00    +0.182 C 
ATOM     14  C   UNL     1      10.731   5.862   3.955  0.00  0.00    +0.139 C 
ATOM     15  C   UNL     1      12.740   5.605   2.133  0.00  0.00    +0.129 C 
ATOM     16  C   UNL     1      13.003   6.601   3.250  0.00  0.00    +0.126 C 
ATOM     19  C   UNL     1      12.184   7.324   5.450  0.00  0.00    +0.305 C 
ATOM     22  C   UNL     1      10.946   8.464   7.258  0.00  0.00    +0.137 C 
ATOM     23  C   UNL     1      10.697   6.037   7.043  0.00  0.00    +0.137 C 
ATOM     27  C   UNL     1       9.476   8.531   7.650  0.00  0.00    +0.179 C 
ATOM     28  C   UNL     1       9.234   6.191   7.428  0.00  0.00    +0.179 C 
ENDROOT
BRANCH   8   1
ATOM      1  S   UNL     1      11.037   5.044   0.094  0.00  0.00    +0.030 S 
ATOM      3  O   UNL     1      11.244   5.924  -1.035  0.00  0.00    -0.158 OA
ATOM      4  O   UNL     1       9.792   4.332   0.286  0.00  0.00    -0.158 OA
ATOM     25  C   UNL     1      12.355   3.857   0.113  0.00  0.00    +0.215 C 
ENDBRANCH   8   1
BRANCH  13  17
ATOM      2  O   UNL     1      10.499   8.289   1.609  0.00  0.00    -0.274 OA
ATOM     10  N   UNL     1       8.641   7.759   2.909  0.00  0.00    -0.303 N 
ATOM     17  C   UNL     1       9.843   7.492   2.275  0.00  0.00    +0.234 C 
ATOM     29  H   UNL     1       8.181   7.017   3.427  0.00  0.00    +0.149 HD
BRANCH  10  18
ATOM      7  O   UNL     1       7.541   8.735   5.212  0.00  0.00    -0.274 OA
ATOM     12  N   UNL     1       6.043   9.995   4.034  0.00  0.00    -0.314 N 
ATOM     18  C   UNL     1       7.995   9.045   2.862  0.00  0.00    +0.159 C 
ATOM     20  C   UNL     1       7.199   9.204   1.574  0.00  0.00    +0.033 C 
ATOM     21  C   UNL     1       6.390  10.489   1.630  0.00  0.00    +0.021 C 
ATOM     24  C   UNL     1       7.168   9.202   4.134  0.00  0.00    +0.233 C 
ATOM     26  C   UNL     1       5.418  10.413   2.793  0.00  0.00    +0.104 C 
ATOM     30  H   UNL     1       5.517  10.153   4.888  0.00  0.00    +0.149 HD
ENDBRANCH  10  18
ENDBRANCH  13  17
TORSDOF 3
ENDMDL
MODEL 7
REMARK VINA RESULT:      -5.6      2.532      5.780
REMARK  Name = 26763589
REMARK  4 active torsions:
REMARK  status: ('A' for Active; 'I' for Inactive)
REMARK    1  A    between atoms: S_1  and  N_8
REMARK    2  A    between atoms: S_1  and  C_25
REMARK    3  A    between atoms: N_10  and  C_18
REMARK    4  A    between atoms: C_13  and  C_17
REMARK                            x       y       z     vdW  Elec       q    Type
REMARK                         _______ _______ _______ _____ _____    ______ ____
ROOT
ATOM      5  O   UNL     1      14.806  12.760   4.879  0.00  0.00    -0.377 OA
ATOM      6  O   UNL     1      15.893   8.116   6.318  0.00  0.00    -0.252 OA
ATOM      8  N   UNL     1      11.246   6.528   6.206  0.00  0.00    -0.167 NA
ATOM      9  N   UNL     1      13.601   8.194   6.540  0.00  0.00    -0.282 N 
ATOM     11  N   UNL     1      14.858  10.119   5.864  0.00  0.00    -0.281 N 
ATOM     13  C   UNL     1      11.323   7.864   5.556  0.00  0.00    +0.182 C 
ATOM     14  C   UNL     1      12.301   8.815   6.246  0.00  0.00    +0.139 C 
ATOM     15  C   UNL     1      12.187   6.322   7.339  0.00  0.00    +0.129 C 
ATOM     16  C   UNL     1      13.573   6.784   6.921  0.00  0.00    +0.126 C 
ATOM     19  C   UNL     1      14.847   8.775   6.253  0.00  0.00    +0.305 C 
ATOM     22  C   UNL     1      15.889  10.587   4.939  0.00  0.00    +0.137 C 
ATOM     23  C   UNL     1      14.232  11.199   6.635  0.00  0.00    +0.137 C 
ATOM     27  C   UNL     1      15.339  11.709   4.067  0.00  0.00    +0.179 C 
ATOM     28  C   UNL     1      13.732  12.289   5.700  0.00  0.00    +0.179 C 
ENDROOT
BRANCH   8   1
ATOM      1  S   UNL     1       9.691   5.842   6.384  0.00  0.00    +0.030 S 
ATOM      3  O   UNL     1       9.793   4.665   7.219  0.00  0.00    -0.158 OA
ATOM      4  O   UNL     1       9.048   5.803   5.089  0.00  0.00    -0.158 OA
ATOM     25  C   UNL     1       8.922   7.125   7.339  0.00  0.00    +0.215 C 
ENDBRANCH   8   1
BRANCH  13  17
ATOM      2  O   UNL     1      11.801   8.465   3.300  0.00  0.00    -0.274 OA
ATOM     10  N   UNL     1      11.983   6.232   3.937  0.00  0.00    -0.303 N 
ATOM     17  C   UNL     1      11.730   7.578   4.147  0.00  0.00    +0.234 C 
ATOM     29  H   UNL     1      11.902   5.588   4.718  0.00  0.00    +0.149 HD
BRANCH  10  18
ATOM      7  O   UNL     1      10.750   3.954   3.070  0.00  0.00    -0.274 OA
ATOM     12  N   UNL     1      12.554   3.395   1.784  0.00  0.00    -0.314 N 
ATOM     18  C   UNL     1      12.371   5.694   2.659  0.00  0.00    +0.159 C 
ATOM     20  C   UNL     1      13.876   5.805   2.459  0.00  0.00    +0.033 C 
ATOM     21  C   UNL     1      14.277   5.075   1.188  0.00  0.00    +0.021 C 
ATOM     24  C   UNL     1      11.829   4.271   2.565  0.00  0.00    +0.233 C 
ATOM     26  C   UNL     1      13.914   3.608   1.324  0.00  0.00    +0.104 C 
ATOM     30  H   UNL     1      12.172   2.462   1.667  0.00  0.00    +0.149 HD
ENDBRANCH  10  18
ENDBRANCH  13  17
TORSDOF 3
ENDMDL
MODEL 8
REMARK VINA RESULT:      -5.5     25.285     27.975
REMARK  Name = 26763589
REMARK  4 active torsions:
REMARK  status: ('A' for Active; 'I' for Inactive)
REMARK    1  A    between atoms: S_1  and  N_8
REMARK    2  A    between atoms: S_1  and  C_25
REMARK    3  A    between atoms: N_10  and  C_18
REMARK    4  A    between atoms: C_13  and  C_17
REMARK                            x       y       z     vdW  Elec       q    Type
REMARK                         _______ _______ _______ _____ _____    ______ ____
ROOT
ATOM      5  O   UNL     1      -9.864 -14.198  17.115  0.00  0.00    -0.377 OA
ATOM      6  O   UNL     1      -7.738  -9.698  17.330  0.00  0.00    -0.252 OA
ATOM      8  N   UNL     1      -3.598 -11.065  15.067  0.00  0.00    -0.167 NA
ATOM      9  N   UNL     1      -5.982 -11.062  16.726  0.00  0.00    -0.282 N 
ATOM     11  N   UNL     1      -8.159 -11.955  17.180  0.00  0.00    -0.281 N 
ATOM     13  C   UNL     1      -4.608 -12.151  14.938  0.00  0.00    +0.182 C 
ATOM     14  C   UNL     1      -5.463 -12.331  16.192  0.00  0.00    +0.139 C 
ATOM     15  C   UNL     1      -3.657 -10.296  16.339  0.00  0.00    +0.129 C 
ATOM     16  C   UNL     1      -5.099  -9.903  16.613  0.00  0.00    +0.126 C 
ATOM     19  C   UNL     1      -7.317 -10.840  17.101  0.00  0.00    +0.305 C 
ATOM     22  C   UNL     1      -9.582 -11.798  16.882  0.00  0.00    +0.137 C 
ATOM     23  C   UNL     1      -7.857 -13.155  17.969  0.00  0.00    +0.137 C 
ATOM     27  C   UNL     1     -10.131 -13.078  16.265  0.00  0.00    +0.179 C 
ATOM     28  C   UNL     1      -8.457 -14.383  17.304  0.00  0.00    +0.179 C 
ENDROOT
BRANCH   8   1
ATOM      1  S   UNL     1      -2.035 -11.385  14.453  0.00  0.00    +0.030 S 
ATOM      3  O   UNL     1      -1.832 -10.593  13.260  0.00  0.00    -0.158 OA
ATOM      4  O   UNL     1      -1.815 -12.815  14.463  0.00  0.00    -0.158 OA
ATOM     25  C   UNL     1      -1.065 -10.672  15.756  0.00  0.00    +0.215 C 
ENDBRANCH   8   1
BRANCH  13  17
ATOM      2  O   UNL     1      -6.628 -12.037  13.679  0.00  0.00    -0.274 OA
ATOM     10  N   UNL     1      -4.693 -11.092  12.795  0.00  0.00    -0.303 N 
ATOM     17  C   UNL     1      -5.434 -11.760  13.755  0.00  0.00    +0.234 C 
ATOM     29  H   UNL     1      -3.709 -10.908  12.970  0.00  0.00    +0.149 HD
BRANCH  10  18
ATOM      7  O   UNL     1      -3.568 -11.979  10.467  0.00  0.00    -0.274 OA
ATOM     12  N   UNL     1      -4.265 -10.111   9.350  0.00  0.00    -0.314 N 
ATOM     18  C   UNL     1      -5.251 -10.629  11.551  0.00  0.00    +0.159 C 
ATOM     20  C   UNL     1      -5.626  -9.156  11.641  0.00  0.00    +0.033 C 
ATOM     21  C   UNL     1      -6.045  -8.653  10.269  0.00  0.00    +0.021 C 
ATOM     24  C   UNL     1      -4.258 -10.957  10.440  0.00  0.00    +0.233 C 
ATOM     26  C   UNL     1      -4.878  -8.797   9.311  0.00  0.00    +0.104 C 
ATOM     30  H   UNL     1      -3.649 -10.353   8.579  0.00  0.00    +0.149 HD
ENDBRANCH  10  18
ENDBRANCH  13  17
TORSDOF 3
ENDMDL
MODEL 9
REMARK VINA RESULT:      -5.5      3.272      6.405
REMARK  Name = 26763589
REMARK  4 active torsions:
REMARK  status: ('A' for Active; 'I' for Inactive)
REMARK    1  A    between atoms: S_1  and  N_8
REMARK    2  A    between atoms: S_1  and  C_25
REMARK    3  A    between atoms: N_10  and  C_18
REMARK    4  A    between atoms: C_13  and  C_17
REMARK                            x       y       z     vdW  Elec       q    Type
REMARK                         _______ _______ _______ _____ _____    ______ ____
ROOT
ATOM      5  O   UNL     1      10.675  11.241   5.558  0.00  0.00    -0.377 OA
ATOM      6  O   UNL     1       8.617   8.701   1.799  0.00  0.00    -0.252 OA
ATOM      8  N   UNL     1      12.147   5.291   1.596  0.00  0.00    -0.167 NA
ATOM      9  N   UNL     1      10.740   7.811   1.913  0.00  0.00    -0.282 N 
ATOM     11  N   UNL     1      10.060   9.609   3.344  0.00  0.00    -0.281 N 
ATOM     13  C   UNL     1      12.319   6.100   2.833  0.00  0.00    +0.182 C 
ATOM     14  C   UNL     1      12.002   7.582   2.633  0.00  0.00    +0.139 C 
ATOM     15  C   UNL     1      11.617   6.036   0.423  0.00  0.00    +0.129 C 
ATOM     16  C   UNL     1      10.413   6.853   0.859  0.00  0.00    +0.126 C 
ATOM     19  C   UNL     1       9.742   8.714   2.316  0.00  0.00    +0.305 C 
ATOM     22  C   UNL     1       9.005  10.056   4.253  0.00  0.00    +0.137 C 
ATOM     23  C   UNL     1      11.229  10.495   3.326  0.00  0.00    +0.137 C 
ATOM     27  C   UNL     1       9.585  10.317   5.637  0.00  0.00    +0.179 C 
ATOM     28  C   UNL     1      11.732  10.728   4.741  0.00  0.00    +0.179 C 
ENDROOT
BRANCH   8   1
ATOM      1  S   UNL     1      13.348   4.120   1.265  0.00  0.00    +0.030 S 
ATOM      3  O   UNL     1      12.875   2.828   1.713  0.00  0.00    -0.158 OA
ATOM      4  O   UNL     1      14.634   4.644   1.672  0.00  0.00    -0.158 OA
ATOM     25  C   UNL     1      13.285   4.141  -0.508  0.00  0.00    +0.215 C 
ENDBRANCH   8   1
BRANCH  13  17
ATOM      2  O   UNL     1      10.815   4.414   3.592  0.00  0.00    -0.274 OA
ATOM     10  N   UNL     1      11.298   6.211   4.993  0.00  0.00    -0.303 N 
ATOM     17  C   UNL     1      11.403   5.467   3.830  0.00  0.00    +0.234 C 
ATOM     29  H   UNL     1      11.841   7.065   5.083  0.00  0.00    +0.149 HD
BRANCH  10  18
ATOM      7  O   UNL     1       8.631   6.789   4.852  0.00  0.00    -0.274 OA
ATOM     12  N   UNL     1       8.461   6.841   7.130  0.00  0.00    -0.314 N 
ATOM     18  C   UNL     1      10.461   5.828   6.100  0.00  0.00    +0.159 C 
ATOM     20  C   UNL     1      11.169   6.071   7.425  0.00  0.00    +0.033 C 
ATOM     21  C   UNL     1      10.203   5.826   8.572  0.00  0.00    +0.021 C 
ATOM     24  C   UNL     1       9.130   6.560   5.956  0.00  0.00    +0.233 C 
ATOM     26  C   UNL     1       9.043   6.798   8.459  0.00  0.00    +0.104 C 
ATOM     30  H   UNL     1       7.547   7.276   7.044  0.00  0.00    +0.149 HD
ENDBRANCH  10  18
ENDBRANCH  13  17
TORSDOF 3
ENDMDL
MODEL 10
REMARK VINA RESULT:      -5.4     24.970     27.654
REMARK  Name = 26763589
REMARK  4 active torsions:
REMARK  status: ('A' for Active; 'I' for Inactive)
REMARK    1  A    between atoms: S_1  and  N_8
REMARK    2  A    between atoms: S_1  and  C_25
REMARK    3  A    between atoms: N_10  and  C_18
REMARK    4  A    between atoms: C_13  and  C_17
REMARK                            x       y       z     vdW  Elec       q    Type
REMARK                         _______ _______ _______ _____ _____    ______ ____
ROOT
ATOM      5  O   UNL     1      -6.870 -11.451  18.625  0.00  0.00    -0.377 OA
ATOM      6  O   UNL     1      -2.573 -10.424  16.325  0.00  0.00    -0.252 OA
ATOM      8  N   UNL     1      -3.211 -13.707  12.727  0.00  0.00    -0.167 NA
ATOM      9  N   UNL     1      -3.236 -12.385  15.312  0.00  0.00    -0.282 N 
ATOM     11  N   UNL     1      -4.500 -11.412  17.100  0.00  0.00    -0.281 N 
ATOM     13  C   UNL     1      -4.483 -13.559  13.486  0.00  0.00    +0.182 C 
ATOM     14  C   UNL     1      -4.270 -13.380  14.989  0.00  0.00    +0.139 C 
ATOM     15  C   UNL     1      -1.973 -13.564  13.537  0.00  0.00    +0.129 C 
ATOM     16  C   UNL     1      -2.090 -12.325  14.408  0.00  0.00    +0.126 C 
ATOM     19  C   UNL     1      -3.385 -11.356  16.257  0.00  0.00    +0.305 C 
ATOM     22  C   UNL     1      -5.097 -10.165  17.579  0.00  0.00    +0.137 C 
ATOM     23  C   UNL     1      -4.851 -12.578  17.919  0.00  0.00    +0.137 C 
ATOM     27  C   UNL     1      -6.598 -10.341  17.763  0.00  0.00    +0.179 C 
ATOM     28  C   UNL     1      -6.360 -12.671  18.078  0.00  0.00    +0.179 C 
ENDROOT
BRANCH   8   1
ATOM      1  S   UNL     1      -3.177 -14.897  11.500  0.00  0.00    +0.030 S 
ATOM      3  O   UNL     1      -1.892 -15.562  11.532  0.00  0.00    -0.158 OA
ATOM      4  O   UNL     1      -3.708 -14.324  10.281  0.00  0.00    -0.158 OA
ATOM     25  C   UNL     1      -4.389 -16.015  12.154  0.00  0.00    +0.215 C 
ENDBRANCH   8   1
BRANCH  13  17
ATOM      2  O   UNL     1      -6.158 -11.867  13.372  0.00  0.00    -0.274 OA
ATOM     10  N   UNL     1      -4.522 -11.950  11.717  0.00  0.00    -0.303 N 
ATOM     17  C   UNL     1      -5.153 -12.370  12.876  0.00  0.00    +0.234 C 
ATOM     29  H   UNL     1      -3.687 -12.438  11.405  0.00  0.00    +0.149 HD
BRANCH  10  18
ATOM      7  O   UNL     1      -6.451 -12.416   9.838  0.00  0.00    -0.274 OA
ATOM     12  N   UNL     1      -5.753 -10.633   8.592  0.00  0.00    -0.314 N 
ATOM     18  C   UNL     1      -4.984 -10.838  10.927  0.00  0.00    +0.159 C 
ATOM     20  C   UNL     1      -3.826  -9.929  10.542  0.00  0.00    +0.033 C 
ATOM     21  C   UNL     1      -4.313  -8.868   9.569  0.00  0.00    +0.021 C 
ATOM     24  C   UNL     1      -5.764 -11.397   9.741  0.00  0.00    +0.233 C 
ATOM     26  C   UNL     1      -4.831  -9.547   8.315  0.00  0.00    +0.104 C 
ATOM     30  H   UNL     1      -6.316 -10.966   7.815  0.00  0.00    +0.149 HD
ENDBRANCH  10  18
ENDBRANCH  13  17
TORSDOF 3
ENDMDL
