MODEL 1
REMARK VINA RESULT:      -7.2      0.000      0.000
REMARK  Name = 38030984
REMARK  11 active torsions:
REMARK  status: ('A' for Active; 'I' for Inactive)
REMARK    1  A    between atoms: O_2  and  C_24
REMARK    2  A    between atoms: N_4  and  C_11
REMARK    3  A    between atoms: C_7  and  C_12
REMARK    4  A    between atoms: C_8  and  C_11
REMARK    5  A    between atoms: C_10  and  C_20
REMARK    6  A    between atoms: C_12  and  C_21
REMARK    7  A    between atoms: C_12  and  C_22
REMARK    8  A    between atoms: C_14  and  C_23
REMARK    9  A    between atoms: C_17  and  C_24
REMARK   10  A    between atoms: C_20  and  C_25
REMARK   11  A    between atoms: C_26  and  C_27
REMARK                            x       y       z     vdW  Elec       q    Type
REMARK                         _______ _______ _______ _____ _____    ______ ____
ROOT
ATOM      7  C   UNL     1      -5.528 -10.524  10.702  0.00  0.00    +0.000 C 
ATOM      8  C   UNL     1      -4.736 -10.187   9.418  0.00  0.00    +0.029 C 
ATOM      9  C   UNL     1      -4.626 -11.238  11.719  0.00  0.00    +0.012 C 
ATOM     10  C   UNL     1      -3.364 -10.429  12.091  0.00  0.00    +0.024 C 
ATOM     13  C   UNL     1      -3.368  -9.625   9.711  0.00  0.00    -0.023 C 
ATOM     14  C   UNL     1      -2.744  -9.712  10.901  0.00  0.00    -0.073 C 
ATOM     23  C   UNL     1      -1.415  -9.039  11.111  0.00  0.00    +0.039 C 
ENDROOT
BRANCH   7  12
ATOM     12  C   UNL     1      -6.166  -9.269  11.312  0.00  0.00    -0.013 C 
ATOM     21  C   UNL     1      -7.293  -8.759  10.420  0.00  0.00    +0.007 C 
ATOM     22  C   UNL     1      -6.680  -9.563  12.718  0.00  0.00    +0.007 C 
ENDBRANCH   7  12
BRANCH   8  11
ATOM     11  C   UNL     1      -4.593 -11.409   8.503  0.00  0.00    +0.092 C 
BRANCH  11   4
ATOM      4  N   UNL     1      -5.064 -11.101   7.153  0.00  0.00    -0.302 NA
ATOM     15  C   UNL     1      -5.998  -9.968   7.180  0.00  0.00    +0.085 C 
ATOM     16  C   UNL     1      -5.683 -12.285   6.542  0.00  0.00    +0.085 C 
ATOM     17  C   UNL     1      -7.091 -10.799   5.056  0.00  0.00    +0.017 C 
ATOM     18  C   UNL     1      -6.459  -9.598   5.769  0.00  0.00    +0.021 C 
ATOM     19  C   UNL     1      -6.132 -11.994   5.108  0.00  0.00    +0.021 C 
BRANCH  17  24
ATOM     24  C   UNL     1      -7.457 -10.453   3.616  0.00  0.00    +0.159 C 
BRANCH  24   2
ATOM      2  O   UNL     1      -6.753 -11.325   2.752  0.00  0.00    -0.395 OA
ATOM     33  H   UNL     1      -7.314 -12.109   2.616  0.00  0.00    +0.209 HD
ENDBRANCH  24   2
ENDBRANCH  17  24
ENDBRANCH  11   4
ENDBRANCH   8  11
BRANCH  10  20
ATOM     20  C   UNL     1      -2.378 -11.360  12.806  0.00  0.00    +0.105 C 
BRANCH  20  25
ATOM      3  O   UNL     1      -3.550 -11.197  14.941  0.00  0.00    -0.420 OA
ATOM      5  N   UNL     1      -1.351 -10.804  15.070  0.00  0.00    -0.112 NA
ATOM      6  N   UNL     1      -1.882 -10.679  16.340  0.00  0.00    -0.107 NA
ATOM     25  C   UNL     1      -2.359 -11.107  14.287  0.00  0.00    +0.218 A 
ATOM     26  C   UNL     1      -3.167 -10.916  16.216  0.00  0.00    +0.251 A 
BRANCH  26  27
ATOM      1  F   UNL     1      -5.478  -9.353  15.942  0.00  0.00    -0.205 F 
ATOM     27  C   UNL     1      -4.212 -10.926  17.200  0.00  0.00    +0.074 A 
ATOM     28  C   UNL     1      -5.346 -10.132  17.026  0.00  0.00    +0.136 A 
ATOM     29  C   UNL     1      -4.090 -11.730  18.332  0.00  0.00    +0.016 A 
ATOM     30  C   UNL     1      -6.359 -10.144  17.986  0.00  0.00    +0.039 A 
ATOM     31  C   UNL     1      -5.102 -11.742  19.292  0.00  0.00    +0.001 A 
ATOM     32  C   UNL     1      -6.237 -10.949  19.119  0.00  0.00    +0.003 A 
ENDBRANCH  26  27
ENDBRANCH  20  25
ENDBRANCH  10  20
TORSDOF 8
ENDMDL
MODEL 2
REMARK VINA RESULT:      -6.9     20.595     22.951
REMARK  Name = 38030984
REMARK  11 active torsions:
REMARK  status: ('A' for Active; 'I' for Inactive)
REMARK    1  A    between atoms: O_2  and  C_24
REMARK    2  A    between atoms: N_4  and  C_11
REMARK    3  A    between atoms: C_7  and  C_12
REMARK    4  A    between atoms: C_8  and  C_11
REMARK    5  A    between atoms: C_10  and  C_20
REMARK    6  A    between atoms: C_12  and  C_21
REMARK    7  A    between atoms: C_12  and  C_22
REMARK    8  A    between atoms: C_14  and  C_23
REMARK    9  A    between atoms: C_17  and  C_24
REMARK   10  A    between atoms: C_20  and  C_25
REMARK   11  A    between atoms: C_26  and  C_27
REMARK                            x       y       z     vdW  Elec       q    Type
REMARK                         _______ _______ _______ _____ _____    ______ ____
ROOT
ATOM      7  C   UNL     1     -13.597  10.372  21.795  0.00  0.00    +0.000 C 
ATOM      8  C   UNL     1     -12.195  10.306  21.147  0.00  0.00    +0.029 C 
ATOM      9  C   UNL     1     -14.536   9.340  21.153  0.00  0.00    +0.012 C 
ATOM     10  C   UNL     1     -14.000   7.894  21.233  0.00  0.00    +0.024 C 
ATOM     13  C   UNL     1     -11.712   8.891  20.953  0.00  0.00    -0.023 C 
ATOM     14  C   UNL     1     -12.500   7.800  21.000  0.00  0.00    -0.073 C 
ATOM     23  C   UNL     1     -11.901   6.426  20.879  0.00  0.00    +0.039 C 
ENDROOT
BRANCH   7  12
ATOM     12  C   UNL     1     -13.520  10.182  23.316  0.00  0.00    -0.013 C 
ATOM     21  C   UNL     1     -12.404  11.039  23.903  0.00  0.00    +0.007 C 
ATOM     22  C   UNL     1     -14.860  10.521  23.962  0.00  0.00    +0.007 C 
ENDBRANCH   7  12
BRANCH   8  11
ATOM     11  C   UNL     1     -12.157  11.039  19.802  0.00  0.00    +0.092 C 
BRANCH  11   4
ATOM      4  N   UNL     1     -11.707  10.143  18.737  0.00  0.00    -0.302 NA
ATOM     15  C   UNL     1     -10.554  10.718  18.034  0.00  0.00    +0.085 C 
ATOM     16  C   UNL     1     -12.808   9.856  17.807  0.00  0.00    +0.085 C 
ATOM     17  C   UNL     1     -11.144   9.400  15.958  0.00  0.00    +0.017 C 
ATOM     18  C   UNL     1     -10.037   9.769  16.951  0.00  0.00    +0.021 C 
ATOM     19  C   UNL     1     -12.368   8.875  16.718  0.00  0.00    +0.021 C 
BRANCH  17  24
ATOM     24  C   UNL     1     -10.650   8.375  14.941  0.00  0.00    +0.159 C 
BRANCH  24   2
ATOM      2  O   UNL     1     -10.155   7.249  15.642  0.00  0.00    -0.395 OA
ATOM     33  H   UNL     1     -10.192   6.492  15.032  0.00  0.00    +0.209 HD
ENDBRANCH  24   2
ENDBRANCH  17  24
ENDBRANCH  11   4
ENDBRANCH   8  11
BRANCH  10  20
ATOM     20  C   UNL     1     -14.810   7.019  20.268  0.00  0.00    +0.105 C 
BRANCH  20  25
ATOM      3  O   UNL     1     -15.514   5.983  22.363  0.00  0.00    -0.420 OA
ATOM      5  N   UNL     1     -16.319   4.982  20.530  0.00  0.00    -0.112 NA
ATOM      6  N   UNL     1     -16.792   4.298  21.633  0.00  0.00    -0.107 NA
ATOM     25  C   UNL     1     -15.577   5.957  21.003  0.00  0.00    +0.218 A 
ATOM     26  C   UNL     1     -16.298   4.917  22.680  0.00  0.00    +0.251 A 
BRANCH  26  27
ATOM      1  F   UNL     1     -17.851   6.554  24.342  0.00  0.00    -0.205 F 
ATOM     27  C   UNL     1     -16.453   4.648  24.081  0.00  0.00    +0.074 A 
ATOM     28  C   UNL     1     -17.235   5.488  24.873  0.00  0.00    +0.136 A 
ATOM     29  C   UNL     1     -15.820   3.543  24.649  0.00  0.00    +0.016 A 
ATOM     30  C   UNL     1     -17.382   5.223  26.235  0.00  0.00    +0.039 A 
ATOM     31  C   UNL     1     -15.967   3.278  26.010  0.00  0.00    +0.001 A 
ATOM     32  C   UNL     1     -16.748   4.119  26.804  0.00  0.00    +0.003 A 
ENDBRANCH  26  27
ENDBRANCH  20  25
ENDBRANCH  10  20
TORSDOF 8
ENDMDL
MODEL 3
REMARK VINA RESULT:      -6.7     27.320     29.527
REMARK  Name = 38030984
REMARK  11 active torsions:
REMARK  status: ('A' for Active; 'I' for Inactive)
REMARK    1  A    between atoms: O_2  and  C_24
REMARK    2  A    between atoms: N_4  and  C_11
REMARK    3  A    between atoms: C_7  and  C_12
REMARK    4  A    between atoms: C_8  and  C_11
REMARK    5  A    between atoms: C_10  and  C_20
REMARK    6  A    between atoms: C_12  and  C_21
REMARK    7  A    between atoms: C_12  and  C_22
REMARK    8  A    between atoms: C_14  and  C_23
REMARK    9  A    between atoms: C_17  and  C_24
REMARK   10  A    between atoms: C_20  and  C_25
REMARK   11  A    between atoms: C_26  and  C_27
REMARK                            x       y       z     vdW  Elec       q    Type
REMARK                         _______ _______ _______ _____ _____    ______ ____
ROOT
ATOM      7  C   UNL     1      12.372  12.968  20.857  0.00  0.00    +0.000 C 
ATOM      8  C   UNL     1      13.842  12.741  21.277  0.00  0.00    +0.029 C 
ATOM      9  C   UNL     1      11.457  11.924  21.515  0.00  0.00    +0.012 C 
ATOM     10  C   UNL     1      11.556  11.908  23.056  0.00  0.00    +0.024 C 
ATOM     13  C   UNL     1      13.988  12.457  22.750  0.00  0.00    -0.023 C 
ATOM     14  C   UNL     1      12.978  12.096  23.564  0.00  0.00    -0.073 C 
ATOM     23  C   UNL     1      13.217  11.921  25.038  0.00  0.00    +0.039 C 
ENDROOT
BRANCH   7  12
ATOM     12  C   UNL     1      11.910  14.394  21.185  0.00  0.00    -0.013 C 
ATOM     21  C   UNL     1      12.863  15.416  20.574  0.00  0.00    +0.007 C 
ATOM     22  C   UNL     1      10.485  14.620  20.689  0.00  0.00    +0.007 C 
ENDBRANCH   7  12
BRANCH   8  11
ATOM     11  C   UNL     1      14.490  11.604  20.479  0.00  0.00    +0.092 C 
BRANCH  11   4
ATOM      4  N   UNL     1      14.073  11.654  19.078  0.00  0.00    -0.302 NA
ATOM     15  C   UNL     1      14.110  10.313  18.481  0.00  0.00    +0.085 C 
ATOM     16  C   UNL     1      14.915  12.594  18.324  0.00  0.00    +0.085 C 
ATOM     17  C   UNL     1      14.442  11.325  16.188  0.00  0.00    +0.017 C 
ATOM     18  C   UNL     1      13.626  10.339  17.030  0.00  0.00    +0.021 C 
ATOM     19  C   UNL     1      14.456  12.699  16.868  0.00  0.00    +0.021 C 
BRANCH  17  24
ATOM     24  C   UNL     1      13.891  11.422  14.768  0.00  0.00    +0.159 C 
BRANCH  24   2
ATOM      2  O   UNL     1      12.657  10.730  14.717  0.00  0.00    -0.395 OA
ATOM     33  H   UNL     1      12.343  10.635  15.633  0.00  0.00    +0.209 HD
ENDBRANCH  24   2
ENDBRANCH  17  24
ENDBRANCH  11   4
ENDBRANCH   8  11
BRANCH  10  20
ATOM     20  C   UNL     1      10.902  10.622  23.575  0.00  0.00    +0.105 C 
BRANCH  20  25
ATOM      3  O   UNL     1      12.572   9.278  22.408  0.00  0.00    -0.420 OA
ATOM      5  N   UNL     1      10.478   8.517  22.204  0.00  0.00    -0.112 NA
ATOM      6  N   UNL     1      11.311   7.669  21.500  0.00  0.00    -0.107 NA
ATOM     25  C   UNL     1      11.256   9.441  22.717  0.00  0.00    +0.218 A 
ATOM     26  C   UNL     1      12.522   8.151  21.647  0.00  0.00    +0.251 A 
BRANCH  26  27
ATOM      1  F   UNL     1      12.752   6.966  19.117  0.00  0.00    -0.205 F 
ATOM     27  C   UNL     1      13.780   7.683  21.138  0.00  0.00    +0.074 A 
ATOM     28  C   UNL     1      13.851   7.098  19.874  0.00  0.00    +0.136 A 
ATOM     29  C   UNL     1      14.932   7.813  21.912  0.00  0.00    +0.016 A 
ATOM     30  C   UNL     1      15.075   6.643  19.384  0.00  0.00    +0.039 A 
ATOM     31  C   UNL     1      16.156   7.359  21.423  0.00  0.00    +0.001 A 
ATOM     32  C   UNL     1      16.228   6.773  20.159  0.00  0.00    +0.003 A 
ENDBRANCH  26  27
ENDBRANCH  20  25
ENDBRANCH  10  20
TORSDOF 8
ENDMDL
MODEL 4
REMARK VINA RESULT:      -6.7      3.696      8.745
REMARK  Name = 38030984
REMARK  11 active torsions:
REMARK  status: ('A' for Active; 'I' for Inactive)
REMARK    1  A    between atoms: O_2  and  C_24
REMARK    2  A    between atoms: N_4  and  C_11
REMARK    3  A    between atoms: C_7  and  C_12
REMARK    4  A    between atoms: C_8  and  C_11
REMARK    5  A    between atoms: C_10  and  C_20
REMARK    6  A    between atoms: C_12  and  C_21
REMARK    7  A    between atoms: C_12  and  C_22
REMARK    8  A    between atoms: C_14  and  C_23
REMARK    9  A    between atoms: C_17  and  C_24
REMARK   10  A    between atoms: C_20  and  C_25
REMARK   11  A    between atoms: C_26  and  C_27
REMARK                            x       y       z     vdW  Elec       q    Type
REMARK                         _______ _______ _______ _____ _____    ______ ____
ROOT
ATOM      7  C   UNL     1      -6.947 -12.028  16.999  0.00  0.00    +0.000 C 
ATOM      8  C   UNL     1      -7.073 -11.686  18.501  0.00  0.00    +0.029 C 
ATOM      9  C   UNL     1      -5.669 -11.412  16.412  0.00  0.00    +0.012 C 
ATOM     10  C   UNL     1      -4.384 -11.850  17.149  0.00  0.00    +0.024 C 
ATOM     13  C   UNL     1      -5.771 -11.845  19.243  0.00  0.00    -0.023 C 
ATOM     14  C   UNL     1      -4.562 -11.932  18.658  0.00  0.00    -0.073 C 
ATOM     23  C   UNL     1      -3.332 -12.177  19.489  0.00  0.00    +0.039 C 
ENDROOT
BRANCH   7  12
ATOM     12  C   UNL     1      -6.989 -13.544  16.764  0.00  0.00    -0.013 C 
ATOM     21  C   UNL     1      -8.248 -14.143  17.383  0.00  0.00    +0.007 C 
ATOM     22  C   UNL     1      -6.920 -13.853  15.272  0.00  0.00    +0.007 C 
ENDBRANCH   7  12
BRANCH   8  11
ATOM     11  C   UNL     1      -7.605 -10.265  18.716  0.00  0.00    +0.092 C 
BRANCH  11   4
ATOM      4  N   UNL     1      -8.812 -10.040  17.921  0.00  0.00    -0.302 NA
ATOM     15  C   UNL     1      -8.769  -8.718  17.283  0.00  0.00    +0.085 C 
ATOM     16  C   UNL     1     -10.013 -10.187  18.756  0.00  0.00    +0.085 C 
ATOM     17  C   UNL     1     -11.296  -8.656  17.205  0.00  0.00    +0.017 C 
ATOM     18  C   UNL     1     -10.000  -8.487  16.404  0.00  0.00    +0.021 C 
ATOM     19  C   UNL     1     -11.286 -10.009  17.926  0.00  0.00    +0.021 C 
BRANCH  17  24
ATOM     24  C   UNL     1     -12.520  -8.525  16.303  0.00  0.00    +0.159 C 
BRANCH  24   2
ATOM      2  O   UNL     1     -12.105  -7.999  15.056  0.00  0.00    -0.395 OA
ATOM     33  H   UNL     1     -11.308  -7.465  15.220  0.00  0.00    +0.209 HD
ENDBRANCH  24   2
ENDBRANCH  17  24
ENDBRANCH  11   4
ENDBRANCH   8  11
BRANCH  10  20
ATOM     20  C   UNL     1      -3.239 -10.919  16.732  0.00  0.00    +0.105 C 
BRANCH  20  25
ATOM      3  O   UNL     1      -3.487 -10.417  14.357  0.00  0.00    -0.420 OA
ATOM      5  N   UNL     1      -1.935 -11.964  14.809  0.00  0.00    -0.112 NA
ATOM      6  N   UNL     1      -1.969 -11.781  13.440  0.00  0.00    -0.107 NA
ATOM     25  C   UNL     1      -2.837 -11.149  15.303  0.00  0.00    +0.218 A 
ATOM     26  C   UNL     1      -2.888 -10.870  13.222  0.00  0.00    +0.251 A 
BRANCH  26  27
ATOM      1  F   UNL     1      -1.151  -9.562  11.453  0.00  0.00    -0.205 F 
ATOM     27  C   UNL     1      -3.351 -10.288  11.995  0.00  0.00    +0.074 A 
ATOM     28  C   UNL     1      -2.453  -9.645  11.142  0.00  0.00    +0.136 A 
ATOM     29  C   UNL     1      -4.701 -10.366  11.656  0.00  0.00    +0.016 A 
ATOM     30  C   UNL     1      -2.907  -9.080   9.950  0.00  0.00    +0.039 A 
ATOM     31  C   UNL     1      -5.155  -9.801  10.465  0.00  0.00    +0.001 A 
ATOM     32  C   UNL     1      -4.258  -9.157   9.611  0.00  0.00    +0.003 A 
ENDBRANCH  26  27
ENDBRANCH  20  25
ENDBRANCH  10  20
TORSDOF 8
ENDMDL
MODEL 5
REMARK VINA RESULT:      -6.7      3.173      9.260
REMARK  Name = 38030984
REMARK  11 active torsions:
REMARK  status: ('A' for Active; 'I' for Inactive)
REMARK    1  A    between atoms: O_2  and  C_24
REMARK    2  A    between atoms: N_4  and  C_11
REMARK    3  A    between atoms: C_7  and  C_12
REMARK    4  A    between atoms: C_8  and  C_11
REMARK    5  A    between atoms: C_10  and  C_20
REMARK    6  A    between atoms: C_12  and  C_21
REMARK    7  A    between atoms: C_12  and  C_22
REMARK    8  A    between atoms: C_14  and  C_23
REMARK    9  A    between atoms: C_17  and  C_24
REMARK   10  A    between atoms: C_20  and  C_25
REMARK   11  A    between atoms: C_26  and  C_27
REMARK                            x       y       z     vdW  Elec       q    Type
REMARK                         _______ _______ _______ _____ _____    ______ ____
ROOT
ATOM      7  C   UNL     1      -5.095 -11.955  15.374  0.00  0.00    +0.000 C 
ATOM      8  C   UNL     1      -4.758 -11.009  16.549  0.00  0.00    +0.029 C 
ATOM      9  C   UNL     1      -4.467 -11.441  14.071  0.00  0.00    +0.012 C 
ATOM     10  C   UNL     1      -2.936 -11.257  14.161  0.00  0.00    +0.024 C 
ATOM     13  C   UNL     1      -3.314 -10.575  16.548  0.00  0.00    -0.023 C 
ATOM     14  C   UNL     1      -2.482 -10.689  15.497  0.00  0.00    -0.073 C 
ATOM     23  C   UNL     1      -1.034 -10.304  15.631  0.00  0.00    +0.039 C 
ENDROOT
BRANCH   7  12
ATOM     12  C   UNL     1      -4.655 -13.395  15.671  0.00  0.00    -0.013 C 
ATOM     21  C   UNL     1      -5.231 -13.863  17.003  0.00  0.00    +0.007 C 
ATOM     22  C   UNL     1      -5.082 -14.325  14.540  0.00  0.00    +0.007 C 
ENDBRANCH   7  12
BRANCH   8  11
ATOM     11  C   UNL     1      -5.657  -9.767  16.552  0.00  0.00    +0.092 C 
BRANCH  11   4
ATOM      4  N   UNL     1      -6.742  -9.917  17.520  0.00  0.00    -0.302 NA
ATOM     15  C   UNL     1      -6.376 -10.891  18.557  0.00  0.00    +0.085 C 
ATOM     16  C   UNL     1      -7.987 -10.307  16.842  0.00  0.00    +0.085 C 
ATOM     17  C   UNL     1      -8.819 -11.397  18.967  0.00  0.00    +0.017 C 
ATOM     18  C   UNL     1      -7.479 -11.021  19.608  0.00  0.00    +0.021 C 
ATOM     19  C   UNL     1      -9.145 -10.415  17.836  0.00  0.00    +0.021 C 
BRANCH  17  24
ATOM     24  C   UNL     1      -9.936 -11.426  20.006  0.00  0.00    +0.159 C 
BRANCH  24   2
ATOM      2  O   UNL     1     -10.009 -10.155  20.623  0.00  0.00    -0.395 OA
ATOM     33  H   UNL     1     -10.660  -9.630  20.125  0.00  0.00    +0.209 HD
ENDBRANCH  24   2
ENDBRANCH  17  24
ENDBRANCH  11   4
ENDBRANCH   8  11
BRANCH  10  20
ATOM     20  C   UNL     1      -2.473 -10.416  12.965  0.00  0.00    +0.105 C 
BRANCH  20  25
ATOM      3  O   UNL     1      -4.031  -9.949  11.146  0.00  0.00    -0.420 OA
ATOM      5  N   UNL     1      -3.052 -11.956  11.020  0.00  0.00    -0.112 NA
ATOM      6  N   UNL     1      -3.900 -11.827   9.938  0.00  0.00    -0.107 NA
ATOM     25  C   UNL     1      -3.160 -10.838  11.698  0.00  0.00    +0.218 A 
ATOM     26  C   UNL     1      -4.450 -10.641  10.052  0.00  0.00    +0.251 A 
BRANCH  26  27
ATOM      1  F   UNL     1      -4.507 -11.007   7.273  0.00  0.00    -0.205 F 
ATOM     27  C   UNL     1      -5.407  -9.973   9.217  0.00  0.00    +0.074 A 
ATOM     28  C   UNL     1      -5.401 -10.182   7.838  0.00  0.00    +0.136 A 
ATOM     29  C   UNL     1      -6.344  -9.112   9.787  0.00  0.00    +0.016 A 
ATOM     30  C   UNL     1      -6.332  -9.530   7.029  0.00  0.00    +0.039 A 
ATOM     31  C   UNL     1      -7.275  -8.460   8.980  0.00  0.00    +0.001 A 
ATOM     32  C   UNL     1      -7.269  -8.668   7.600  0.00  0.00    +0.003 A 
ENDBRANCH  26  27
ENDBRANCH  20  25
ENDBRANCH  10  20
TORSDOF 8
ENDMDL
MODEL 6
REMARK VINA RESULT:      -6.7      3.205      5.576
REMARK  Name = 38030984
REMARK  11 active torsions:
REMARK  status: ('A' for Active; 'I' for Inactive)
REMARK    1  A    between atoms: O_2  and  C_24
REMARK    2  A    between atoms: N_4  and  C_11
REMARK    3  A    between atoms: C_7  and  C_12
REMARK    4  A    between atoms: C_8  and  C_11
REMARK    5  A    between atoms: C_10  and  C_20
REMARK    6  A    between atoms: C_12  and  C_21
REMARK    7  A    between atoms: C_12  and  C_22
REMARK    8  A    between atoms: C_14  and  C_23
REMARK    9  A    between atoms: C_17  and  C_24
REMARK   10  A    between atoms: C_20  and  C_25
REMARK   11  A    between atoms: C_26  and  C_27
REMARK                            x       y       z     vdW  Elec       q    Type
REMARK                         _______ _______ _______ _____ _____    ______ ____
ROOT
ATOM      7  C   UNL     1      -3.904 -10.625  15.328  0.00  0.00    +0.000 C 
ATOM      8  C   UNL     1      -4.866 -10.935  14.157  0.00  0.00    +0.029 C 
ATOM      9  C   UNL     1      -4.386 -11.309  16.615  0.00  0.00    +0.012 C 
ATOM     10  C   UNL     1      -4.548 -12.838  16.473  0.00  0.00    +0.024 C 
ATOM     13  C   UNL     1      -5.278 -12.385  14.113  0.00  0.00    -0.023 C 
ATOM     14  C   UNL     1      -5.133 -13.253  15.132  0.00  0.00    -0.073 C 
ATOM     23  C   UNL     1      -5.498 -14.701  14.951  0.00  0.00    +0.039 C 
ENDROOT
BRANCH   7  12
ATOM     12  C   UNL     1      -2.464 -11.032  14.990  0.00  0.00    -0.013 C 
ATOM     21  C   UNL     1      -2.049 -10.451  13.642  0.00  0.00    +0.007 C 
ATOM     22  C   UNL     1      -1.511 -10.577  16.091  0.00  0.00    +0.007 C 
ENDBRANCH   7  12
BRANCH   8  11
ATOM     11  C   UNL     1      -6.122 -10.057  14.209  0.00  0.00    +0.092 C 
BRANCH  11   4
ATOM      4  N   UNL     1      -6.358  -9.418  12.915  0.00  0.00    -0.302 NA
ATOM     15  C   UNL     1      -7.551  -9.985  12.272  0.00  0.00    +0.085 C 
ATOM     16  C   UNL     1      -5.176  -9.551  12.051  0.00  0.00    +0.085 C 
ATOM     17  C   UNL     1      -6.639  -9.363   9.996  0.00  0.00    +0.017 C 
ATOM     18  C   UNL     1      -7.844  -9.291  10.940  0.00  0.00    +0.021 C 
ATOM     19  C   UNL     1      -5.389  -8.840  10.713  0.00  0.00    +0.021 C 
BRANCH  17  24
ATOM     24  C   UNL     1      -6.901  -8.583   8.711  0.00  0.00    +0.159 C 
BRANCH  24   2
ATOM      2  O   UNL     1      -5.857  -8.862   7.797  0.00  0.00    -0.395 OA
ATOM     33  H   UNL     1      -6.073  -9.705   7.362  0.00  0.00    +0.209 HD
ENDBRANCH  24   2
ENDBRANCH  17  24
ENDBRANCH  11   4
ENDBRANCH   8  11
BRANCH  10  20
ATOM     20  C   UNL     1      -5.360 -13.357  17.665  0.00  0.00    +0.105 C 
BRANCH  20  25
ATOM      3  O   UNL     1      -7.184 -11.737  17.709  0.00  0.00    -0.420 OA
ATOM      5  N   UNL     1      -5.856 -11.669  19.508  0.00  0.00    -0.112 NA
ATOM      6  N   UNL     1      -6.836 -10.708  19.664  0.00  0.00    -0.107 NA
ATOM     25  C   UNL     1      -6.098 -12.245  18.354  0.00  0.00    +0.218 A 
ATOM     26  C   UNL     1      -7.588 -10.783  18.591  0.00  0.00    +0.251 A 
BRANCH  26  27
ATOM      1  F   UNL     1      -7.453  -8.683  16.739  0.00  0.00    -0.205 F 
ATOM     27  C   UNL     1      -8.748 -10.029  18.212  0.00  0.00    +0.074 A 
ATOM     28  C   UNL     1      -8.638  -8.991  17.287  0.00  0.00    +0.136 A 
ATOM     29  C   UNL     1      -9.988 -10.337  18.772  0.00  0.00    +0.016 A 
ATOM     30  C   UNL     1      -9.769  -8.260  16.922  0.00  0.00    +0.039 A 
ATOM     31  C   UNL     1     -11.118  -9.606  18.407  0.00  0.00    +0.001 A 
ATOM     32  C   UNL     1     -11.009  -8.567  17.482  0.00  0.00    +0.003 A 
ENDBRANCH  26  27
ENDBRANCH  20  25
ENDBRANCH  10  20
TORSDOF 8
ENDMDL
MODEL 7
REMARK VINA RESULT:      -6.5      3.035      9.750
REMARK  Name = 38030984
REMARK  11 active torsions:
REMARK  status: ('A' for Active; 'I' for Inactive)
REMARK    1  A    between atoms: O_2  and  C_24
REMARK    2  A    between atoms: N_4  and  C_11
REMARK    3  A    between atoms: C_7  and  C_12
REMARK    4  A    between atoms: C_8  and  C_11
REMARK    5  A    between atoms: C_10  and  C_20
REMARK    6  A    between atoms: C_12  and  C_21
REMARK    7  A    between atoms: C_12  and  C_22
REMARK    8  A    between atoms: C_14  and  C_23
REMARK    9  A    between atoms: C_17  and  C_24
REMARK   10  A    between atoms: C_20  and  C_25
REMARK   11  A    between atoms: C_26  and  C_27
REMARK                            x       y       z     vdW  Elec       q    Type
REMARK                         _______ _______ _______ _____ _____    ______ ____
ROOT
ATOM      7  C   UNL     1      -4.989 -11.691  13.464  0.00  0.00    +0.000 C 
ATOM      8  C   UNL     1      -3.513 -11.342  13.766  0.00  0.00    +0.029 C 
ATOM      9  C   UNL     1      -5.694 -10.507  12.787  0.00  0.00    +0.012 C 
ATOM     10  C   UNL     1      -5.000 -10.043  11.488  0.00  0.00    +0.024 C 
ATOM     13  C   UNL     1      -2.836 -10.640  12.615  0.00  0.00    -0.023 C 
ATOM     14  C   UNL     1      -3.482 -10.065  11.583  0.00  0.00    -0.073 C 
ATOM     23  C   UNL     1      -2.706  -9.467  10.442  0.00  0.00    +0.039 C 
ENDROOT
BRANCH   7  12
ATOM     12  C   UNL     1      -5.100 -12.963  12.614  0.00  0.00    -0.013 C 
ATOM     21  C   UNL     1      -4.281 -14.090  13.233  0.00  0.00    +0.007 C 
ATOM     22  C   UNL     1      -6.561 -13.375  12.463  0.00  0.00    +0.007 C 
ENDBRANCH   7  12
BRANCH   8  11
ATOM     11  C   UNL     1      -3.381 -10.481  15.027  0.00  0.00    +0.092 C 
BRANCH  11   4
ATOM      4  N   UNL     1      -4.317 -10.929  16.057  0.00  0.00    -0.302 NA
ATOM     15  C   UNL     1      -5.263  -9.856  16.394  0.00  0.00    +0.085 C 
ATOM     16  C   UNL     1      -3.591 -11.389  17.249  0.00  0.00    +0.085 C 
ATOM     17  C   UNL     1      -5.594 -10.849  18.696  0.00  0.00    +0.017 C 
ATOM     18  C   UNL     1      -6.284 -10.325  17.432  0.00  0.00    +0.021 C 
ATOM     19  C   UNL     1      -4.556 -11.912  18.315  0.00  0.00    +0.021 C 
BRANCH  17  24
ATOM     24  C   UNL     1      -6.612 -11.408  19.686  0.00  0.00    +0.159 C 
BRANCH  24   2
ATOM      2  O   UNL     1      -7.529 -10.382  20.015  0.00  0.00    -0.395 OA
ATOM     33  H   UNL     1      -7.455 -10.226  20.972  0.00  0.00    +0.209 HD
ENDBRANCH  24   2
ENDBRANCH  17  24
ENDBRANCH  11   4
ENDBRANCH   8  11
BRANCH  10  20
ATOM     20  C   UNL     1      -5.554  -8.666  11.103  0.00  0.00    +0.105 C 
BRANCH  20  25
ATOM      3  O   UNL     1      -6.294  -8.910   8.790  0.00  0.00    -0.420 OA
ATOM      5  N   UNL     1      -7.961  -8.779  10.276  0.00  0.00    -0.112 NA
ATOM      6  N   UNL     1      -8.519  -8.914   9.019  0.00  0.00    -0.107 NA
ATOM     25  C   UNL     1      -6.661  -8.782  10.094  0.00  0.00    +0.218 A 
ATOM     26  C   UNL     1      -7.510  -8.986   8.184  0.00  0.00    +0.251 A 
BRANCH  26  27
ATOM      1  F   UNL     1      -8.135  -6.859   6.468  0.00  0.00    -0.205 F 
ATOM     27  C   UNL     1      -7.490  -9.131   6.756  0.00  0.00    +0.074 A 
ATOM     28  C   UNL     1      -7.809  -8.047   5.937  0.00  0.00    +0.136 A 
ATOM     29  C   UNL     1      -7.153 -10.359   6.189  0.00  0.00    +0.016 A 
ATOM     30  C   UNL     1      -7.789  -8.193   4.550  0.00  0.00    +0.039 A 
ATOM     31  C   UNL     1      -7.134 -10.505   4.802  0.00  0.00    +0.001 A 
ATOM     32  C   UNL     1      -7.452  -9.422   3.982  0.00  0.00    +0.003 A 
ENDBRANCH  26  27
ENDBRANCH  20  25
ENDBRANCH  10  20
TORSDOF 8
ENDMDL
MODEL 8
REMARK VINA RESULT:      -6.4      2.959      9.509
REMARK  Name = 38030984
REMARK  11 active torsions:
REMARK  status: ('A' for Active; 'I' for Inactive)
REMARK    1  A    between atoms: O_2  and  C_24
REMARK    2  A    between atoms: N_4  and  C_11
REMARK    3  A    between atoms: C_7  and  C_12
REMARK    4  A    between atoms: C_8  and  C_11
REMARK    5  A    between atoms: C_10  and  C_20
REMARK    6  A    between atoms: C_12  and  C_21
REMARK    7  A    between atoms: C_12  and  C_22
REMARK    8  A    between atoms: C_14  and  C_23
REMARK    9  A    between atoms: C_17  and  C_24
REMARK   10  A    between atoms: C_20  and  C_25
REMARK   11  A    between atoms: C_26  and  C_27
REMARK                            x       y       z     vdW  Elec       q    Type
REMARK                         _______ _______ _______ _____ _____    ______ ____
ROOT
ATOM      7  C   UNL     1      -3.825 -12.215  14.186  0.00  0.00    +0.000 C 
ATOM      8  C   UNL     1      -2.559 -11.515  14.732  0.00  0.00    +0.029 C 
ATOM      9  C   UNL     1      -4.606 -11.271  13.262  0.00  0.00    +0.012 C 
ATOM     10  C   UNL     1      -3.766 -10.735  12.082  0.00  0.00    +0.024 C 
ATOM     13  C   UNL     1      -1.818 -10.744  13.669  0.00  0.00    -0.023 C 
ATOM     14  C   UNL     1      -2.335 -10.398  12.475  0.00  0.00    -0.073 C 
ATOM     23  C   UNL     1      -1.479  -9.704  11.451  0.00  0.00    +0.039 C 
ENDROOT
BRANCH   7  12
ATOM     12  C   UNL     1      -3.474 -13.526  13.471  0.00  0.00    -0.013 C 
ATOM     21  C   UNL     1      -2.606 -14.405  14.366  0.00  0.00    +0.007 C 
ATOM     22  C   UNL     1      -4.744 -14.263  13.058  0.00  0.00    +0.007 C 
ENDBRANCH   7  12
BRANCH   8  11
ATOM     11  C   UNL     1      -2.890 -10.574  15.896  0.00  0.00    +0.092 C 
BRANCH  11   4
ATOM      4  N   UNL     1      -4.067 -11.047  16.623  0.00  0.00    -0.302 NA
ATOM     15  C   UNL     1      -5.072  -9.980  16.723  0.00  0.00    +0.085 C 
ATOM     16  C   UNL     1      -3.687 -11.544  17.953  0.00  0.00    +0.085 C 
ATOM     17  C   UNL     1      -6.007 -11.037  18.822  0.00  0.00    +0.017 C 
ATOM     18  C   UNL     1      -6.334 -10.474  17.435  0.00  0.00    +0.021 C 
ATOM     19  C   UNL     1      -4.901 -12.093  18.704  0.00  0.00    +0.021 C 
BRANCH  17  24
ATOM     24  C   UNL     1      -7.252 -11.620  19.485  0.00  0.00    +0.159 C 
BRANCH  24   2
ATOM      2  O   UNL     1      -8.060 -10.551  19.941  0.00  0.00    -0.395 OA
ATOM     33  H   UNL     1      -7.925  -9.807  19.328  0.00  0.00    +0.209 HD
ENDBRANCH  24   2
ENDBRANCH  17  24
ENDBRANCH  11   4
ENDBRANCH   8  11
BRANCH  10  20
ATOM     20  C   UNL     1      -4.507  -9.550  11.451  0.00  0.00    +0.105 C 
BRANCH  20  25
ATOM      3  O   UNL     1      -4.420 -10.989   9.482  0.00  0.00    -0.420 OA
ATOM      5  N   UNL     1      -5.160  -8.917   9.071  0.00  0.00    -0.112 NA
ATOM      6  N   UNL     1      -5.162  -9.616   7.879  0.00  0.00    -0.107 NA
ATOM     25  C   UNL     1      -4.720  -9.757   9.979  0.00  0.00    +0.218 A 
ATOM     26  C   UNL     1      -4.723 -10.819   8.166  0.00  0.00    +0.251 A 
BRANCH  26  27
ATOM      1  F   UNL     1      -5.132 -10.711   5.395  0.00  0.00    -0.205 F 
ATOM     27  C   UNL     1      -4.518 -11.962   7.323  0.00  0.00    +0.074 A 
ATOM     28  C   UNL     1      -4.734 -11.866   5.948  0.00  0.00    +0.136 A 
ATOM     29  C   UNL     1      -4.103 -13.170   7.882  0.00  0.00    +0.016 A 
ATOM     30  C   UNL     1      -4.534 -12.980   5.132  0.00  0.00    +0.039 A 
ATOM     31  C   UNL     1      -3.904 -14.284   7.067  0.00  0.00    +0.001 A 
ATOM     32  C   UNL     1      -4.119 -14.189   5.691  0.00  0.00    +0.003 A 
ENDBRANCH  26  27
ENDBRANCH  20  25
ENDBRANCH  10  20
TORSDOF 8
ENDMDL
MODEL 9
REMARK VINA RESULT:      -6.3     23.045     26.368
REMARK  Name = 38030984
REMARK  11 active torsions:
REMARK  status: ('A' for Active; 'I' for Inactive)
REMARK    1  A    between atoms: O_2  and  C_24
REMARK    2  A    between atoms: N_4  and  C_11
REMARK    3  A    between atoms: C_7  and  C_12
REMARK    4  A    between atoms: C_8  and  C_11
REMARK    5  A    between atoms: C_10  and  C_20
REMARK    6  A    between atoms: C_12  and  C_21
REMARK    7  A    between atoms: C_12  and  C_22
REMARK    8  A    between atoms: C_14  and  C_23
REMARK    9  A    between atoms: C_17  and  C_24
REMARK   10  A    between atoms: C_20  and  C_25
REMARK   11  A    between atoms: C_26  and  C_27
REMARK                            x       y       z     vdW  Elec       q    Type
REMARK                         _______ _______ _______ _____ _____    ______ ____
ROOT
ATOM      7  C   UNL     1       9.386   9.904   5.860  0.00  0.00    +0.000 C 
ATOM      8  C   UNL     1       9.327   9.911   7.405  0.00  0.00    +0.029 C 
ATOM      9  C   UNL     1      10.406   8.869   5.365  0.00  0.00    +0.012 C 
ATOM     10  C   UNL     1      10.123   7.439   5.875  0.00  0.00    +0.024 C 
ATOM     13  C   UNL     1       9.310   8.522   7.991  0.00  0.00    -0.023 C 
ATOM     14  C   UNL     1       9.650   7.405   7.321  0.00  0.00    -0.073 C 
ATOM     23  C   UNL     1       9.515   6.058   7.976  0.00  0.00    +0.039 C 
ENDROOT
BRANCH   7  12
ATOM     12  C   UNL     1       8.001   9.655   5.248  0.00  0.00    -0.013 C 
ATOM     21  C   UNL     1       7.305  10.978   4.951  0.00  0.00    +0.007 C 
ATOM     22  C   UNL     1       8.123   8.811   3.984  0.00  0.00    +0.007 C 
ENDBRANCH   7  12
BRANCH   8  11
ATOM     11  C   UNL     1      10.492  10.700   8.013  0.00  0.00    +0.092 C 
BRANCH  11   4
ATOM      4  N   UNL     1      10.215  11.037   9.409  0.00  0.00    -0.302 NA
ATOM     15  C   UNL     1       8.982  11.829   9.512  0.00  0.00    +0.085 C 
ATOM     16  C   UNL     1      11.355  11.750  10.003  0.00  0.00    +0.085 C 
ATOM     17  C   UNL     1       9.809  12.864  11.666  0.00  0.00    +0.017 C 
ATOM     18  C   UNL     1       8.648  12.145  10.971  0.00  0.00    +0.021 C 
ATOM     19  C   UNL     1      11.101  12.061  11.479  0.00  0.00    +0.021 C 
BRANCH  17  24
ATOM     24  C   UNL     1       9.511  13.086  13.146  0.00  0.00    +0.159 C 
BRANCH  24   2
ATOM      2  O   UNL     1       8.304  12.419  13.466  0.00  0.00    -0.395 OA
ATOM     33  H   UNL     1       7.611  12.787  12.891  0.00  0.00    +0.209 HD
ENDBRANCH  24   2
ENDBRANCH  17  24
ENDBRANCH  11   4
ENDBRANCH   8  11
BRANCH  10  20
ATOM     20  C   UNL     1      11.368   6.578   5.634  0.00  0.00    +0.105 C 
BRANCH  20  25
ATOM      3  O   UNL     1      11.832   5.527   3.481  0.00  0.00    -0.420 OA
ATOM      5  N   UNL     1      10.251   4.496   4.682  0.00  0.00    -0.112 NA
ATOM      6  N   UNL     1      10.409   3.801   3.499  0.00  0.00    -0.107 NA
ATOM     25  C   UNL     1      11.100   5.494   4.629  0.00  0.00    +0.218 A 
ATOM     26  C   UNL     1      11.341   4.438   2.829  0.00  0.00    +0.251 A 
BRANCH  26  27
ATOM      1  F   UNL     1       9.839   4.634   0.470  0.00  0.00    -0.205 F 
ATOM     27  C   UNL     1      11.912   4.168   1.541  0.00  0.00    +0.074 A 
ATOM     28  C   UNL     1      11.130   4.277   0.391  0.00  0.00    +0.136 A 
ATOM     29  C   UNL     1      13.252   3.796   1.441  0.00  0.00    +0.016 A 
ATOM     30  C   UNL     1      11.689   4.013  -0.860  0.00  0.00    +0.039 A 
ATOM     31  C   UNL     1      13.811   3.532   0.191  0.00  0.00    +0.001 A 
ATOM     32  C   UNL     1      13.030   3.640  -0.960  0.00  0.00    +0.003 A 
ENDBRANCH  26  27
ENDBRANCH  20  25
ENDBRANCH  10  20
TORSDOF 8
ENDMDL
MODEL 10
REMARK VINA RESULT:      -6.3      4.311      7.527
REMARK  Name = 38030984
REMARK  11 active torsions:
REMARK  status: ('A' for Active; 'I' for Inactive)
REMARK    1  A    between atoms: O_2  and  C_24
REMARK    2  A    between atoms: N_4  and  C_11
REMARK    3  A    between atoms: C_7  and  C_12
REMARK    4  A    between atoms: C_8  and  C_11
REMARK    5  A    between atoms: C_10  and  C_20
REMARK    6  A    between atoms: C_12  and  C_21
REMARK    7  A    between atoms: C_12  and  C_22
REMARK    8  A    between atoms: C_14  and  C_23
REMARK    9  A    between atoms: C_17  and  C_24
REMARK   10  A    between atoms: C_20  and  C_25
REMARK   11  A    between atoms: C_26  and  C_27
REMARK                            x       y       z     vdW  Elec       q    Type
REMARK                         _______ _______ _______ _____ _____    ______ ____
ROOT
ATOM      7  C   UNL     1      -4.993 -11.068  17.659  0.00  0.00    +0.000 C 
ATOM      8  C   UNL     1      -3.918 -11.633  16.702  0.00  0.00    +0.029 C 
ATOM      9  C   UNL     1      -6.350 -10.973  16.948  0.00  0.00    +0.012 C 
ATOM     10  C   UNL     1      -6.834 -12.322  16.370  0.00  0.00    +0.024 C 
ATOM     13  C   UNL     1      -4.415 -12.811  15.902  0.00  0.00    -0.023 C 
ATOM     14  C   UNL     1      -5.711 -13.142  15.753  0.00  0.00    -0.073 C 
ATOM     23  C   UNL     1      -6.093 -14.389  15.004  0.00  0.00    +0.039 C 
ENDROOT
BRANCH   7  12
ATOM     12  C   UNL     1      -5.095 -11.904  18.941  0.00  0.00    -0.013 C 
ATOM     21  C   UNL     1      -3.705 -12.221  19.482  0.00  0.00    +0.007 C 
ATOM     22  C   UNL     1      -5.929 -11.173  19.988  0.00  0.00    +0.007 C 
ENDBRANCH   7  12
BRANCH   8  11
ATOM     11  C   UNL     1      -3.393 -10.559  15.742  0.00  0.00    +0.092 C 
BRANCH  11   4
ATOM      4  N   UNL     1      -3.541 -10.991  14.353  0.00  0.00    -0.302 NA
ATOM     15  C   UNL     1      -2.288 -10.784  13.614  0.00  0.00    +0.085 C 
ATOM     16  C   UNL     1      -4.659 -10.285  13.710  0.00  0.00    +0.085 C 
ATOM     17  C   UNL     1      -3.578 -10.607  11.446  0.00  0.00    +0.017 C 
ATOM     18  C   UNL     1      -2.409 -11.281  12.172  0.00  0.00    +0.021 C 
ATOM     19  C   UNL     1      -4.860 -10.767  12.272  0.00  0.00    +0.021 C 
BRANCH  17  24
ATOM     24  C   UNL     1      -3.757 -11.179  10.043  0.00  0.00    +0.159 C 
BRANCH  24   2
ATOM      2  O   UNL     1      -5.050 -11.747   9.950  0.00  0.00    -0.395 OA
ATOM     33  H   UNL     1      -4.947 -12.634   9.564  0.00  0.00    +0.209 HD
ENDBRANCH  24   2
ENDBRANCH  17  24
ENDBRANCH  11   4
ENDBRANCH   8  11
BRANCH  10  20
ATOM     20  C   UNL     1      -7.983 -12.052  15.392  0.00  0.00    +0.105 C 
BRANCH  20  25
ATOM      3  O   UNL     1      -9.559 -10.201  15.617  0.00  0.00    -0.420 OA
ATOM      5  N   UNL     1      -9.868 -11.852  17.095  0.00  0.00    -0.112 NA
ATOM      6  N   UNL     1     -10.820 -10.880  17.335  0.00  0.00    -0.107 NA
ATOM     25  C   UNL     1      -9.154 -11.414  16.085  0.00  0.00    +0.218 A 
ATOM     26  C   UNL     1     -10.602  -9.936  16.450  0.00  0.00    +0.251 A 
BRANCH  26  27
ATOM      1  F   UNL     1      -9.466  -7.478  17.174  0.00  0.00    -0.205 F 
ATOM     27  C   UNL     1     -11.280  -8.691  16.228  0.00  0.00    +0.074 A 
ATOM     28  C   UNL     1     -10.680  -7.489  16.604  0.00  0.00    +0.136 A 
ATOM     29  C   UNL     1     -12.543  -8.686  15.636  0.00  0.00    +0.016 A 
ATOM     30  C   UNL     1     -11.344  -6.282  16.387  0.00  0.00    +0.039 A 
ATOM     31  C   UNL     1     -13.206  -7.479  15.419  0.00  0.00    +0.001 A 
ATOM     32  C   UNL     1     -12.607  -6.276  15.795  0.00  0.00    +0.003 A 
ENDBRANCH  26  27
ENDBRANCH  20  25
ENDBRANCH  10  20
TORSDOF 8
ENDMDL
