MODEL 1
REMARK VINA RESULT:      -7.1      0.000      0.000
REMARK  Name = 45784104
REMARK  10 active torsions:
REMARK  status: ('A' for Active; 'I' for Inactive)
REMARK    1  A    between atoms: N_2  and  C_15
REMARK    2  A    between atoms: N_8  and  C_35
REMARK    3  A    between atoms: C_10  and  C_14
REMARK    4  A    between atoms: C_11  and  C_15
REMARK    5  A    between atoms: C_13  and  C_18
REMARK    6  A    between atoms: C_14  and  C_19
REMARK    7  A    between atoms: C_14  and  C_20
REMARK    8  A    between atoms: C_17  and  C_23
REMARK    9  A    between atoms: C_18  and  C_26
REMARK   10  A    between atoms: C_28  and  C_30
REMARK                            x       y       z     vdW  Elec       q    Type
REMARK                         _______ _______ _______ _____ _____    ______ ____
ROOT
ATOM     10  C   UNL     1      -5.539 -10.455  10.617  0.00  0.00    +0.000 C 
ATOM     11  C   UNL     1      -4.722 -10.083   9.358  0.00  0.00    +0.029 C 
ATOM     12  C   UNL     1      -4.659 -11.208  11.626  0.00  0.00    +0.012 C 
ATOM     13  C   UNL     1      -3.399 -10.422  12.045  0.00  0.00    +0.024 C 
ATOM     16  C   UNL     1      -3.355  -9.543   9.693  0.00  0.00    -0.023 C 
ATOM     17  C   UNL     1      -2.753  -9.673  10.891  0.00  0.00    -0.073 C 
ATOM     23  C   UNL     1      -1.422  -9.018  11.144  0.00  0.00    +0.039 C 
ENDROOT
BRANCH  10  14
ATOM     14  C   UNL     1      -6.179  -9.216  11.257  0.00  0.00    -0.013 C 
ATOM     19  C   UNL     1      -6.642  -9.528  12.676  0.00  0.00    +0.007 C 
ATOM     20  C   UNL     1      -7.342  -8.718  10.405  0.00  0.00    +0.007 C 
ENDBRANCH  10  14
BRANCH  11  15
ATOM     15  C   UNL     1      -4.573 -11.276   8.408  0.00  0.00    +0.092 C 
BRANCH  15   2
ATOM      2  N   UNL     1      -5.053 -10.934   7.070  0.00  0.00    -0.299 NA
ATOM      3  N   UNL     1      -6.993 -10.606   5.000  0.00  0.00    -0.312 N 
ATOM      6  N   UNL     1      -7.475 -10.869   2.688  0.00  0.00    -0.237 NA
ATOM      7  N   UNL     1      -9.933  -9.588   3.115  0.00  0.00    -0.258 NA
ATOM     21  C   UNL     1      -6.035  -9.845   7.137  0.00  0.00    +0.103 C 
ATOM     22  C   UNL     1      -5.652 -12.107   6.422  0.00  0.00    +0.103 C 
ATOM     24  C   UNL     1      -6.503  -9.439   5.737  0.00  0.00    +0.122 C 
ATOM     25  C   UNL     1      -6.107 -11.777   4.998  0.00  0.00    +0.122 C 
ATOM     27  C   UNL     1      -7.848 -10.428   3.906  0.00  0.00    +0.140 A 
ATOM     29  C   UNL     1      -9.055  -9.798   4.115  0.00  0.00    +0.154 A 
ATOM     31  C   UNL     1      -8.353 -10.659   1.688  0.00  0.00    +0.132 A 
ATOM     32  C   UNL     1      -9.560 -10.029   1.897  0.00  0.00    +0.130 A 
ENDBRANCH  15   2
ENDBRANCH  11  15
BRANCH  13  18
ATOM     18  C   UNL     1      -2.433 -11.384  12.747  0.00  0.00    +0.105 C 
BRANCH  18  26
ATOM      1  O   UNL     1      -3.579 -11.345  14.901  0.00  0.00    -0.419 OA
ATOM      4  N   UNL     1      -1.414 -10.788  15.005  0.00  0.00    -0.112 NA
ATOM      5  N   UNL     1      -1.934 -10.724  16.284  0.00  0.00    -0.106 NA
ATOM     26  C   UNL     1      -2.409 -11.154  14.231  0.00  0.00    +0.218 A 
ATOM     28  C   UNL     1      -3.198 -11.056  16.176  0.00  0.00    +0.266 A 
BRANCH  28  30
ATOM      8  N   UNL     1      -5.270 -10.432  17.362  0.00  0.00    -0.329 N 
ATOM      9  N   UNL     1      -5.085 -11.571  19.260  0.00  0.00    -0.243 NA
ATOM     30  C   UNL     1      -4.085 -11.109  17.278  0.00  0.00    +0.125 A 
ATOM     33  C   UNL     1      -3.994 -11.805  18.462  0.00  0.00    +0.143 A 
ATOM     34  C   UNL     1      -5.834 -10.740  18.569  0.00  0.00    +0.199 A 
ATOM     35  C   UNL     1      -5.843  -9.549  16.373  0.00  0.00    +0.150 C 
ENDBRANCH  28  30
ENDBRANCH  18  26
ENDBRANCH  13  18
TORSDOF 6
ENDMDL
MODEL 2
REMARK VINA RESULT:      -7.0      3.513      9.878
REMARK  Name = 45784104
REMARK  10 active torsions:
REMARK  status: ('A' for Active; 'I' for Inactive)
REMARK    1  A    between atoms: N_2  and  C_15
REMARK    2  A    between atoms: N_8  and  C_35
REMARK    3  A    between atoms: C_10  and  C_14
REMARK    4  A    between atoms: C_11  and  C_15
REMARK    5  A    between atoms: C_13  and  C_18
REMARK    6  A    between atoms: C_14  and  C_19
REMARK    7  A    between atoms: C_14  and  C_20
REMARK    8  A    between atoms: C_17  and  C_23
REMARK    9  A    between atoms: C_18  and  C_26
REMARK   10  A    between atoms: C_28  and  C_30
REMARK                            x       y       z     vdW  Elec       q    Type
REMARK                         _______ _______ _______ _____ _____    ______ ____
ROOT
ATOM     10  C   UNL     1      -3.871 -11.796  12.726  0.00  0.00    +0.000 C 
ATOM     11  C   UNL     1      -2.780 -11.258  13.681  0.00  0.00    +0.029 C 
ATOM     12  C   UNL     1      -4.302 -10.706  11.734  0.00  0.00    +0.012 C 
ATOM     13  C   UNL     1      -3.132 -10.134  10.907  0.00  0.00    +0.024 C 
ATOM     16  C   UNL     1      -1.726 -10.455  12.962  0.00  0.00    -0.023 C 
ATOM     17  C   UNL     1      -1.859  -9.955  11.719  0.00  0.00    -0.073 C 
ATOM     23  C   UNL     1      -0.709  -9.242  11.062  0.00  0.00    +0.039 C 
ENDROOT
BRANCH  10  14
ATOM     14  C   UNL     1      -3.400 -13.059  11.992  0.00  0.00    -0.013 C 
ATOM     19  C   UNL     1      -4.529 -13.632  11.142  0.00  0.00    +0.007 C 
ATOM     20  C   UNL     1      -2.893 -14.095  12.989  0.00  0.00    +0.007 C 
ENDBRANCH  10  14
BRANCH  11  15
ATOM     15  C   UNL     1      -3.381 -10.408  14.805  0.00  0.00    +0.092 C 
BRANCH  15   2
ATOM      2  N   UNL     1      -4.576 -11.047  15.354  0.00  0.00    -0.299 NA
ATOM      3  N   UNL     1      -6.520 -11.661  17.354  0.00  0.00    -0.312 N 
ATOM      6  N   UNL     1      -7.872 -13.348  18.339  0.00  0.00    -0.237 NA
ATOM      7  N   UNL     1      -9.072 -11.376  19.930  0.00  0.00    -0.258 NA
ATOM     21  C   UNL     1      -5.554 -10.036  15.775  0.00  0.00    +0.103 C 
ATOM     22  C   UNL     1      -4.225 -11.906  16.490  0.00  0.00    +0.103 C 
ATOM     24  C   UNL     1      -6.833 -10.693  16.299  0.00  0.00    +0.122 C 
ATOM     25  C   UNL     1      -5.460 -12.626  17.038  0.00  0.00    +0.122 C 
ATOM     27  C   UNL     1      -7.516 -12.051  18.257  0.00  0.00    +0.140 A 
ATOM     29  C   UNL     1      -8.106 -11.082  19.039  0.00  0.00    +0.154 A 
ATOM     31  C   UNL     1      -8.838 -13.642  19.231  0.00  0.00    +0.132 A 
ATOM     32  C   UNL     1      -9.428 -12.673  20.013  0.00  0.00    +0.130 A 
ENDBRANCH  15   2
ENDBRANCH  11  15
BRANCH  13  18
ATOM     18  C   UNL     1      -3.597  -8.837  10.233  0.00  0.00    +0.105 C 
BRANCH  18  26
ATOM      1  O   UNL     1      -5.989  -8.395  10.038  0.00  0.00    -0.419 OA
ATOM      4  N   UNL     1      -5.170  -9.727   8.437  0.00  0.00    -0.112 NA
ATOM      5  N   UNL     1      -6.523  -9.563   8.206  0.00  0.00    -0.106 NA
ATOM     26  C   UNL     1      -4.903  -9.028   9.516  0.00  0.00    +0.218 A 
ATOM     28  C   UNL     1      -6.959  -8.779   9.164  0.00  0.00    +0.266 A 
BRANCH  28  30
ATOM      8  N   UNL     1      -8.824  -7.213   8.767  0.00  0.00    -0.329 N 
ATOM      9  N   UNL     1     -10.520  -8.239   9.767  0.00  0.00    -0.243 NA
ATOM     30  C   UNL     1      -8.310  -8.371   9.280  0.00  0.00    +0.125 A 
ATOM     33  C   UNL     1      -9.376  -8.986   9.893  0.00  0.00    +0.143 A 
ATOM     34  C   UNL     1     -10.153  -7.177   9.084  0.00  0.00    +0.199 A 
ATOM     35  C   UNL     1      -8.115  -6.198   8.021  0.00  0.00    +0.150 C 
ENDBRANCH  28  30
ENDBRANCH  18  26
ENDBRANCH  13  18
TORSDOF 6
ENDMDL
MODEL 3
REMARK VINA RESULT:      -7.0      2.802      5.806
REMARK  Name = 45784104
REMARK  10 active torsions:
REMARK  status: ('A' for Active; 'I' for Inactive)
REMARK    1  A    between atoms: N_2  and  C_15
REMARK    2  A    between atoms: N_8  and  C_35
REMARK    3  A    between atoms: C_10  and  C_14
REMARK    4  A    between atoms: C_11  and  C_15
REMARK    5  A    between atoms: C_13  and  C_18
REMARK    6  A    between atoms: C_14  and  C_19
REMARK    7  A    between atoms: C_14  and  C_20
REMARK    8  A    between atoms: C_17  and  C_23
REMARK    9  A    between atoms: C_18  and  C_26
REMARK   10  A    between atoms: C_28  and  C_30
REMARK                            x       y       z     vdW  Elec       q    Type
REMARK                         _______ _______ _______ _____ _____    ______ ____
ROOT
ATOM     10  C   UNL     1      -3.495 -10.584  15.286  0.00  0.00    +0.000 C 
ATOM     11  C   UNL     1      -4.402 -11.539  14.476  0.00  0.00    +0.029 C 
ATOM     12  C   UNL     1      -4.095 -10.320  16.674  0.00  0.00    +0.012 C 
ATOM     13  C   UNL     1      -4.341 -11.608  17.489  0.00  0.00    +0.024 C 
ATOM     16  C   UNL     1      -4.900 -12.701  15.299  0.00  0.00    -0.023 C 
ATOM     17  C   UNL     1      -4.869 -12.756  16.644  0.00  0.00    -0.073 C 
ATOM     23  C   UNL     1      -5.312 -14.002  17.361  0.00  0.00    +0.039 C 
ENDROOT
BRANCH  10  14
ATOM     14  C   UNL     1      -2.064 -11.129  15.394  0.00  0.00    -0.013 C 
ATOM     19  C   UNL     1      -1.074  -9.986  15.588  0.00  0.00    +0.007 C 
ATOM     20  C   UNL     1      -1.711 -11.947  14.157  0.00  0.00    +0.007 C 
ENDBRANCH  10  14
BRANCH  11  15
ATOM     15  C   UNL     1      -5.601 -10.802  13.870  0.00  0.00    +0.092 C 
BRANCH  15   2
ATOM      2  N   UNL     1      -5.370 -10.517  12.455  0.00  0.00    -0.299 NA
ATOM      3  N   UNL     1      -6.107  -9.963   9.751  0.00  0.00    -0.312 N 
ATOM      6  N   UNL     1      -5.649 -10.378   7.457  0.00  0.00    -0.237 NA
ATOM      7  N   UNL     1      -7.590  -8.469   6.785  0.00  0.00    -0.258 NA
ATOM     21  C   UNL     1      -5.939  -9.214  12.092  0.00  0.00    +0.103 C 
ATOM     22  C   UNL     1      -5.954 -11.569  11.615  0.00  0.00    +0.103 C 
ATOM     24  C   UNL     1      -5.654  -8.878  10.626  0.00  0.00    +0.122 C 
ATOM     25  C   UNL     1      -5.670 -11.312  10.133  0.00  0.00    +0.122 C 
ATOM     27  C   UNL     1      -6.347  -9.709   8.396  0.00  0.00    +0.140 A 
ATOM     29  C   UNL     1      -7.301  -8.772   8.065  0.00  0.00    +0.154 A 
ATOM     31  C   UNL     1      -5.938 -10.076   6.177  0.00  0.00    +0.132 A 
ATOM     32  C   UNL     1      -6.892  -9.138   5.846  0.00  0.00    +0.130 A 
ENDBRANCH  15   2
ENDBRANCH  11  15
BRANCH  13  18
ATOM     18  C   UNL     1      -5.254 -11.270  18.674  0.00  0.00    +0.105 C 
BRANCH  18  26
ATOM      1  O   UNL     1      -6.973  -9.851  17.679  0.00  0.00    -0.419 OA
ATOM      4  N   UNL     1      -7.700 -11.876  18.292  0.00  0.00    -0.112 NA
ATOM      5  N   UNL     1      -8.767 -11.185  17.750  0.00  0.00    -0.106 NA
ATOM     26  C   UNL     1      -6.674 -11.059  18.230  0.00  0.00    +0.218 A 
ATOM     28  C   UNL     1      -8.297 -10.009  17.407  0.00  0.00    +0.266 A 
BRANCH  28  30
ATOM      8  N   UNL     1      -9.388  -8.924  15.478  0.00  0.00    -0.329 N 
ATOM      9  N   UNL     1     -10.389  -7.181  16.424  0.00  0.00    -0.243 NA
ATOM     30  C   UNL     1      -9.089  -8.999  16.810  0.00  0.00    +0.125 A 
ATOM     33  C   UNL     1      -9.719  -7.913  17.372  0.00  0.00    +0.143 A 
ATOM     34  C   UNL     1     -10.169  -7.817  15.294  0.00  0.00    +0.199 A 
ATOM     35  C   UNL     1      -8.968  -9.833  14.436  0.00  0.00    +0.150 C 
ENDBRANCH  28  30
ENDBRANCH  18  26
ENDBRANCH  13  18
TORSDOF 6
ENDMDL
MODEL 4
REMARK VINA RESULT:      -7.0      4.309      9.385
REMARK  Name = 45784104
REMARK  10 active torsions:
REMARK  status: ('A' for Active; 'I' for Inactive)
REMARK    1  A    between atoms: N_2  and  C_15
REMARK    2  A    between atoms: N_8  and  C_35
REMARK    3  A    between atoms: C_10  and  C_14
REMARK    4  A    between atoms: C_11  and  C_15
REMARK    5  A    between atoms: C_13  and  C_18
REMARK    6  A    between atoms: C_14  and  C_19
REMARK    7  A    between atoms: C_14  and  C_20
REMARK    8  A    between atoms: C_17  and  C_23
REMARK    9  A    between atoms: C_18  and  C_26
REMARK   10  A    between atoms: C_28  and  C_30
REMARK                            x       y       z     vdW  Elec       q    Type
REMARK                         _______ _______ _______ _____ _____    ______ ____
ROOT
ATOM     10  C   UNL     1      -7.020 -12.074  16.999  0.00  0.00    +0.000 C 
ATOM     11  C   UNL     1      -7.110 -11.760  18.510  0.00  0.00    +0.029 C 
ATOM     12  C   UNL     1      -5.776 -11.416  16.385  0.00  0.00    +0.012 C 
ATOM     13  C   UNL     1      -4.460 -11.834  17.075  0.00  0.00    +0.024 C 
ATOM     16  C   UNL     1      -5.781 -11.897  19.210  0.00  0.00    -0.023 C 
ATOM     17  C   UNL     1      -4.589 -11.945  18.586  0.00  0.00    -0.073 C 
ATOM     23  C   UNL     1      -3.329 -12.172  19.377  0.00  0.00    +0.039 C 
ENDROOT
BRANCH  10  14
ATOM     14  C   UNL     1      -7.032 -13.587  16.740  0.00  0.00    -0.013 C 
ATOM     19  C   UNL     1      -7.150 -13.869  15.246  0.00  0.00    +0.007 C 
ATOM     20  C   UNL     1      -8.172 -14.249  17.507  0.00  0.00    +0.007 C 
ENDBRANCH  10  14
BRANCH  11  15
ATOM     15  C   UNL     1      -7.670 -10.356  18.764  0.00  0.00    +0.092 C 
BRANCH  15   2
ATOM      2  N   UNL     1      -8.754 -10.056  17.831  0.00  0.00    -0.299 NA
ATOM      3  N   UNL     1     -10.873  -8.505  16.706  0.00  0.00    -0.312 N 
ATOM      6  N   UNL     1     -13.055  -8.534  15.768  0.00  0.00    -0.237 NA
ATOM      7  N   UNL     1     -12.794  -5.796  15.224  0.00  0.00    -0.258 NA
ATOM     21  C   UNL     1      -8.459  -8.833  17.074  0.00  0.00    +0.103 C 
ATOM     22  C   UNL     1     -10.025  -9.905  18.550  0.00  0.00    +0.103 C 
ATOM     24  C   UNL     1      -9.561  -8.539  16.053  0.00  0.00    +0.122 C 
ATOM     25  C   UNL     1     -11.179  -9.647  17.578  0.00  0.00    +0.122 C 
ATOM     27  C   UNL     1     -11.940  -7.847  16.086  0.00  0.00    +0.140 A 
ATOM     29  C   UNL     1     -11.813  -6.501  15.818  0.00  0.00    +0.154 A 
ATOM     31  C   UNL     1     -14.037  -7.829  15.173  0.00  0.00    +0.132 A 
ATOM     32  C   UNL     1     -13.909  -6.483  14.905  0.00  0.00    +0.130 A 
ENDBRANCH  15   2
ENDBRANCH  11  15
BRANCH  13  18
ATOM     18  C   UNL     1      -3.352 -10.868  16.640  0.00  0.00    +0.105 C 
BRANCH  18  26
ATOM      1  O   UNL     1      -3.599 -10.347  14.269  0.00  0.00    -0.419 OA
ATOM      4  N   UNL     1      -2.067 -11.918  14.707  0.00  0.00    -0.112 NA
ATOM      5  N   UNL     1      -2.102 -11.725  13.338  0.00  0.00    -0.106 NA
ATOM     26  C   UNL     1      -2.956 -11.093  15.209  0.00  0.00    +0.218 A 
ATOM     28  C   UNL     1      -3.009 -10.801  13.129  0.00  0.00    +0.266 A 
BRANCH  28  30
ATOM      8  N   UNL     1      -4.531 -10.557  11.202  0.00  0.00    -0.329 N 
ATOM      9  N   UNL     1      -3.332  -9.307   9.812  0.00  0.00    -0.243 NA
ATOM     30  C   UNL     1      -3.346 -10.320  11.840  0.00  0.00    +0.125 A 
ATOM     33  C   UNL     1      -2.623  -9.547  10.962  0.00  0.00    +0.143 A 
ATOM     34  C   UNL     1      -4.477  -9.930   9.988  0.00  0.00    +0.199 A 
ATOM     35  C   UNL     1      -5.651 -11.325  11.696  0.00  0.00    +0.150 C 
ENDBRANCH  28  30
ENDBRANCH  18  26
ENDBRANCH  13  18
TORSDOF 6
ENDMDL
MODEL 5
REMARK VINA RESULT:      -6.9      3.191     10.511
REMARK  Name = 45784104
REMARK  10 active torsions:
REMARK  status: ('A' for Active; 'I' for Inactive)
REMARK    1  A    between atoms: N_2  and  C_15
REMARK    2  A    between atoms: N_8  and  C_35
REMARK    3  A    between atoms: C_10  and  C_14
REMARK    4  A    between atoms: C_11  and  C_15
REMARK    5  A    between atoms: C_13  and  C_18
REMARK    6  A    between atoms: C_14  and  C_19
REMARK    7  A    between atoms: C_14  and  C_20
REMARK    8  A    between atoms: C_17  and  C_23
REMARK    9  A    between atoms: C_18  and  C_26
REMARK   10  A    between atoms: C_28  and  C_30
REMARK                            x       y       z     vdW  Elec       q    Type
REMARK                         _______ _______ _______ _____ _____    ______ ____
ROOT
ATOM     10  C   UNL     1      -5.040 -11.921  15.323  0.00  0.00    +0.000 C 
ATOM     11  C   UNL     1      -4.761 -10.922  16.470  0.00  0.00    +0.029 C 
ATOM     12  C   UNL     1      -4.364 -11.454  14.026  0.00  0.00    +0.012 C 
ATOM     13  C   UNL     1      -2.841 -11.248  14.170  0.00  0.00    +0.024 C 
ATOM     16  C   UNL     1      -3.323 -10.471  16.509  0.00  0.00    -0.023 C 
ATOM     17  C   UNL     1      -2.447 -10.619  15.497  0.00  0.00    -0.073 C 
ATOM     23  C   UNL     1      -1.010 -10.211  15.673  0.00  0.00    +0.039 C 
ENDROOT
BRANCH  10  14
ATOM     14  C   UNL     1      -4.597 -13.342  15.698  0.00  0.00    -0.013 C 
ATOM     19  C   UNL     1      -4.981 -14.326  14.599  0.00  0.00    +0.007 C 
ATOM     20  C   UNL     1      -5.208 -13.755  17.033  0.00  0.00    +0.007 C 
ENDBRANCH  10  14
BRANCH  11  15
ATOM     15  C   UNL     1      -5.672  -9.693  16.384  0.00  0.00    +0.092 C 
BRANCH  15   2
ATOM      2  N   UNL     1      -6.773  -9.798  17.340  0.00  0.00    -0.299 NA
ATOM      3  N   UNL     1      -8.855 -11.113  18.787  0.00  0.00    -0.312 N 
ATOM      6  N   UNL     1     -11.068 -10.958  19.639  0.00  0.00    -0.237 NA
ATOM      7  N   UNL     1     -10.699 -13.441  20.887  0.00  0.00    -0.258 NA
ATOM     21  C   UNL     1      -6.448 -10.763  18.397  0.00  0.00    +0.103 C 
ATOM     22  C   UNL     1      -8.010 -10.199  16.660  0.00  0.00    +0.103 C 
ATOM     24  C   UNL     1      -7.570 -10.840  19.436  0.00  0.00    +0.122 C 
ATOM     25  C   UNL     1      -9.184 -10.257  17.641  0.00  0.00    +0.122 C 
ATOM     27  C   UNL     1      -9.912 -11.644  19.535  0.00  0.00    +0.140 A 
ATOM     29  C   UNL     1      -9.731 -12.864  20.149  0.00  0.00    +0.154 A 
ATOM     31  C   UNL     1     -12.035 -11.535  20.377  0.00  0.00    +0.132 A 
ATOM     32  C   UNL     1     -11.854 -12.756  20.991  0.00  0.00    +0.130 A 
ENDBRANCH  15   2
ENDBRANCH  11  15
BRANCH  13  18
ATOM     18  C   UNL     1      -2.338 -10.452  12.959  0.00  0.00    +0.105 C 
BRANCH  18  26
ATOM      1  O   UNL     1      -3.838  -9.943  11.102  0.00  0.00    -0.419 OA
ATOM      4  N   UNL     1      -3.001 -12.018  11.061  0.00  0.00    -0.112 NA
ATOM      5  N   UNL     1      -3.826 -11.868   9.962  0.00  0.00    -0.106 NA
ATOM     26  C   UNL     1      -3.038 -10.870  11.698  0.00  0.00    +0.218 A 
ATOM     28  C   UNL     1      -4.292 -10.644  10.027  0.00  0.00    +0.266 A 
BRANCH  28  30
ATOM      8  N   UNL     1      -6.349  -9.451   9.369  0.00  0.00    -0.329 N 
ATOM      9  N   UNL     1      -6.200  -9.444   7.153  0.00  0.00    -0.243 NA
ATOM     30  C   UNL     1      -5.184 -10.100   9.071  0.00  0.00    +0.125 A 
ATOM     33  C   UNL     1      -5.114 -10.083   7.697  0.00  0.00    +0.143 A 
ATOM     34  C   UNL     1      -6.925  -9.076   8.187  0.00  0.00    +0.199 A 
ATOM     35  C   UNL     1      -6.894  -9.194  10.682  0.00  0.00    +0.150 C 
ENDBRANCH  28  30
ENDBRANCH  18  26
ENDBRANCH  13  18
TORSDOF 6
ENDMDL
MODEL 6
REMARK VINA RESULT:      -6.9      3.400      9.441
REMARK  Name = 45784104
REMARK  10 active torsions:
REMARK  status: ('A' for Active; 'I' for Inactive)
REMARK    1  A    between atoms: N_2  and  C_15
REMARK    2  A    between atoms: N_8  and  C_35
REMARK    3  A    between atoms: C_10  and  C_14
REMARK    4  A    between atoms: C_11  and  C_15
REMARK    5  A    between atoms: C_13  and  C_18
REMARK    6  A    between atoms: C_14  and  C_19
REMARK    7  A    between atoms: C_14  and  C_20
REMARK    8  A    between atoms: C_17  and  C_23
REMARK    9  A    between atoms: C_18  and  C_26
REMARK   10  A    between atoms: C_28  and  C_30
REMARK                            x       y       z     vdW  Elec       q    Type
REMARK                         _______ _______ _______ _____ _____    ______ ____
ROOT
ATOM     10  C   UNL     1      -5.063 -12.528  15.405  0.00  0.00    +0.000 C 
ATOM     11  C   UNL     1      -4.956 -11.024  15.749  0.00  0.00    +0.029 C 
ATOM     12  C   UNL     1      -4.087 -12.892  14.277  0.00  0.00    +0.012 C 
ATOM     13  C   UNL     1      -2.619 -12.544  14.602  0.00  0.00    +0.024 C 
ATOM     16  C   UNL     1      -3.527 -10.548  15.827  0.00  0.00    -0.023 C 
ATOM     17  C   UNL     1      -2.469 -11.219  15.332  0.00  0.00    -0.073 C 
ATOM     23  C   UNL     1      -1.075 -10.695  15.542  0.00  0.00    +0.039 C 
ENDROOT
BRANCH  10  14
ATOM     14  C   UNL     1      -4.832 -13.404  16.643  0.00  0.00    -0.013 C 
ATOM     19  C   UNL     1      -5.189 -14.855  16.341  0.00  0.00    +0.007 C 
ATOM     20  C   UNL     1      -5.645 -12.882  17.824  0.00  0.00    +0.007 C 
ENDBRANCH  10  14
BRANCH  11  15
ATOM     15  C   UNL     1      -5.721 -10.157  14.744  0.00  0.00    +0.092 C 
BRANCH  15   2
ATOM      2  N   UNL     1      -6.988  -9.702  15.312  0.00  0.00    -0.299 NA
ATOM      3  N   UNL     1      -9.300  -9.852  16.982  0.00  0.00    -0.312 N 
ATOM      6  N   UNL     1     -11.640  -9.473  17.151  0.00  0.00    -0.237 NA
ATOM      7  N   UNL     1     -11.497 -10.165  19.865  0.00  0.00    -0.258 NA
ATOM     21  C   UNL     1      -6.868  -9.527  16.765  0.00  0.00    +0.103 C 
ATOM     22  C   UNL     1      -8.060 -10.658  15.011  0.00  0.00    +0.103 C 
ATOM     24  C   UNL     1      -8.173  -8.996  17.364  0.00  0.00    +0.122 C 
ATOM     25  C   UNL     1      -9.405 -10.165  15.552  0.00  0.00    +0.122 C 
ATOM     27  C   UNL     1     -10.478  -9.826  17.737  0.00  0.00    +0.140 A 
ATOM     29  C   UNL     1     -10.409 -10.165  19.071  0.00  0.00    +0.154 A 
ATOM     31  C   UNL     1     -12.728  -9.472  17.946  0.00  0.00    +0.132 A 
ATOM     32  C   UNL     1     -12.658  -9.812  19.279  0.00  0.00    +0.130 A 
ENDBRANCH  15   2
ENDBRANCH  11  15
BRANCH  13  18
ATOM     18  C   UNL     1      -1.803 -12.607  13.306  0.00  0.00    +0.105 C 
BRANCH  18  26
ATOM      1  O   UNL     1      -3.312 -11.796  11.567  0.00  0.00    -0.419 OA
ATOM      4  N   UNL     1      -1.690 -10.356  12.116  0.00  0.00    -0.112 NA
ATOM      5  N   UNL     1      -2.463  -9.773  11.129  0.00  0.00    -0.106 NA
ATOM     26  C   UNL     1      -2.222 -11.535  12.340  0.00  0.00    +0.218 A 
ATOM     28  C   UNL     1      -3.396 -10.649  10.840  0.00  0.00    +0.266 A 
BRANCH  28  30
ATOM      8  N   UNL     1      -5.518  -9.665  10.052  0.00  0.00    -0.329 N 
ATOM      9  N   UNL     1      -5.638 -10.417   7.966  0.00  0.00    -0.243 NA
ATOM     30  C   UNL     1      -4.397 -10.425   9.863  0.00  0.00    +0.125 A 
ATOM     33  C   UNL     1      -4.494 -10.877   8.568  0.00  0.00    +0.143 A 
ATOM     34  C   UNL     1      -6.232  -9.690   8.887  0.00  0.00    +0.199 A 
ATOM     35  C   UNL     1      -5.900  -8.956  11.252  0.00  0.00    +0.150 C 
ENDBRANCH  28  30
ENDBRANCH  18  26
ENDBRANCH  13  18
TORSDOF 6
ENDMDL
MODEL 7
REMARK VINA RESULT:      -6.8     21.283     22.439
REMARK  Name = 45784104
REMARK  10 active torsions:
REMARK  status: ('A' for Active; 'I' for Inactive)
REMARK    1  A    between atoms: N_2  and  C_15
REMARK    2  A    between atoms: N_8  and  C_35
REMARK    3  A    between atoms: C_10  and  C_14
REMARK    4  A    between atoms: C_11  and  C_15
REMARK    5  A    between atoms: C_13  and  C_18
REMARK    6  A    between atoms: C_14  and  C_19
REMARK    7  A    between atoms: C_14  and  C_20
REMARK    8  A    between atoms: C_17  and  C_23
REMARK    9  A    between atoms: C_18  and  C_26
REMARK   10  A    between atoms: C_28  and  C_30
REMARK                            x       y       z     vdW  Elec       q    Type
REMARK                         _______ _______ _______ _____ _____    ______ ____
ROOT
ATOM     10  C   UNL     1     -13.149   8.778  20.277  0.00  0.00    +0.000 C 
ATOM     11  C   UNL     1     -11.827   7.991  20.122  0.00  0.00    +0.029 C 
ATOM     12  C   UNL     1     -14.351   7.823  20.234  0.00  0.00    +0.012 C 
ATOM     13  C   UNL     1     -14.287   6.710  21.301  0.00  0.00    +0.024 C 
ATOM     16  C   UNL     1     -11.800   6.733  20.952  0.00  0.00    -0.023 C 
ATOM     17  C   UNL     1     -12.886   6.153  21.498  0.00  0.00    -0.073 C 
ATOM     23  C   UNL     1     -12.735   4.946  22.383  0.00  0.00    +0.039 C 
ENDROOT
BRANCH  10  14
ATOM     14  C   UNL     1     -13.154   9.617  21.562  0.00  0.00    -0.013 C 
ATOM     19  C   UNL     1     -14.538  10.208  21.806  0.00  0.00    +0.007 C 
ATOM     20  C   UNL     1     -12.102  10.719  21.481  0.00  0.00    +0.007 C 
ENDBRANCH  10  14
BRANCH  11  15
ATOM     15  C   UNL     1     -11.550   7.634  18.658  0.00  0.00    +0.092 C 
BRANCH  15   2
ATOM      2  N   UNL     1     -11.738   8.800  17.797  0.00  0.00    -0.299 NA
ATOM      3  N   UNL     1     -11.660  10.279  15.354  0.00  0.00    -0.312 N 
ATOM      6  N   UNL     1     -11.191  12.370  14.328  0.00  0.00    -0.237 NA
ATOM      7  N   UNL     1     -12.133  11.325  11.903  0.00  0.00    -0.258 NA
ATOM     21  C   UNL     1     -12.678   8.494  16.712  0.00  0.00    +0.103 C 
ATOM     22  C   UNL     1     -10.454   9.240  17.236  0.00  0.00    +0.103 C 
ATOM     24  C   UNL     1     -12.928   9.725  15.836  0.00  0.00    +0.122 C 
ATOM     25  C   UNL     1     -10.629  10.495  16.378  0.00  0.00    +0.122 C 
ATOM     27  C   UNL     1     -11.648  11.106  14.226  0.00  0.00    +0.140 A 
ATOM     29  C   UNL     1     -12.111  10.594  13.034  0.00  0.00    +0.154 A 
ATOM     31  C   UNL     1     -11.213  13.102  13.197  0.00  0.00    +0.132 A 
ATOM     32  C   UNL     1     -11.676  12.589  12.006  0.00  0.00    +0.130 A 
ENDBRANCH  15   2
ENDBRANCH  11  15
BRANCH  13  18
ATOM     18  C   UNL     1     -15.314   5.629  20.944  0.00  0.00    +0.105 C 
BRANCH  18  26
ATOM      1  O   UNL     1     -15.953   3.839  22.475  0.00  0.00    -0.419 OA
ATOM      4  N   UNL     1     -16.824   5.836  22.986  0.00  0.00    -0.112 NA
ATOM      5  N   UNL     1     -17.265   4.923  23.926  0.00  0.00    -0.106 NA
ATOM     26  C   UNL     1     -16.062   5.158  22.159  0.00  0.00    +0.218 A 
ATOM     28  C   UNL     1     -16.733   3.773  23.589  0.00  0.00    +0.266 A 
BRANCH  28  30
ATOM      8  N   UNL     1     -17.721   1.532  23.886  0.00  0.00    -0.329 N 
ATOM      9  N   UNL     1     -16.927   0.928  25.870  0.00  0.00    -0.243 NA
ATOM     30  C   UNL     1     -16.947   2.575  24.312  0.00  0.00    +0.125 A 
ATOM     33  C   UNL     1     -16.469   2.178  25.539  0.00  0.00    +0.143 A 
ATOM     34  C   UNL     1     -17.679   0.567  24.853  0.00  0.00    +0.199 A 
ATOM     35  C   UNL     1     -18.456   1.440  22.645  0.00  0.00    +0.150 C 
ENDBRANCH  28  30
ENDBRANCH  18  26
ENDBRANCH  13  18
TORSDOF 6
ENDMDL
MODEL 8
REMARK VINA RESULT:      -6.7      2.100      2.719
REMARK  Name = 45784104
REMARK  10 active torsions:
REMARK  status: ('A' for Active; 'I' for Inactive)
REMARK    1  A    between atoms: N_2  and  C_15
REMARK    2  A    between atoms: N_8  and  C_35
REMARK    3  A    between atoms: C_10  and  C_14
REMARK    4  A    between atoms: C_11  and  C_15
REMARK    5  A    between atoms: C_13  and  C_18
REMARK    6  A    between atoms: C_14  and  C_19
REMARK    7  A    between atoms: C_14  and  C_20
REMARK    8  A    between atoms: C_17  and  C_23
REMARK    9  A    between atoms: C_18  and  C_26
REMARK   10  A    between atoms: C_28  and  C_30
REMARK                            x       y       z     vdW  Elec       q    Type
REMARK                         _______ _______ _______ _____ _____    ______ ____
ROOT
ATOM     10  C   UNL     1      -5.974 -10.764  10.785  0.00  0.00    +0.000 C 
ATOM     11  C   UNL     1      -5.121 -10.688   9.498  0.00  0.00    +0.029 C 
ATOM     12  C   UNL     1      -5.154 -11.357  11.940  0.00  0.00    +0.012 C 
ATOM     13  C   UNL     1      -3.854 -10.579  12.231  0.00  0.00    +0.024 C 
ATOM     16  C   UNL     1      -3.727 -10.172   9.756  0.00  0.00    -0.023 C 
ATOM     17  C   UNL     1      -3.150 -10.104  10.970  0.00  0.00    -0.073 C 
ATOM     23  C   UNL     1      -1.785  -9.489  11.125  0.00  0.00    +0.039 C 
ENDROOT
BRANCH  10  14
ATOM     14  C   UNL     1      -6.545  -9.389  11.160  0.00  0.00    -0.013 C 
ATOM     19  C   UNL     1      -7.459  -9.507  12.375  0.00  0.00    +0.007 C 
ATOM     20  C   UNL     1      -7.292  -8.783   9.977  0.00  0.00    +0.007 C 
ENDBRANCH  10  14
BRANCH  11  15
ATOM     15  C   UNL     1      -5.032 -12.048   8.797  0.00  0.00    +0.092 C 
BRANCH  15   2
ATOM      2  N   UNL     1      -4.567 -11.891   7.421  0.00  0.00    -0.299 NA
ATOM      3  N   UNL     1      -4.436 -12.477   4.628  0.00  0.00    -0.312 N 
ATOM      6  N   UNL     1      -3.032 -12.717   2.726  0.00  0.00    -0.237 NA
ATOM      7  N   UNL     1      -5.325 -13.067   1.151  0.00  0.00    -0.258 NA
ATOM     21  C   UNL     1      -5.684 -11.543   6.535  0.00  0.00    +0.103 C 
ATOM     22  C   UNL     1      -3.921 -13.122   6.951  0.00  0.00    +0.103 C 
ATOM     24  C   UNL     1      -5.200 -11.319   5.100  0.00  0.00    +0.122 C 
ATOM     25  C   UNL     1      -3.378 -12.952   5.530  0.00  0.00    +0.122 C 
ATOM     27  C   UNL     1      -4.272 -12.688   3.254  0.00  0.00    +0.140 A 
ATOM     29  C   UNL     1      -5.398 -12.860   2.480  0.00  0.00    +0.154 A 
ATOM     31  C   UNL     1      -2.959 -12.925   1.397  0.00  0.00    +0.132 A 
ATOM     32  C   UNL     1      -4.085 -13.096   0.622  0.00  0.00    +0.130 A 
ENDBRANCH  15   2
ENDBRANCH  11  15
BRANCH  13  18
ATOM     18  C   UNL     1      -2.957 -11.441  13.127  0.00  0.00    +0.105 C 
BRANCH  18  26
ATOM      1  O   UNL     1      -4.258 -11.222  15.180  0.00  0.00    -0.419 OA
ATOM      4  N   UNL     1      -2.149 -10.493  15.350  0.00  0.00    -0.112 NA
ATOM      5  N   UNL     1      -2.764 -10.310  16.574  0.00  0.00    -0.106 NA
ATOM     26  C   UNL     1      -3.058 -11.027  14.567  0.00  0.00    +0.218 A 
ATOM     28  C   UNL     1      -3.992 -10.749  16.428  0.00  0.00    +0.266 A 
BRANCH  28  30
ATOM      8  N   UNL     1      -4.813 -11.367  18.671  0.00  0.00    -0.329 N 
ATOM      9  N   UNL     1      -6.792 -10.362  18.741  0.00  0.00    -0.243 NA
ATOM     30  C   UNL     1      -4.952 -10.732  17.469  0.00  0.00    +0.125 A 
ATOM     33  C   UNL     1      -6.182 -10.119  17.536  0.00  0.00    +0.143 A 
ATOM     34  C   UNL     1      -5.942 -11.117  19.401  0.00  0.00    +0.199 A 
ATOM     35  C   UNL     1      -3.691 -12.162  19.115  0.00  0.00    +0.150 C 
ENDBRANCH  28  30
ENDBRANCH  18  26
ENDBRANCH  13  18
TORSDOF 6
ENDMDL
MODEL 9
REMARK VINA RESULT:      -6.6      4.632      9.166
REMARK  Name = 45784104
REMARK  10 active torsions:
REMARK  status: ('A' for Active; 'I' for Inactive)
REMARK    1  A    between atoms: N_2  and  C_15
REMARK    2  A    between atoms: N_8  and  C_35
REMARK    3  A    between atoms: C_10  and  C_14
REMARK    4  A    between atoms: C_11  and  C_15
REMARK    5  A    between atoms: C_13  and  C_18
REMARK    6  A    between atoms: C_14  and  C_19
REMARK    7  A    between atoms: C_14  and  C_20
REMARK    8  A    between atoms: C_17  and  C_23
REMARK    9  A    between atoms: C_18  and  C_26
REMARK   10  A    between atoms: C_28  and  C_30
REMARK                            x       y       z     vdW  Elec       q    Type
REMARK                         _______ _______ _______ _____ _____    ______ ____
ROOT
ATOM     10  C   UNL     1      -8.332 -11.805  17.936  0.00  0.00    +0.000 C 
ATOM     11  C   UNL     1      -7.695 -10.469  18.381  0.00  0.00    +0.029 C 
ATOM     12  C   UNL     1      -7.341 -12.619  17.091  0.00  0.00    +0.012 C 
ATOM     13  C   UNL     1      -6.008 -12.902  17.816  0.00  0.00    +0.024 C 
ATOM     16  C   UNL     1      -6.276 -10.636  18.865  0.00  0.00    -0.023 C 
ATOM     17  C   UNL     1      -5.512 -11.721  18.633  0.00  0.00    -0.073 C 
ATOM     23  C   UNL     1      -4.138 -11.821  19.238  0.00  0.00    +0.039 C 
ENDROOT
BRANCH  10  14
ATOM     14  C   UNL     1      -8.831 -12.617  19.139  0.00  0.00    -0.013 C 
ATOM     19  C   UNL     1      -9.552 -13.875  18.670  0.00  0.00    +0.007 C 
ATOM     20  C   UNL     1      -9.745 -11.764  20.014  0.00  0.00    +0.007 C 
ENDBRANCH  10  14
BRANCH  11  15
ATOM     15  C   UNL     1      -7.724  -9.426  17.259  0.00  0.00    +0.092 C 
BRANCH  15   2
ATOM      2  N   UNL     1      -9.090  -9.220  16.781  0.00  0.00    -0.299 NA
ATOM      3  N   UNL     1     -11.242  -7.778  15.578  0.00  0.00    -0.312 N 
ATOM      6  N   UNL     1     -13.560  -7.262  15.659  0.00  0.00    -0.237 NA
ATOM      7  N   UNL     1     -13.271  -5.853  13.252  0.00  0.00    -0.258 NA
ATOM     21  C   UNL     1      -9.097  -8.964  15.336  0.00  0.00    +0.103 C 
ATOM     22  C   UNL     1      -9.720  -8.099  17.490  0.00  0.00    +0.103 C 
ATOM     24  C   UNL     1     -10.527  -8.802  14.812  0.00  0.00    +0.122 C 
ATOM     25  C   UNL     1     -11.170  -7.909  17.039  0.00  0.00    +0.122 C 
ATOM     27  C   UNL     1     -12.373  -7.163  15.028  0.00  0.00    +0.140 A 
ATOM     29  C   UNL     1     -12.232  -6.471  13.846  0.00  0.00    +0.154 A 
ATOM     31  C   UNL     1     -14.599  -6.644  15.066  0.00  0.00    +0.132 A 
ATOM     32  C   UNL     1     -14.458  -5.952  13.883  0.00  0.00    +0.130 A 
ENDBRANCH  15   2
ENDBRANCH  11  15
BRANCH  13  18
ATOM     18  C   UNL     1      -4.983 -13.386  16.783  0.00  0.00    +0.105 C 
BRANCH  18  26
ATOM      1  O   UNL     1      -5.354 -12.009  14.802  0.00  0.00    -0.419 OA
ATOM      4  N   UNL     1      -3.501 -11.490  15.944  0.00  0.00    -0.112 NA
ATOM      5  N   UNL     1      -3.585 -10.640  14.857  0.00  0.00    -0.106 NA
ATOM     26  C   UNL     1      -4.554 -12.272  15.872  0.00  0.00    +0.218 A 
ATOM     28  C   UNL     1      -4.680 -10.980  14.220  0.00  0.00    +0.266 A 
BRANCH  28  30
ATOM      8  N   UNL     1      -4.516 -10.442  11.817  0.00  0.00    -0.329 N 
ATOM      9  N   UNL     1      -6.260  -9.101  11.515  0.00  0.00    -0.243 NA
ATOM     30  C   UNL     1      -5.122 -10.337  13.038  0.00  0.00    +0.125 A 
ATOM     33  C   UNL     1      -6.196  -9.504  12.826  0.00  0.00    +0.143 A 
ATOM     34  C   UNL     1      -5.234  -9.684  10.935  0.00  0.00    +0.199 A 
ATOM     35  C   UNL     1      -3.335 -11.208  11.492  0.00  0.00    +0.150 C 
ENDBRANCH  28  30
ENDBRANCH  18  26
ENDBRANCH  13  18
TORSDOF 6
ENDMDL
MODEL 10
REMARK VINA RESULT:      -6.6      3.048     10.458
REMARK  Name = 45784104
REMARK  10 active torsions:
REMARK  status: ('A' for Active; 'I' for Inactive)
REMARK    1  A    between atoms: N_2  and  C_15
REMARK    2  A    between atoms: N_8  and  C_35
REMARK    3  A    between atoms: C_10  and  C_14
REMARK    4  A    between atoms: C_11  and  C_15
REMARK    5  A    between atoms: C_13  and  C_18
REMARK    6  A    between atoms: C_14  and  C_19
REMARK    7  A    between atoms: C_14  and  C_20
REMARK    8  A    between atoms: C_17  and  C_23
REMARK    9  A    between atoms: C_18  and  C_26
REMARK   10  A    between atoms: C_28  and  C_30
REMARK                            x       y       z     vdW  Elec       q    Type
REMARK                         _______ _______ _______ _____ _____    ______ ____
ROOT
ATOM     10  C   UNL     1      -3.846 -12.233  13.542  0.00  0.00    +0.000 C 
ATOM     11  C   UNL     1      -2.763 -11.506  14.371  0.00  0.00    +0.029 C 
ATOM     12  C   UNL     1      -4.452 -11.285  12.497  0.00  0.00    +0.012 C 
ATOM     13  C   UNL     1      -3.402 -10.673  11.546  0.00  0.00    +0.024 C 
ATOM     16  C   UNL     1      -1.847 -10.666  13.518  0.00  0.00    -0.023 C 
ATOM     17  C   UNL     1      -2.109 -10.295  12.250  0.00  0.00    -0.073 C 
ATOM     23  C   UNL     1      -1.084  -9.529  11.458  0.00  0.00    +0.039 C 
ENDROOT
BRANCH  10  14
ATOM     14  C   UNL     1      -3.288 -13.502  12.882  0.00  0.00    -0.013 C 
ATOM     19  C   UNL     1      -4.417 -14.319  12.263  0.00  0.00    +0.007 C 
ATOM     20  C   UNL     1      -2.513 -14.333  13.899  0.00  0.00    +0.007 C 
ENDBRANCH  10  14
BRANCH  11  15
ATOM     15  C   UNL     1      -3.383 -10.625  15.462  0.00  0.00    +0.092 C 
BRANCH  15   2
ATOM      2  N   UNL     1      -4.586 -11.248  16.008  0.00  0.00    -0.299 NA
ATOM      3  N   UNL     1      -6.701 -11.631  17.890  0.00  0.00    -0.312 N 
ATOM      6  N   UNL     1      -8.039 -13.207  19.060  0.00  0.00    -0.237 NA
ATOM      7  N   UNL     1      -9.546 -11.077  20.088  0.00  0.00    -0.258 NA
ATOM     21  C   UNL     1      -5.672 -10.267  16.115  0.00  0.00    +0.103 C 
ATOM     22  C   UNL     1      -4.310 -11.834  17.326  0.00  0.00    +0.103 C 
ATOM     24  C   UNL     1      -6.956 -10.921  16.633  0.00  0.00    +0.122 C 
ATOM     25  C   UNL     1      -5.548 -12.540  17.884  0.00  0.00    +0.122 C 
ATOM     27  C   UNL     1      -7.765 -11.925  18.750  0.00  0.00    +0.140 A 
ATOM     29  C   UNL     1      -8.506 -10.879  19.255  0.00  0.00    +0.154 A 
ATOM     31  C   UNL     1      -9.079 -13.406  19.893  0.00  0.00    +0.132 A 
ATOM     32  C   UNL     1      -9.820 -12.360  20.398  0.00  0.00    +0.130 A 
ENDBRANCH  15   2
ENDBRANCH  11  15
BRANCH  13  18
ATOM     18  C   UNL     1      -4.043  -9.495  10.803  0.00  0.00    +0.105 C 
BRANCH  18  26
ATOM      1  O   UNL     1      -4.233 -11.172   9.041  0.00  0.00    -0.419 OA
ATOM      4  N   UNL     1      -5.044  -9.163   8.483  0.00  0.00    -0.112 NA
ATOM      5  N   UNL     1      -5.214 -10.008   7.402  0.00  0.00    -0.106 NA
ATOM     26  C   UNL     1      -4.467  -9.885   9.416  0.00  0.00    +0.218 A 
ATOM     28  C   UNL     1      -4.727 -11.168   7.772  0.00  0.00    +0.266 A 
BRANCH  28  30
ATOM      8  N   UNL     1      -5.776 -13.148   6.739  0.00  0.00    -0.329 N 
ATOM      9  N   UNL     1      -4.125 -13.959   5.495  0.00  0.00    -0.243 NA
ATOM     30  C   UNL     1      -4.714 -12.309   6.934  0.00  0.00    +0.125 A 
ATOM     33  C   UNL     1      -3.707 -12.831   6.155  0.00  0.00    +0.143 A 
ATOM     34  C   UNL     1      -5.375 -14.123   5.869  0.00  0.00    +0.199 A 
ATOM     35  C   UNL     1      -7.090 -13.045   7.331  0.00  0.00    +0.150 C 
ENDBRANCH  28  30
ENDBRANCH  18  26
ENDBRANCH  13  18
TORSDOF 6
ENDMDL
