MODEL 1
REMARK VINA RESULT:      -8.0      0.000      0.000
REMARK  Name = 51136833
REMARK  5 active torsions:
REMARK  status: ('A' for Active; 'I' for Inactive)
REMARK    1  A    between atoms: N_3  and  C_15
REMARK    2  A    between atoms: C_11  and  C_16
REMARK    3  A    between atoms: C_15  and  C_19
REMARK    4  A    between atoms: C_23  and  C_24
REMARK    5  A    between atoms: C_26  and  C_31
REMARK                            x       y       z     vdW  Elec       q    Type
REMARK                         _______ _______ _______ _____ _____    ______ ____
ROOT
ATOM      1  O   UNL     1      15.713   6.196  18.909  0.00  0.00    -0.336 OA
ATOM      6  N   UNL     1      16.361   8.025  20.029  0.00  0.00    -0.190 NA
ATOM      8  N   UNL     1      16.938   5.873  19.508  0.00  0.00    -0.056 NA
ATOM     16  C   UNL     1      15.447   7.480  19.266  0.00  0.00    +0.245 A 
ATOM     23  C   UNL     1      17.256   7.002  20.150  0.00  0.00    +0.202 A 
ENDROOT
BRANCH  23  24
ATOM      2  O   UNL     1      24.568   1.367  20.857  0.00  0.00    -0.276 OA
ATOM      4  N   UNL     1      21.665   5.478  21.368  0.00  0.00    -0.312 N 
ATOM      5  N   UNL     1      23.787   3.553  20.950  0.00  0.00    -0.299 N 
ATOM     10  N   UNL     1      20.805   7.411  22.415  0.00  0.00    -0.240 NA
ATOM     17  C   UNL     1      21.369   4.083  21.030  0.00  0.00    +0.125 C 
ATOM     18  C   UNL     1      23.065   5.859  21.566  0.00  0.00    +0.125 C 
ATOM     20  C   UNL     1      22.493   3.163  21.503  0.00  0.00    +0.126 C 
ATOM     21  C   UNL     1      23.991   4.986  20.720  0.00  0.00    +0.126 C 
ATOM     22  C   UNL     1      20.637   6.403  21.531  0.00  0.00    +0.122 A 
ATOM     24  C   UNL     1      18.460   7.140  20.920  0.00  0.00    +0.027 A 
ATOM     25  C   UNL     1      19.496   6.225  20.766  0.00  0.00    +0.055 A 
ATOM     26  C   UNL     1      24.737   2.573  20.664  0.00  0.00    +0.213 C 
ATOM     27  C   UNL     1      18.596   8.190  21.819  0.00  0.00    +0.031 A 
ATOM     30  C   UNL     1      19.777   8.281  22.537  0.00  0.00    +0.113 A 
ATOM     31  C   UNL     1      26.045   3.059  20.088  0.00  0.00    +0.109 C 
ENDBRANCH  23  24
BRANCH  16  11
ATOM      3  N   UNL     1      14.104   9.540  18.891  0.00  0.00    -0.284 NA
ATOM     11  C   UNL     1      14.158   8.073  18.738  0.00  0.00    +0.146 C 
ATOM     12  C   UNL     1      13.964   7.829  17.231  0.00  0.00    +0.030 C 
ATOM     13  C   UNL     1      13.749   9.209  16.628  0.00  0.00    +0.017 C 
ATOM     14  C   UNL     1      13.265  10.039  17.801  0.00  0.00    +0.085 C 
BRANCH   3  15
ATOM     15  C   UNL     1      13.616   9.965  20.197  0.00  0.00    +0.159 C 
BRANCH  15  19
ATOM      7  N   UNL     1      11.330   8.945  20.306  0.00  0.00    -0.347 N 
ATOM      9  N   UNL     1      12.829   8.112  21.718  0.00  0.00    -0.239 NA
ATOM     19  C   UNL     1      12.617   8.992  20.765  0.00  0.00    +0.121 A 
ATOM     28  C   UNL     1      10.680   7.972  21.012  0.00  0.00    +0.104 A 
ATOM     29  C   UNL     1      11.624   7.472  21.876  0.00  0.00    +0.130 A 
ATOM     32  H   UNL     1      10.930   9.521  19.578  0.00  0.00    +0.167 HD
ENDBRANCH  15  19
ENDBRANCH   3  15
ENDBRANCH  16  11
TORSDOF 4
ENDMDL
MODEL 2
REMARK VINA RESULT:      -7.7     28.148     30.761
REMARK  Name = 51136833
REMARK  5 active torsions:
REMARK  status: ('A' for Active; 'I' for Inactive)
REMARK    1  A    between atoms: N_3  and  C_15
REMARK    2  A    between atoms: C_11  and  C_16
REMARK    3  A    between atoms: C_15  and  C_19
REMARK    4  A    between atoms: C_23  and  C_24
REMARK    5  A    between atoms: C_26  and  C_31
REMARK                            x       y       z     vdW  Elec       q    Type
REMARK                         _______ _______ _______ _____ _____    ______ ____
ROOT
ATOM      1  O   UNL     1      -3.699 -11.308  17.476  0.00  0.00    -0.336 OA
ATOM      6  N   UNL     1      -5.018 -10.391  15.915  0.00  0.00    -0.190 NA
ATOM      8  N   UNL     1      -2.975 -11.356  16.277  0.00  0.00    -0.056 NA
ATOM     16  C   UNL     1      -4.889 -10.726  17.175  0.00  0.00    +0.245 A 
ATOM     23  C   UNL     1      -3.819 -10.798  15.405  0.00  0.00    +0.202 A 
ENDROOT
BRANCH  23  24
ATOM      2  O   UNL     1      -9.322  -9.047   8.168  0.00  0.00    -0.276 OA
ATOM      4  N   UNL     1      -5.109  -9.692  10.892  0.00  0.00    -0.312 N 
ATOM      5  N   UNL     1      -7.203  -8.819   9.094  0.00  0.00    -0.299 N 
ATOM     10  N   UNL     1      -2.868 -10.306  11.312  0.00  0.00    -0.240 NA
ATOM     17  C   UNL     1      -6.504 -10.087  11.104  0.00  0.00    +0.125 C 
ATOM     18  C   UNL     1      -4.786  -8.906   9.700  0.00  0.00    +0.125 C 
ATOM     20  C   UNL     1      -7.266 -10.107   9.780  0.00  0.00    +0.126 C 
ATOM     21  C   UNL     1      -5.975  -8.042   9.280  0.00  0.00    +0.126 C 
ATOM     22  C   UNL     1      -4.115 -10.088  11.784  0.00  0.00    +0.122 A 
ATOM     24  C   UNL     1      -3.497 -10.632  14.015  0.00  0.00    +0.027 A 
ATOM     25  C   UNL     1      -4.478 -10.236  13.113  0.00  0.00    +0.055 A 
ATOM     26  C   UNL     1      -8.287  -8.394   8.326  0.00  0.00    +0.213 C 
ATOM     27  C   UNL     1      -2.202 -10.866  13.567  0.00  0.00    +0.031 A 
ATOM     30  C   UNL     1      -1.941 -10.691  12.218  0.00  0.00    +0.113 A 
ATOM     31  C   UNL     1      -8.144  -7.049   7.657  0.00  0.00    +0.109 C 
ENDBRANCH  23  24
BRANCH  16  11
ATOM      3  N   UNL     1      -7.272 -10.554  17.869  0.00  0.00    -0.284 NA
ATOM     11  C   UNL     1      -5.866 -10.555  18.319  0.00  0.00    +0.146 C 
ATOM     12  C   UNL     1      -5.784 -11.699  19.346  0.00  0.00    +0.030 C 
ATOM     13  C   UNL     1      -7.201 -12.240  19.454  0.00  0.00    +0.017 C 
ATOM     14  C   UNL     1      -8.061 -11.085  18.981  0.00  0.00    +0.085 C 
BRANCH   3  15
ATOM     15  C   UNL     1      -7.738  -9.241  17.443  0.00  0.00    +0.159 C 
BRANCH  15  19
ATOM      7  N   UNL     1      -7.830  -9.595  14.965  0.00  0.00    -0.347 N 
ATOM      9  N   UNL     1      -9.763  -9.110  15.944  0.00  0.00    -0.239 NA
ATOM     19  C   UNL     1      -8.478  -9.307  16.134  0.00  0.00    +0.121 A 
ATOM     28  C   UNL     1      -8.762  -9.581  13.966  0.00  0.00    +0.104 A 
ATOM     29  C   UNL     1      -9.947  -9.280  14.594  0.00  0.00    +0.130 A 
ATOM     32  H   UNL     1      -6.843  -9.786  14.856  0.00  0.00    +0.167 HD
ENDBRANCH  15  19
ENDBRANCH   3  15
ENDBRANCH  16  11
TORSDOF 4
ENDMDL
MODEL 3
REMARK VINA RESULT:      -7.7      2.313      3.806
REMARK  Name = 51136833
REMARK  5 active torsions:
REMARK  status: ('A' for Active; 'I' for Inactive)
REMARK    1  A    between atoms: N_3  and  C_15
REMARK    2  A    between atoms: C_11  and  C_16
REMARK    3  A    between atoms: C_15  and  C_19
REMARK    4  A    between atoms: C_23  and  C_24
REMARK    5  A    between atoms: C_26  and  C_31
REMARK                            x       y       z     vdW  Elec       q    Type
REMARK                         _______ _______ _______ _____ _____    ______ ____
ROOT
ATOM      1  O   UNL     1      15.598  10.595  22.314  0.00  0.00    -0.336 OA
ATOM      6  N   UNL     1      14.684   9.240  20.782  0.00  0.00    -0.190 NA
ATOM      8  N   UNL     1      16.590   9.666  21.973  0.00  0.00    -0.056 NA
ATOM     16  C   UNL     1      14.508  10.273  21.568  0.00  0.00    +0.245 A 
ATOM     23  C   UNL     1      15.975   8.902  21.066  0.00  0.00    +0.202 A 
ENDROOT
BRANCH  23  24
ATOM      2  O   UNL     1      24.762   6.025  21.545  0.00  0.00    -0.276 OA
ATOM      4  N   UNL     1      19.826   6.067  20.442  0.00  0.00    -0.312 N 
ATOM      5  N   UNL     1      22.540   5.429  21.219  0.00  0.00    -0.299 N 
ATOM     10  N   UNL     1      17.880   5.630  19.178  0.00  0.00    -0.240 NA
ATOM     17  C   UNL     1      20.769   7.117  20.840  0.00  0.00    +0.125 C 
ATOM     18  C   UNL     1      20.315   4.689  20.373  0.00  0.00    +0.125 C 
ATOM     20  C   UNL     1      22.206   6.686  20.556  0.00  0.00    +0.126 C 
ATOM     21  C   UNL     1      21.449   4.464  21.372  0.00  0.00    +0.126 C 
ATOM     22  C   UNL     1      18.512   6.383  20.105  0.00  0.00    +0.122 A 
ATOM     24  C   UNL     1      16.622   7.792  20.424  0.00  0.00    +0.027 A 
ATOM     25  C   UNL     1      17.934   7.464  20.751  0.00  0.00    +0.055 A 
ATOM     26  C   UNL     1      23.842   5.214  21.673  0.00  0.00    +0.213 C 
ATOM     27  C   UNL     1      15.940   7.041  19.475  0.00  0.00    +0.031 A 
ATOM     30  C   UNL     1      16.607   5.979  18.886  0.00  0.00    +0.113 A 
ATOM     31  C   UNL     1      24.102   3.893  22.354  0.00  0.00    +0.109 C 
ENDBRANCH  23  24
BRANCH  16  11
ATOM      3  N   UNL     1      12.105  10.371  22.202  0.00  0.00    -0.284 NA
ATOM     11  C   UNL     1      13.282  11.141  21.755  0.00  0.00    +0.146 C 
ATOM     12  C   UNL     1      13.477  12.221  22.835  0.00  0.00    +0.030 C 
ATOM     13  C   UNL     1      12.329  12.018  23.812  0.00  0.00    +0.017 C 
ATOM     14  C   UNL     1      11.284  11.291  22.990  0.00  0.00    +0.085 C 
BRANCH   3  15
ATOM     15  C   UNL     1      11.357   9.773  21.103  0.00  0.00    +0.159 C 
BRANCH  15  19
ATOM      7  N   UNL     1      12.147   7.535  20.301  0.00  0.00    -0.347 N 
ATOM      9  N   UNL     1      10.711   7.503  21.995  0.00  0.00    -0.239 NA
ATOM     19  C   UNL     1      11.380   8.269  21.163  0.00  0.00    +0.121 A 
ATOM     28  C   UNL     1      11.954   6.216  20.604  0.00  0.00    +0.104 A 
ATOM     29  C   UNL     1      11.065   6.222  21.652  0.00  0.00    +0.130 A 
ATOM     32  H   UNL     1      12.749   7.897  19.575  0.00  0.00    +0.167 HD
ENDBRANCH  15  19
ENDBRANCH   3  15
ENDBRANCH  16  11
TORSDOF 4
ENDMDL
MODEL 4
REMARK VINA RESULT:      -7.6     28.324     31.467
REMARK  Name = 51136833
REMARK  5 active torsions:
REMARK  status: ('A' for Active; 'I' for Inactive)
REMARK    1  A    between atoms: N_3  and  C_15
REMARK    2  A    between atoms: C_11  and  C_16
REMARK    3  A    between atoms: C_15  and  C_19
REMARK    4  A    between atoms: C_23  and  C_24
REMARK    5  A    between atoms: C_26  and  C_31
REMARK                            x       y       z     vdW  Elec       q    Type
REMARK                         _______ _______ _______ _____ _____    ______ ____
ROOT
ATOM      1  O   UNL     1      -2.323 -10.919  15.785  0.00  0.00    -0.336 OA
ATOM      6  N   UNL     1      -4.523 -10.902  15.364  0.00  0.00    -0.190 NA
ATOM      8  N   UNL     1      -2.959 -10.871  17.033  0.00  0.00    -0.056 NA
ATOM     16  C   UNL     1      -3.316 -10.934  14.857  0.00  0.00    +0.245 A 
ATOM     23  C   UNL     1      -4.253 -10.864  16.701  0.00  0.00    +0.202 A 
ENDROOT
BRANCH  23  24
ATOM      2  O   UNL     1     -12.715  -7.138  16.212  0.00  0.00    -0.276 OA
ATOM      4  N   UNL     1      -8.782  -9.795  17.963  0.00  0.00    -0.312 N 
ATOM      5  N   UNL     1     -11.371  -8.785  17.151  0.00  0.00    -0.299 N 
ATOM     10  N   UNL     1      -7.345 -10.730  19.586  0.00  0.00    -0.240 NA
ATOM     17  C   UNL     1      -8.902  -8.735  16.957  0.00  0.00    +0.125 C 
ATOM     18  C   UNL     1     -10.005 -10.278  18.607  0.00  0.00    +0.125 C 
ATOM     20  C   UNL     1     -10.185  -7.933  17.169  0.00  0.00    +0.126 C 
ATOM     21  C   UNL     1     -11.203 -10.146  17.667  0.00  0.00    +0.126 C 
ATOM     22  C   UNL     1      -7.533 -10.297  18.320  0.00  0.00    +0.122 A 
ATOM     24  C   UNL     1      -5.302 -10.817  17.680  0.00  0.00    +0.027 A 
ATOM     25  C   UNL     1      -6.555 -10.319  17.339  0.00  0.00    +0.055 A 
ATOM     26  C   UNL     1     -12.571  -8.284  16.647  0.00  0.00    +0.213 C 
ATOM     27  C   UNL     1      -5.070 -11.272  18.973  0.00  0.00    +0.031 A 
ATOM     30  C   UNL     1      -6.114 -11.207  19.880  0.00  0.00    +0.113 A 
ATOM     31  C   UNL     1     -13.746  -9.231  16.656  0.00  0.00    +0.109 C 
ENDBRANCH  23  24
BRANCH  16  11
ATOM      3  N   UNL     1      -2.765 -12.367  12.899  0.00  0.00    -0.284 NA
ATOM     11  C   UNL     1      -2.883 -10.986  13.407  0.00  0.00    +0.146 C 
ATOM     12  C   UNL     1      -3.890 -10.306  12.462  0.00  0.00    +0.030 C 
ATOM     13  C   UNL     1      -4.235 -11.361  11.421  0.00  0.00    +0.017 C 
ATOM     14  C   UNL     1      -3.051 -12.306  11.465  0.00  0.00    +0.085 C 
BRANCH   3  15
ATOM     15  C   UNL     1      -1.469 -12.973  13.175  0.00  0.00    +0.159 C 
BRANCH  15  19
ATOM      7  N   UNL     1      -2.580 -14.674  14.640  0.00  0.00    -0.347 N 
ATOM      9  N   UNL     1      -0.864 -15.408  13.437  0.00  0.00    -0.239 NA
ATOM     19  C   UNL     1      -1.608 -14.366  13.730  0.00  0.00    +0.121 A 
ATOM     28  C   UNL     1      -2.447 -15.999  14.947  0.00  0.00    +0.104 A 
ATOM     29  C   UNL     1      -1.383 -16.431  14.192  0.00  0.00    +0.130 A 
ATOM     32  H   UNL     1      -3.273 -14.042  15.018  0.00  0.00    +0.167 HD
ENDBRANCH  15  19
ENDBRANCH   3  15
ENDBRANCH  16  11
TORSDOF 4
ENDMDL
MODEL 5
REMARK VINA RESULT:      -7.5     27.338     30.554
REMARK  Name = 51136833
REMARK  5 active torsions:
REMARK  status: ('A' for Active; 'I' for Inactive)
REMARK    1  A    between atoms: N_3  and  C_15
REMARK    2  A    between atoms: C_11  and  C_16
REMARK    3  A    between atoms: C_15  and  C_19
REMARK    4  A    between atoms: C_23  and  C_24
REMARK    5  A    between atoms: C_26  and  C_31
REMARK                            x       y       z     vdW  Elec       q    Type
REMARK                         _______ _______ _______ _____ _____    ______ ____
ROOT
ATOM      1  O   UNL     1      -3.485  -9.914   9.874  0.00  0.00    -0.336 OA
ATOM      6  N   UNL     1      -4.579 -11.098  11.430  0.00  0.00    -0.190 NA
ATOM      8  N   UNL     1      -2.802  -9.701  11.079  0.00  0.00    -0.056 NA
ATOM     16  C   UNL     1      -4.518 -10.747  10.169  0.00  0.00    +0.245 A 
ATOM     23  C   UNL     1      -3.507 -10.431  11.948  0.00  0.00    +0.202 A 
ENDROOT
BRANCH  23  24
ATOM      2  O   UNL     1      -8.975 -10.672  19.415  0.00  0.00    -0.276 OA
ATOM      4  N   UNL     1      -4.802 -10.915  16.567  0.00  0.00    -0.312 N 
ATOM      5  N   UNL     1      -6.944 -11.297  18.477  0.00  0.00    -0.299 N 
ATOM     10  N   UNL     1      -2.510 -10.683  16.051  0.00  0.00    -0.240 NA
ATOM     17  C   UNL     1      -6.130 -10.337  16.343  0.00  0.00    +0.125 C 
ATOM     18  C   UNL     1      -4.561 -11.628  17.823  0.00  0.00    +0.125 C 
ATOM     20  C   UNL     1      -6.839 -10.082  17.673  0.00  0.00    +0.126 C 
ATOM     21  C   UNL     1      -5.850 -12.263  18.344  0.00  0.00    +0.126 C 
ATOM     22  C   UNL     1      -3.789 -10.754  15.624  0.00  0.00    +0.122 A 
ATOM     24  C   UNL     1      -3.169 -10.515  13.340  0.00  0.00    +0.027 A 
ATOM     25  C   UNL     1      -4.169 -10.677  14.294  0.00  0.00    +0.055 A 
ATOM     26  C   UNL     1      -8.054 -11.483  19.301  0.00  0.00    +0.213 C 
ATOM     27  C   UNL     1      -1.841 -10.437  13.741  0.00  0.00    +0.031 A 
ATOM     30  C   UNL     1      -1.566 -10.526  15.096  0.00  0.00    +0.113 A 
ATOM     31  C   UNL     1      -8.089 -12.768  20.092  0.00  0.00    +0.109 C 
ENDBRANCH  23  24
BRANCH  16  11
ATOM      3  N   UNL     1      -6.117  -9.978   8.426  0.00  0.00    -0.284 NA
ATOM     11  C   UNL     1      -5.420 -11.137   9.018  0.00  0.00    +0.146 C 
ATOM     12  C   UNL     1      -4.649 -11.771   7.846  0.00  0.00    +0.030 C 
ATOM     13  C   UNL     1      -5.021 -10.939   6.628  0.00  0.00    +0.017 C 
ATOM     14  C   UNL     1      -6.342 -10.307   7.018  0.00  0.00    +0.085 C 
BRANCH   3  15
ATOM     15  C   UNL     1      -7.355  -9.638   9.114  0.00  0.00    +0.159 C 
BRANCH  15  19
ATOM      7  N   UNL     1      -7.056  -7.235   8.471  0.00  0.00    -0.347 N 
ATOM      9  N   UNL     1      -9.145  -7.987   8.453  0.00  0.00    -0.239 NA
ATOM     19  C   UNL     1      -7.889  -8.299   8.678  0.00  0.00    +0.121 A 
ATOM     28  C   UNL     1      -7.831  -6.177   8.088  0.00  0.00    +0.104 A 
ATOM     29  C   UNL     1      -9.116  -6.665   8.083  0.00  0.00    +0.130 A 
ATOM     32  H   UNL     1      -6.051  -7.229   8.578  0.00  0.00    +0.167 HD
ENDBRANCH  15  19
ENDBRANCH   3  15
ENDBRANCH  16  11
TORSDOF 4
ENDMDL
MODEL 6
REMARK VINA RESULT:      -7.5     26.986     31.475
REMARK  Name = 51136833
REMARK  5 active torsions:
REMARK  status: ('A' for Active; 'I' for Inactive)
REMARK    1  A    between atoms: N_3  and  C_15
REMARK    2  A    between atoms: C_11  and  C_16
REMARK    3  A    between atoms: C_15  and  C_19
REMARK    4  A    between atoms: C_23  and  C_24
REMARK    5  A    between atoms: C_26  and  C_31
REMARK                            x       y       z     vdW  Elec       q    Type
REMARK                         _______ _______ _______ _____ _____    ______ ____
ROOT
ATOM      1  O   UNL     1      -4.299 -13.249  15.409  0.00  0.00    -0.336 OA
ATOM      6  N   UNL     1      -4.549 -11.265  16.420  0.00  0.00    -0.190 NA
ATOM      8  N   UNL     1      -5.483 -13.338  16.155  0.00  0.00    -0.056 NA
ATOM     16  C   UNL     1      -3.813 -11.998  15.621  0.00  0.00    +0.245 A 
ATOM     23  C   UNL     1      -5.561 -12.130  16.722  0.00  0.00    +0.202 A 
ENDROOT
BRANCH  23  24
ATOM      2  O   UNL     1     -12.221  -5.796  15.609  0.00  0.00    -0.276 OA
ATOM      4  N   UNL     1      -9.597  -9.639  17.592  0.00  0.00    -0.312 N 
ATOM      5  N   UNL     1     -11.604  -7.812  16.586  0.00  0.00    -0.299 N 
ATOM     10  N   UNL     1      -8.733 -11.028  19.295  0.00  0.00    -0.240 NA
ATOM     17  C   UNL     1      -9.251  -8.582  16.637  0.00  0.00    +0.125 C 
ATOM     18  C   UNL     1     -10.973  -9.700  18.087  0.00  0.00    +0.125 C 
ATOM     20  C   UNL     1     -10.214  -7.403  16.765  0.00  0.00    +0.126 C 
ATOM     21  C   UNL     1     -11.951  -9.160  17.043  0.00  0.00    +0.126 C 
ATOM     22  C   UNL     1      -8.629 -10.535  18.041  0.00  0.00    +0.122 A 
ATOM     24  C   UNL     1      -6.637 -11.755  17.596  0.00  0.00    +0.027 A 
ATOM     25  C   UNL     1      -7.611 -10.863  17.160  0.00  0.00    +0.055 A 
ATOM     26  C   UNL     1     -12.510  -6.931  15.995  0.00  0.00    +0.213 C 
ATOM     27  C   UNL     1      -6.710 -12.284  18.878  0.00  0.00    +0.031 A 
ATOM     30  C   UNL     1      -7.768 -11.892  19.682  0.00  0.00    +0.113 A 
ATOM     31  C   UNL     1     -13.925  -7.434  15.839  0.00  0.00    +0.109 C 
ENDBRANCH  23  24
BRANCH  16  11
ATOM      3  N   UNL     1      -2.717 -10.667  13.828  0.00  0.00    -0.284 NA
ATOM     11  C   UNL     1      -2.521 -11.647  14.914  0.00  0.00    +0.146 C 
ATOM     12  C   UNL     1      -1.490 -10.992  15.851  0.00  0.00    +0.030 C 
ATOM     13  C   UNL     1      -1.119  -9.679  15.180  0.00  0.00    +0.017 C 
ATOM     14  C   UNL     1      -1.468  -9.911  13.723  0.00  0.00    +0.085 C 
BRANCH   3  15
ATOM     15  C   UNL     1      -3.094 -11.281  12.561  0.00  0.00    +0.159 C 
BRANCH  15  19
ATOM      7  N   UNL     1      -4.790  -9.603  11.796  0.00  0.00    -0.347 N 
ATOM      9  N   UNL     1      -3.047  -9.897  10.452  0.00  0.00    -0.239 NA
ATOM     19  C   UNL     1      -3.614 -10.265  11.579  0.00  0.00    +0.121 A 
ATOM     28  C   UNL     1      -4.986  -8.759  10.740  0.00  0.00    +0.104 A 
ATOM     29  C   UNL     1      -3.898  -8.958   9.924  0.00  0.00    +0.130 A 
ATOM     32  H   UNL     1      -5.404  -9.713  12.592  0.00  0.00    +0.167 HD
ENDBRANCH  15  19
ENDBRANCH   3  15
ENDBRANCH  16  11
TORSDOF 4
ENDMDL
MODEL 7
REMARK VINA RESULT:      -7.4     27.160     30.519
REMARK  Name = 51136833
REMARK  5 active torsions:
REMARK  status: ('A' for Active; 'I' for Inactive)
REMARK    1  A    between atoms: N_3  and  C_15
REMARK    2  A    between atoms: C_11  and  C_16
REMARK    3  A    between atoms: C_15  and  C_19
REMARK    4  A    between atoms: C_23  and  C_24
REMARK    5  A    between atoms: C_26  and  C_31
REMARK                            x       y       z     vdW  Elec       q    Type
REMARK                         _______ _______ _______ _____ _____    ______ ____
ROOT
ATOM      1  O   UNL     1      -5.192 -11.670  19.131  0.00  0.00    -0.336 OA
ATOM      6  N   UNL     1      -5.722 -10.800  17.136  0.00  0.00    -0.190 NA
ATOM      8  N   UNL     1      -4.007 -11.658  18.384  0.00  0.00    -0.056 NA
ATOM     16  C   UNL     1      -6.152 -11.150  18.323  0.00  0.00    +0.245 A 
ATOM     23  C   UNL     1      -4.401 -11.132  17.220  0.00  0.00    +0.202 A 
ENDROOT
BRANCH  23  24
ATOM      2  O   UNL     1      -5.786 -12.053   8.113  0.00  0.00    -0.276 OA
ATOM      4  N   UNL     1      -3.541 -10.853  12.484  0.00  0.00    -0.312 N 
ATOM      5  N   UNL     1      -4.611 -10.965   9.797  0.00  0.00    -0.299 N 
ATOM     10  N   UNL     1      -1.748 -10.517  13.983  0.00  0.00    -0.240 NA
ATOM     17  C   UNL     1      -4.648 -11.752  12.144  0.00  0.00    +0.125 C 
ATOM     18  C   UNL     1      -2.935 -10.066  11.409  0.00  0.00    +0.125 C 
ATOM     20  C   UNL     1      -4.596 -12.138  10.667  0.00  0.00    +0.126 C 
ATOM     21  C   UNL     1      -3.959  -9.760  10.316  0.00  0.00    +0.126 C 
ATOM     22  C   UNL     1      -3.059 -10.782  13.789  0.00  0.00    +0.122 A 
ATOM     24  C   UNL     1      -3.500 -10.924  16.122  0.00  0.00    +0.027 A 
ATOM     25  C   UNL     1      -3.968 -10.991  14.813  0.00  0.00    +0.055 A 
ATOM     26  C   UNL     1      -5.237 -11.040   8.552  0.00  0.00    +0.213 C 
ATOM     27  C   UNL     1      -2.159 -10.654  16.361  0.00  0.00    +0.031 A 
ATOM     30  C   UNL     1      -1.331 -10.460  15.267  0.00  0.00    +0.113 A 
ATOM     31  C   UNL     1      -5.215  -9.783   7.717  0.00  0.00    +0.109 C 
ENDBRANCH  23  24
BRANCH  16  11
ATOM      3  N   UNL     1      -8.597 -11.064  17.870  0.00  0.00    -0.284 NA
ATOM     11  C   UNL     1      -7.546 -11.053  18.906  0.00  0.00    +0.146 C 
ATOM     12  C   UNL     1      -7.889 -12.239  19.826  0.00  0.00    +0.030 C 
ATOM     13  C   UNL     1      -9.179 -12.817  19.264  0.00  0.00    +0.017 C 
ATOM     14  C   UNL     1      -9.781 -11.662  18.489  0.00  0.00    +0.085 C 
BRANCH   3  15
ATOM     15  C   UNL     1      -8.875  -9.744  17.318  0.00  0.00    +0.159 C 
BRANCH  15  19
ATOM      7  N   UNL     1      -7.679  -9.608  15.120  0.00  0.00    -0.347 N 
ATOM      9  N   UNL     1      -9.880  -9.884  15.008  0.00  0.00    -0.239 NA
ATOM     19  C   UNL     1      -8.850  -9.750  15.812  0.00  0.00    +0.121 A 
ATOM     28  C   UNL     1      -7.983  -9.654  13.789  0.00  0.00    +0.104 A 
ATOM     29  C   UNL     1      -9.346  -9.825  13.744  0.00  0.00    +0.130 A 
ATOM     32  H   UNL     1      -6.757  -9.493  15.517  0.00  0.00    +0.167 HD
ENDBRANCH  15  19
ENDBRANCH   3  15
ENDBRANCH  16  11
TORSDOF 4
ENDMDL
MODEL 8
REMARK VINA RESULT:      -7.4      2.971      4.049
REMARK  Name = 51136833
REMARK  5 active torsions:
REMARK  status: ('A' for Active; 'I' for Inactive)
REMARK    1  A    between atoms: N_3  and  C_15
REMARK    2  A    between atoms: C_11  and  C_16
REMARK    3  A    between atoms: C_15  and  C_19
REMARK    4  A    between atoms: C_23  and  C_24
REMARK    5  A    between atoms: C_26  and  C_31
REMARK                            x       y       z     vdW  Elec       q    Type
REMARK                         _______ _______ _______ _____ _____    ______ ____
ROOT
ATOM      1  O   UNL     1      14.788   8.481  21.124  0.00  0.00    -0.336 OA
ATOM      6  N   UNL     1      15.405   6.529  20.215  0.00  0.00    -0.190 NA
ATOM      8  N   UNL     1      16.160   8.350  21.377  0.00  0.00    -0.056 NA
ATOM     16  C   UNL     1      14.423   7.367  20.437  0.00  0.00    +0.245 A 
ATOM     23  C   UNL     1      16.450   7.175  20.811  0.00  0.00    +0.202 A 
ENDROOT
BRANCH  23  24
ATOM      2  O   UNL     1      23.719   9.166  26.187  0.00  0.00    -0.276 OA
ATOM      4  N   UNL     1      20.828   6.779  22.791  0.00  0.00    -0.312 N 
ATOM      5  N   UNL     1      22.621   7.550  24.929  0.00  0.00    -0.299 N 
ATOM     10  N   UNL     1      20.347   5.527  20.848  0.00  0.00    -0.240 NA
ATOM     17  C   UNL     1      20.777   8.122  23.377  0.00  0.00    +0.125 C 
ATOM     18  C   UNL     1      21.865   5.858  23.261  0.00  0.00    +0.125 C 
ATOM     20  C   UNL     1      22.141   8.515  23.944  0.00  0.00    +0.126 C 
ATOM     21  C   UNL     1      22.235   6.153  24.715  0.00  0.00    +0.126 C 
ATOM     22  C   UNL     1      19.937   6.408  21.787  0.00  0.00    +0.122 A 
ATOM     24  C   UNL     1      17.773   6.616  20.822  0.00  0.00    +0.027 A 
ATOM     25  C   UNL     1      18.674   6.976  21.819  0.00  0.00    +0.055 A 
ATOM     26  C   UNL     1      23.393   7.991  26.004  0.00  0.00    +0.213 C 
ATOM     27  C   UNL     1      18.157   5.713  19.840  0.00  0.00    +0.031 A 
ATOM     30  C   UNL     1      19.444   5.201  19.896  0.00  0.00    +0.113 A 
ATOM     31  C   UNL     1      23.843   6.932  26.981  0.00  0.00    +0.109 C 
ENDBRANCH  23  24
BRANCH  16  11
ATOM      3  N   UNL     1      12.170   8.418  20.506  0.00  0.00    -0.284 NA
ATOM     11  C   UNL     1      12.966   7.266  20.038  0.00  0.00    +0.146 C 
ATOM     12  C   UNL     1      12.768   7.246  18.512  0.00  0.00    +0.030 C 
ATOM     13  C   UNL     1      11.799   8.382  18.221  0.00  0.00    +0.017 C 
ATOM     14  C   UNL     1      11.082   8.587  19.541  0.00  0.00    +0.085 C 
BRANCH   3  15
ATOM     15  C   UNL     1      11.676   8.261  21.867  0.00  0.00    +0.159 C 
BRANCH  15  19
ATOM      7  N   UNL     1      12.896  10.193  22.894  0.00  0.00    -0.347 N 
ATOM      9  N   UNL     1      10.686  10.217  23.116  0.00  0.00    -0.239 NA
ATOM     19  C   UNL     1      11.714   9.559  22.630  0.00  0.00    +0.121 A 
ATOM     28  C   UNL     1      12.602  11.330  23.594  0.00  0.00    +0.104 A 
ATOM     29  C   UNL     1      11.233  11.324  23.718  0.00  0.00    +0.130 A 
ATOM     32  H   UNL     1      13.819   9.883  22.622  0.00  0.00    +0.167 HD
ENDBRANCH  15  19
ENDBRANCH   3  15
ENDBRANCH  16  11
TORSDOF 4
ENDMDL
MODEL 9
REMARK VINA RESULT:      -7.3     27.780     31.322
REMARK  Name = 51136833
REMARK  5 active torsions:
REMARK  status: ('A' for Active; 'I' for Inactive)
REMARK    1  A    between atoms: N_3  and  C_15
REMARK    2  A    between atoms: C_11  and  C_16
REMARK    3  A    between atoms: C_15  and  C_19
REMARK    4  A    between atoms: C_23  and  C_24
REMARK    5  A    between atoms: C_26  and  C_31
REMARK                            x       y       z     vdW  Elec       q    Type
REMARK                         _______ _______ _______ _____ _____    ______ ____
ROOT
ATOM      1  O   UNL     1      -2.385 -10.781  14.911  0.00  0.00    -0.336 OA
ATOM      6  N   UNL     1      -4.613 -10.848  14.695  0.00  0.00    -0.190 NA
ATOM      8  N   UNL     1      -2.906 -10.651  16.205  0.00  0.00    -0.056 NA
ATOM     16  C   UNL     1      -3.457 -10.891  14.083  0.00  0.00    +0.245 A 
ATOM     23  C   UNL     1      -4.225 -10.700  15.995  0.00  0.00    +0.202 A 
ENDROOT
BRANCH  23  24
ATOM      2  O   UNL     1     -12.727  -7.037  16.067  0.00  0.00    -0.276 OA
ATOM      4  N   UNL     1      -8.630  -9.577  17.600  0.00  0.00    -0.312 N 
ATOM      5  N   UNL     1     -11.290  -8.623  16.971  0.00  0.00    -0.299 N 
ATOM     10  N   UNL     1      -7.045 -10.414  19.136  0.00  0.00    -0.240 NA
ATOM     17  C   UNL     1      -8.850  -8.576  16.552  0.00  0.00    +0.125 C 
ATOM     18  C   UNL     1      -9.786 -10.027  18.378  0.00  0.00    +0.125 C 
ATOM     20  C   UNL     1     -10.115  -7.767  16.834  0.00  0.00    +0.126 C 
ATOM     21  C   UNL     1     -11.065  -9.952  17.545  0.00  0.00    +0.126 C 
ATOM     22  C   UNL     1      -7.350 -10.054  17.870  0.00  0.00    +0.122 A 
ATOM     24  C   UNL     1      -5.181 -10.602  17.061  0.00  0.00    +0.027 A 
ATOM     25  C   UNL     1      -6.464 -10.128  16.807  0.00  0.00    +0.055 A 
ATOM     26  C   UNL     1     -12.535  -8.155  16.550  0.00  0.00    +0.213 C 
ATOM     27  C   UNL     1      -4.830 -10.982  18.351  0.00  0.00    +0.031 A 
ATOM     30  C   UNL     1      -5.789 -10.870  19.344  0.00  0.00    +0.113 A 
ATOM     31  C   UNL     1     -13.697  -9.104  16.719  0.00  0.00    +0.109 C 
ENDBRANCH  23  24
BRANCH  16  11
ATOM      3  N   UNL     1      -4.148 -10.366  11.752  0.00  0.00    -0.284 NA
ATOM     11  C   UNL     1      -3.156 -11.046  12.607  0.00  0.00    +0.146 C 
ATOM     12  C   UNL     1      -1.804 -10.426  12.208  0.00  0.00    +0.030 C 
ATOM     13  C   UNL     1      -2.128  -9.455  11.082  0.00  0.00    +0.017 C 
ATOM     14  C   UNL     1      -3.442  -9.973  10.531  0.00  0.00    +0.085 C 
BRANCH   3  15
ATOM     15  C   UNL     1      -5.320 -11.184  11.468  0.00  0.00    +0.159 C 
BRANCH  15  19
ATOM      7  N   UNL     1      -6.805  -9.211  11.046  0.00  0.00    -0.347 N 
ATOM      9  N   UNL     1      -6.895 -10.830   9.529  0.00  0.00    -0.239 NA
ATOM     19  C   UNL     1      -6.342 -10.436  10.654  0.00  0.00    +0.121 A 
ATOM     28  C   UNL     1      -7.712  -8.798  10.111  0.00  0.00    +0.104 A 
ATOM     29  C   UNL     1      -7.750  -9.812   9.185  0.00  0.00    +0.130 A 
ATOM     32  H   UNL     1      -6.529  -8.701  11.874  0.00  0.00    +0.167 HD
ENDBRANCH  15  19
ENDBRANCH   3  15
ENDBRANCH  16  11
TORSDOF 4
ENDMDL
MODEL 10
REMARK VINA RESULT:      -7.2     27.927     31.661
REMARK  Name = 51136833
REMARK  5 active torsions:
REMARK  status: ('A' for Active; 'I' for Inactive)
REMARK    1  A    between atoms: N_3  and  C_15
REMARK    2  A    between atoms: C_11  and  C_16
REMARK    3  A    between atoms: C_15  and  C_19
REMARK    4  A    between atoms: C_23  and  C_24
REMARK    5  A    between atoms: C_26  and  C_31
REMARK                            x       y       z     vdW  Elec       q    Type
REMARK                         _______ _______ _______ _____ _____    ______ ____
ROOT
ATOM      1  O   UNL     1      -2.970 -12.302  15.134  0.00  0.00    -0.336 OA
ATOM      6  N   UNL     1      -4.786 -13.347  15.926  0.00  0.00    -0.190 NA
ATOM      8  N   UNL     1      -3.496 -11.469  16.131  0.00  0.00    -0.056 NA
ATOM     16  C   UNL     1      -3.789 -13.384  15.077  0.00  0.00    +0.245 A 
ATOM     23  C   UNL     1      -4.564 -12.153  16.549  0.00  0.00    +0.202 A 
ENDROOT
BRANCH  23  24
ATOM      2  O   UNL     1     -12.383  -7.226  15.988  0.00  0.00    -0.276 OA
ATOM      4  N   UNL     1      -8.645 -10.007  17.959  0.00  0.00    -0.312 N 
ATOM      5  N   UNL     1     -11.158  -8.791  17.191  0.00  0.00    -0.299 N 
ATOM     10  N   UNL     1      -7.122 -10.739  19.608  0.00  0.00    -0.240 NA
ATOM     17  C   UNL     1      -8.767  -9.234  16.719  0.00  0.00    +0.125 C 
ATOM     18  C   UNL     1      -9.810 -10.084  18.843  0.00  0.00    +0.125 C 
ATOM     20  C   UNL     1      -9.874  -8.189  16.842  0.00  0.00    +0.126 C 
ATOM     21  C   UNL     1     -11.108  -9.983  18.042  0.00  0.00    +0.126 C 
ATOM     22  C   UNL     1      -7.440 -10.617  18.300  0.00  0.00    +0.122 A 
ATOM     24  C   UNL     1      -5.432 -11.672  17.587  0.00  0.00    +0.027 A 
ATOM     25  C   UNL     1      -6.639 -11.062  17.262  0.00  0.00    +0.055 A 
ATOM     26  C   UNL     1     -12.338  -8.229  16.704  0.00  0.00    +0.213 C 
ATOM     27  C   UNL     1      -5.070 -11.816  18.921  0.00  0.00    +0.031 A 
ATOM     30  C   UNL     1      -5.942 -11.337  19.885  0.00  0.00    +0.113 A 
ATOM     31  C   UNL     1     -13.620  -8.917  17.105  0.00  0.00    +0.109 C 
ENDBRANCH  23  24
BRANCH  16  11
ATOM      3  N   UNL     1      -2.565 -13.937  12.983  0.00  0.00    -0.284 NA
ATOM     11  C   UNL     1      -3.431 -14.450  14.063  0.00  0.00    +0.146 C 
ATOM     12  C   UNL     1      -2.637 -15.615  14.681  0.00  0.00    +0.030 C 
ATOM     13  C   UNL     1      -1.370 -15.721  13.845  0.00  0.00    +0.017 C 
ATOM     14  C   UNL     1      -1.752 -15.067  12.533  0.00  0.00    +0.085 C 
BRANCH   3  15
ATOM     15  C   UNL     1      -3.311 -13.327  11.889  0.00  0.00    +0.159 C 
BRANCH  15  19
ATOM      7  N   UNL     1      -1.899 -11.320  12.392  0.00  0.00    -0.347 N 
ATOM      9  N   UNL     1      -3.351 -11.087  10.728  0.00  0.00    -0.239 NA
ATOM     19  C   UNL     1      -2.878 -11.906  11.640  0.00  0.00    +0.121 A 
ATOM     28  C   UNL     1      -1.736 -10.044  11.928  0.00  0.00    +0.104 A 
ATOM     29  C   UNL     1      -2.642  -9.924  10.902  0.00  0.00    +0.130 A 
ATOM     32  H   UNL     1      -1.385 -11.748  13.150  0.00  0.00    +0.167 HD
ENDBRANCH  15  19
ENDBRANCH   3  15
ENDBRANCH  16  11
TORSDOF 4
ENDMDL
