MODEL 1
REMARK VINA RESULT:      -6.3      0.000      0.000
REMARK  Name = 75536575
REMARK  9 active torsions:
REMARK  status: ('A' for Active; 'I' for Inactive)
REMARK    1  A    between atoms: O_2  and  C_11
REMARK    2  A    between atoms: O_5  and  C_22
REMARK    3  A    between atoms: O_5  and  C_23
REMARK    4  A    between atoms: N_6  and  C_9
REMARK    5  A    between atoms: N_6  and  C_10
REMARK    6  A    between atoms: N_8  and  C_18
REMARK    7  A    between atoms: C_12  and  C_18
REMARK    8  A    between atoms: C_19  and  C_20
REMARK    9  A    between atoms: C_21  and  C_22
REMARK                            x       y       z     vdW  Elec       q    Type
REMARK                         _______ _______ _______ _____ _____    ______ ____
ROOT
ATOM      1  O   UNL     1      10.630   8.654  20.022  0.00  0.00    -0.371 OA
ATOM      9  C   UNL     1      12.418   7.225  19.390  0.00  0.00    +0.111 C 
ATOM     11  C   UNL     1      12.209   7.124  20.890  0.00  0.00    +0.164 C 
ATOM     12  C   UNL     1      10.781   7.635  21.023  0.00  0.00    +0.165 C 
ATOM     15  C   UNL     1      11.706   8.529  19.074  0.00  0.00    +0.181 C 
ENDROOT
BRANCH  11   2
ATOM      2  O   UNL     1      12.344   5.801  21.372  0.00  0.00    -0.388 OA
ATOM     25  H   UNL     1      11.603   5.617  21.973  0.00  0.00    +0.210 HD
ENDBRANCH  11   2
BRANCH   9   6
ATOM      6  N   UNL     1      13.817   7.234  18.994  0.00  0.00    -0.306 NA
ATOM     24  H   UNL     1      13.980   7.961  18.298  0.00  0.00    +0.123 HD
BRANCH   6  10
ATOM      3  O   UNL     1      19.105   9.436  21.227  0.00  0.00    -0.276 OA
ATOM      7  N   UNL     1      17.300   7.974  21.269  0.00  0.00    -0.302 N 
ATOM     10  C   UNL     1      14.683   7.448  20.151  0.00  0.00    +0.057 C 
ATOM     13  C   UNL     1      15.765   6.362  20.206  0.00  0.00    +0.037 C 
ATOM     14  C   UNL     1      15.322   8.841  20.079  0.00  0.00    +0.037 C 
ATOM     16  C   UNL     1      16.741   6.620  21.354  0.00  0.00    +0.109 C 
ATOM     17  C   UNL     1      16.306   9.048  21.230  0.00  0.00    +0.109 C 
ATOM     19  C   UNL     1      18.660   8.287  21.263  0.00  0.00    +0.212 C 
ATOM     20  C   UNL     1      19.620   7.126  21.302  0.00  0.00    +0.109 C 
ENDBRANCH   6  10
ENDBRANCH   9   6
BRANCH  12  18
ATOM     18  C   UNL     1      10.475   8.210  22.393  0.00  0.00    +0.138 C 
BRANCH  18   8
ATOM      4  O   UNL     1      12.591  10.158  22.703  0.00  0.00    -0.273 OA
ATOM      8  N   UNL     1      10.351   9.639  22.343  0.00  0.00    -0.311 N 
ATOM     21  C   UNL     1      11.429  10.504  22.503  0.00  0.00    +0.239 C 
ATOM     26  H   UNL     1       9.425  10.029  22.193  0.00  0.00    +0.149 HD
BRANCH  21  22
ATOM     22  C   UNL     1      11.013  11.956  22.404  0.00  0.00    +0.255 C 
BRANCH  22   5
ATOM      5  O   UNL     1      10.604  12.444  23.663  0.00  0.00    -0.374 OA
ATOM     23  C   UNL     1      10.212  13.813  23.600  0.00  0.00    +0.194 C 
ENDBRANCH  22   5
ENDBRANCH  21  22
ENDBRANCH  18   8
ENDBRANCH  12  18
TORSDOF 7
ENDMDL
MODEL 2
REMARK VINA RESULT:      -6.1      3.155      4.307
REMARK  Name = 75536575
REMARK  9 active torsions:
REMARK  status: ('A' for Active; 'I' for Inactive)
REMARK    1  A    between atoms: O_2  and  C_11
REMARK    2  A    between atoms: O_5  and  C_22
REMARK    3  A    between atoms: O_5  and  C_23
REMARK    4  A    between atoms: N_6  and  C_9
REMARK    5  A    between atoms: N_6  and  C_10
REMARK    6  A    between atoms: N_8  and  C_18
REMARK    7  A    between atoms: C_12  and  C_18
REMARK    8  A    between atoms: C_19  and  C_20
REMARK    9  A    between atoms: C_21  and  C_22
REMARK                            x       y       z     vdW  Elec       q    Type
REMARK                         _______ _______ _______ _____ _____    ______ ____
ROOT
ATOM      1  O   UNL     1      10.552   8.448  19.779  0.00  0.00    -0.371 OA
ATOM      9  C   UNL     1      12.506   7.413  18.915  0.00  0.00    +0.111 C 
ATOM     11  C   UNL     1      12.599   7.459  20.429  0.00  0.00    +0.164 C 
ATOM     12  C   UNL     1      11.134   7.631  20.807  0.00  0.00    +0.165 C 
ATOM     15  C   UNL     1      11.438   8.459  18.646  0.00  0.00    +0.181 C 
ENDROOT
BRANCH  11   2
ATOM      2  O   UNL     1      13.152   6.279  20.978  0.00  0.00    -0.388 OA
ATOM     25  H   UNL     1      12.423   5.712  21.280  0.00  0.00    +0.210 HD
ENDBRANCH  11   2
BRANCH   9   6
ATOM      6  N   UNL     1      13.763   7.701  18.243  0.00  0.00    -0.306 NA
ATOM     24  H   UNL     1      13.956   6.991  17.538  0.00  0.00    +0.123 HD
BRANCH   6  10
ATOM      3  O   UNL     1      16.308  11.708  14.334  0.00  0.00    -0.276 OA
ATOM      7  N   UNL     1      15.059  11.178  16.221  0.00  0.00    -0.302 N 
ATOM     10  C   UNL     1      13.729   9.024  17.623  0.00  0.00    +0.057 C 
ATOM     13  C   UNL     1      14.704   9.966  18.340  0.00  0.00    +0.037 C 
ATOM     14  C   UNL     1      14.082   8.916  16.134  0.00  0.00    +0.037 C 
ATOM     16  C   UNL     1      14.756  11.329  17.649  0.00  0.00    +0.109 C 
ATOM     17  C   UNL     1      14.145  10.300  15.488  0.00  0.00    +0.109 C 
ATOM     19  C   UNL     1      16.095  11.823  15.544  0.00  0.00    +0.212 C 
ATOM     20  C   UNL     1      16.993  12.708  16.368  0.00  0.00    +0.109 C 
ENDBRANCH   6  10
ENDBRANCH   9   6
BRANCH  12  18
ATOM     18  C   UNL     1      10.938   8.289  22.161  0.00  0.00    +0.138 C 
BRANCH  18   8
ATOM      4  O   UNL     1      11.463  11.116  21.840  0.00  0.00    -0.273 OA
ATOM      8  N   UNL     1      12.114   9.003  22.569  0.00  0.00    -0.311 N 
ATOM     21  C   UNL     1      12.282  10.371  22.374  0.00  0.00    +0.239 C 
ATOM     26  H   UNL     1      12.859   8.474  23.013  0.00  0.00    +0.149 HD
BRANCH  21  22
ATOM     22  C   UNL     1      13.613  10.860  22.901  0.00  0.00    +0.255 C 
BRANCH  22   5
ATOM      5  O   UNL     1      14.585   9.839  22.828  0.00  0.00    -0.374 OA
ATOM     23  C   UNL     1      15.679  10.207  21.991  0.00  0.00    +0.194 C 
ENDBRANCH  22   5
ENDBRANCH  21  22
ENDBRANCH  18   8
ENDBRANCH  12  18
TORSDOF 7
ENDMDL
MODEL 3
REMARK VINA RESULT:      -6.1      2.888      5.036
REMARK  Name = 75536575
REMARK  9 active torsions:
REMARK  status: ('A' for Active; 'I' for Inactive)
REMARK    1  A    between atoms: O_2  and  C_11
REMARK    2  A    between atoms: O_5  and  C_22
REMARK    3  A    between atoms: O_5  and  C_23
REMARK    4  A    between atoms: N_6  and  C_9
REMARK    5  A    between atoms: N_6  and  C_10
REMARK    6  A    between atoms: N_8  and  C_18
REMARK    7  A    between atoms: C_12  and  C_18
REMARK    8  A    between atoms: C_19  and  C_20
REMARK    9  A    between atoms: C_21  and  C_22
REMARK                            x       y       z     vdW  Elec       q    Type
REMARK                         _______ _______ _______ _____ _____    ______ ____
ROOT
ATOM      1  O   UNL     1      15.097   8.622  20.140  0.00  0.00    -0.371 OA
ATOM      9  C   UNL     1      17.039   7.322  20.559  0.00  0.00    +0.111 C 
ATOM     11  C   UNL     1      16.045   6.488  19.772  0.00  0.00    +0.164 C 
ATOM     12  C   UNL     1      15.170   7.574  19.161  0.00  0.00    +0.165 C 
ATOM     15  C   UNL     1      16.144   8.421  21.106  0.00  0.00    +0.181 C 
ENDROOT
BRANCH  11   2
ATOM      2  O   UNL     1      16.666   5.690  18.783  0.00  0.00    -0.388 OA
ATOM     25  H   UNL     1      16.356   5.988  17.911  0.00  0.00    +0.210 HD
ENDBRANCH  11   2
BRANCH   9   6
ATOM      6  N   UNL     1      17.727   6.581  21.603  0.00  0.00    -0.306 NA
ATOM     24  H   UNL     1      17.475   5.594  21.558  0.00  0.00    +0.123 HD
BRANCH   6  10
ATOM      3  O   UNL     1      23.254   3.902  21.318  0.00  0.00    -0.276 OA
ATOM      7  N   UNL     1      21.850   5.682  21.826  0.00  0.00    -0.302 N 
ATOM     10  C   UNL     1      19.175   6.731  21.480  0.00  0.00    +0.057 C 
ATOM     13  C   UNL     1      19.832   6.650  22.863  0.00  0.00    +0.037 C 
ATOM     14  C   UNL     1      19.739   5.647  20.552  0.00  0.00    +0.037 C 
ATOM     16  C   UNL     1      21.356   6.710  22.750  0.00  0.00    +0.109 C 
ATOM     17  C   UNL     1      21.264   5.728  20.486  0.00  0.00    +0.109 C 
ATOM     19  C   UNL     1      22.829   4.733  22.124  0.00  0.00    +0.212 C 
ATOM     20  C   UNL     1      23.380   4.748  23.526  0.00  0.00    +0.109 C 
ENDBRANCH   6  10
ENDBRANCH   9   6
BRANCH  12  18
ATOM     18  C   UNL     1      13.772   7.094  18.815  0.00  0.00    +0.138 C 
BRANCH  18   8
ATOM      4  O   UNL     1      11.100   7.907  19.566  0.00  0.00    -0.273 OA
ATOM      8  N   UNL     1      13.048   6.707  19.993  0.00  0.00    -0.311 N 
ATOM     21  C   UNL     1      11.759   7.149  20.274  0.00  0.00    +0.239 C 
ATOM     26  H   UNL     1      13.511   6.088  20.651  0.00  0.00    +0.149 HD
BRANCH  21  22
ATOM     22  C   UNL     1      11.237   6.586  21.578  0.00  0.00    +0.255 C 
BRANCH  22   5
ATOM      5  O   UNL     1      10.305   7.469  22.165  0.00  0.00    -0.374 OA
ATOM     23  C   UNL     1      10.940   8.615  22.727  0.00  0.00    +0.194 C 
ENDBRANCH  22   5
ENDBRANCH  21  22
ENDBRANCH  18   8
ENDBRANCH  12  18
TORSDOF 7
ENDMDL
MODEL 4
REMARK VINA RESULT:      -6.1      3.001      4.052
REMARK  Name = 75536575
REMARK  9 active torsions:
REMARK  status: ('A' for Active; 'I' for Inactive)
REMARK    1  A    between atoms: O_2  and  C_11
REMARK    2  A    between atoms: O_5  and  C_22
REMARK    3  A    between atoms: O_5  and  C_23
REMARK    4  A    between atoms: N_6  and  C_9
REMARK    5  A    between atoms: N_6  and  C_10
REMARK    6  A    between atoms: N_8  and  C_18
REMARK    7  A    between atoms: C_12  and  C_18
REMARK    8  A    between atoms: C_19  and  C_20
REMARK    9  A    between atoms: C_21  and  C_22
REMARK                            x       y       z     vdW  Elec       q    Type
REMARK                         _______ _______ _______ _____ _____    ______ ____
ROOT
ATOM      1  O   UNL     1      11.234   6.887  20.722  0.00  0.00    -0.371 OA
ATOM      9  C   UNL     1      13.590   7.138  20.551  0.00  0.00    +0.111 C 
ATOM     11  C   UNL     1      13.035   8.249  21.424  0.00  0.00    +0.164 C 
ATOM     12  C   UNL     1      11.699   7.652  21.845  0.00  0.00    +0.165 C 
ATOM     15  C   UNL     1      12.339   6.673  19.825  0.00  0.00    +0.181 C 
ENDROOT
BRANCH  11   2
ATOM      2  O   UNL     1      13.861   8.534  22.536  0.00  0.00    -0.388 OA
ATOM     25  H   UNL     1      14.236   7.697  22.860  0.00  0.00    +0.210 HD
ENDBRANCH  11   2
BRANCH   9   6
ATOM      6  N   UNL     1      14.640   7.575  19.646  0.00  0.00    -0.306 NA
ATOM     24  H   UNL     1      15.078   6.769  19.201  0.00  0.00    +0.123 HD
BRANCH   6  10
ATOM      3  O   UNL     1      15.264  10.147  14.097  0.00  0.00    -0.276 OA
ATOM      7  N   UNL     1      14.492  10.135  16.288  0.00  0.00    -0.302 N 
ATOM     10  C   UNL     1      14.107   8.478  18.629  0.00  0.00    +0.057 C 
ATOM     13  C   UNL     1      14.806   9.840  18.717  0.00  0.00    +0.037 C 
ATOM     14  C   UNL     1      14.292   7.867  17.234  0.00  0.00    +0.037 C 
ATOM     16  C   UNL     1      14.332  10.772  17.601  0.00  0.00    +0.109 C 
ATOM     17  C   UNL     1      13.828   8.838  16.149  0.00  0.00    +0.109 C 
ATOM     19  C   UNL     1      15.174  10.686  15.202  0.00  0.00    +0.212 C 
ATOM     20  C   UNL     1      15.833  12.022  15.426  0.00  0.00    +0.109 C 
ENDBRANCH   6  10
ENDBRANCH   9   6
BRANCH  12  18
ATOM     18  C   UNL     1      10.665   8.699  22.218  0.00  0.00    +0.138 C 
BRANCH  18   8
ATOM      4  O   UNL     1      11.022  11.570  22.229  0.00  0.00    -0.273 OA
ATOM      8  N   UNL     1      11.116   9.511  23.312  0.00  0.00    -0.311 N 
ATOM     21  C   UNL     1      11.259  10.893  23.228  0.00  0.00    +0.239 C 
ATOM     26  H   UNL     1      11.350   9.045  24.183  0.00  0.00    +0.149 HD
BRANCH  21  22
ATOM     22  C   UNL     1      11.749  11.494  24.527  0.00  0.00    +0.255 C 
BRANCH  22   5
ATOM      5  O   UNL     1      11.425  12.866  24.595  0.00  0.00    -0.374 OA
ATOM     23  C   UNL     1      12.576  13.672  24.834  0.00  0.00    +0.194 C 
ENDBRANCH  22   5
ENDBRANCH  21  22
ENDBRANCH  18   8
ENDBRANCH  12  18
TORSDOF 7
ENDMDL
MODEL 5
REMARK VINA RESULT:      -5.8      3.210      8.918
REMARK  Name = 75536575
REMARK  9 active torsions:
REMARK  status: ('A' for Active; 'I' for Inactive)
REMARK    1  A    between atoms: O_2  and  C_11
REMARK    2  A    between atoms: O_5  and  C_22
REMARK    3  A    between atoms: O_5  and  C_23
REMARK    4  A    between atoms: N_6  and  C_9
REMARK    5  A    between atoms: N_6  and  C_10
REMARK    6  A    between atoms: N_8  and  C_18
REMARK    7  A    between atoms: C_12  and  C_18
REMARK    8  A    between atoms: C_19  and  C_20
REMARK    9  A    between atoms: C_21  and  C_22
REMARK                            x       y       z     vdW  Elec       q    Type
REMARK                         _______ _______ _______ _____ _____    ______ ____
ROOT
ATOM      1  O   UNL     1      19.127   7.773  22.223  0.00  0.00    -0.371 OA
ATOM      9  C   UNL     1      17.381   7.114  20.755  0.00  0.00    +0.111 C 
ATOM     11  C   UNL     1      18.678   6.471  20.301  0.00  0.00    +0.164 C 
ATOM     12  C   UNL     1      19.505   6.547  21.577  0.00  0.00    +0.165 C 
ATOM     15  C   UNL     1      17.895   8.235  21.642  0.00  0.00    +0.181 C 
ENDROOT
BRANCH  11   2
ATOM      2  O   UNL     1      18.502   5.137  19.863  0.00  0.00    -0.388 OA
ATOM     25  H   UNL     1      18.310   4.584  20.639  0.00  0.00    +0.210 HD
ENDBRANCH  11   2
BRANCH   9   6
ATOM      6  N   UNL     1      16.552   7.593  19.661  0.00  0.00    -0.306 NA
ATOM     24  H   UNL     1      16.965   7.331  18.766  0.00  0.00    +0.123 HD
BRANCH   6  10
ATOM      3  O   UNL     1      10.497   8.564  19.216  0.00  0.00    -0.276 OA
ATOM      7  N   UNL     1      12.349   7.459  20.079  0.00  0.00    -0.302 N 
ATOM     10  C   UNL     1      15.198   7.055  19.761  0.00  0.00    +0.057 C 
ATOM     13  C   UNL     1      14.585   7.419  21.119  0.00  0.00    +0.037 C 
ATOM     14  C   UNL     1      14.330   7.598  18.618  0.00  0.00    +0.037 C 
ATOM     16  C   UNL     1      13.133   6.948  21.210  0.00  0.00    +0.109 C 
ATOM     17  C   UNL     1      12.884   7.122  18.759  0.00  0.00    +0.109 C 
ATOM     19  C   UNL     1      11.158   8.177  20.183  0.00  0.00    +0.212 C 
ATOM     20  C   UNL     1      10.674   8.486  21.577  0.00  0.00    +0.109 C 
ENDBRANCH   6  10
ENDBRANCH   9   6
BRANCH  12  18
ATOM     18  C   UNL     1      21.002   6.540  21.323  0.00  0.00    +0.138 C 
BRANCH  18   8
ATOM      4  O   UNL     1      21.105   3.719  20.689  0.00  0.00    -0.273 OA
ATOM      8  N   UNL     1      21.654   5.506  22.076  0.00  0.00    -0.311 N 
ATOM     21  C   UNL     1      21.652   4.168  21.694  0.00  0.00    +0.239 C 
ATOM     26  H   UNL     1      22.128   5.773  22.933  0.00  0.00    +0.149 HD
BRANCH  21  22
ATOM     22  C   UNL     1      22.415   3.298  22.669  0.00  0.00    +0.255 C 
BRANCH  22   5
ATOM      5  O   UNL     1      22.284   3.791  23.985  0.00  0.00    -0.374 OA
ATOM     23  C   UNL     1      23.200   3.165  24.880  0.00  0.00    +0.194 C 
ENDBRANCH  22   5
ENDBRANCH  21  22
ENDBRANCH  18   8
ENDBRANCH  12  18
TORSDOF 7
ENDMDL
MODEL 6
REMARK VINA RESULT:      -5.8      2.290      7.140
REMARK  Name = 75536575
REMARK  9 active torsions:
REMARK  status: ('A' for Active; 'I' for Inactive)
REMARK    1  A    between atoms: O_2  and  C_11
REMARK    2  A    between atoms: O_5  and  C_22
REMARK    3  A    between atoms: O_5  and  C_23
REMARK    4  A    between atoms: N_6  and  C_9
REMARK    5  A    between atoms: N_6  and  C_10
REMARK    6  A    between atoms: N_8  and  C_18
REMARK    7  A    between atoms: C_12  and  C_18
REMARK    8  A    between atoms: C_19  and  C_20
REMARK    9  A    between atoms: C_21  and  C_22
REMARK                            x       y       z     vdW  Elec       q    Type
REMARK                         _______ _______ _______ _____ _____    ______ ____
ROOT
ATOM      1  O   UNL     1      11.944   7.886  19.625  0.00  0.00    -0.371 OA
ATOM      9  C   UNL     1      11.676   9.192  21.590  0.00  0.00    +0.111 C 
ATOM     11  C   UNL     1      12.912   8.324  21.737  0.00  0.00    +0.164 C 
ATOM     12  C   UNL     1      13.217   7.998  20.281  0.00  0.00    +0.165 C 
ATOM     15  C   UNL     1      10.941   8.481  20.467  0.00  0.00    +0.181 C 
ENDROOT
BRANCH  11   2
ATOM      2  O   UNL     1      13.984   9.002  22.363  0.00  0.00    -0.388 OA
ATOM     25  H   UNL     1      14.317   9.678  21.750  0.00  0.00    +0.210 HD
ENDBRANCH  11   2
BRANCH   9   6
ATOM      6  N   UNL     1      10.887   9.296  22.806  0.00  0.00    -0.306 NA
ATOM     24  H   UNL     1      11.369   8.838  23.579  0.00  0.00    +0.123 HD
BRANCH   6  10
ATOM      3  O   UNL     1      13.021  15.046  23.234  0.00  0.00    -0.276 OA
ATOM      7  N   UNL     1      11.593  13.326  23.864  0.00  0.00    -0.302 N 
ATOM     10  C   UNL     1      10.628  10.695  23.139  0.00  0.00    +0.057 C 
ATOM     13  C   UNL     1      11.137  11.002  24.553  0.00  0.00    +0.037 C 
ATOM     14  C   UNL     1      11.305  11.614  22.113  0.00  0.00    +0.037 C 
ATOM     16  C   UNL     1      10.964  12.484  24.888  0.00  0.00    +0.109 C 
ATOM     17  C   UNL     1      11.127  13.082  22.497  0.00  0.00    +0.109 C 
ATOM     19  C   UNL     1      12.534  14.326  24.108  0.00  0.00    +0.212 C 
ATOM     20  C   UNL     1      12.964  14.514  25.541  0.00  0.00    +0.109 C 
ENDBRANCH   6  10
ENDBRANCH   9   6
BRANCH  12  18
ATOM     18  C   UNL     1      14.001   6.710  20.107  0.00  0.00    +0.138 C 
BRANCH  18   8
ATOM      4  O   UNL     1      16.416   5.814  18.789  0.00  0.00    -0.273 OA
ATOM      8  N   UNL     1      15.349   6.851  20.579  0.00  0.00    -0.311 N 
ATOM     21  C   UNL     1      16.456   6.388  19.875  0.00  0.00    +0.239 C 
ATOM     26  H   UNL     1      15.491   7.305  21.477  0.00  0.00    +0.149 HD
BRANCH  21  22
ATOM     22  C   UNL     1      17.752   6.671  20.604  0.00  0.00    +0.255 C 
BRANCH  22   5
ATOM      5  O   UNL     1      18.824   5.977  20.002  0.00  0.00    -0.374 OA
ATOM     23  C   UNL     1      19.992   5.992  20.819  0.00  0.00    +0.194 C 
ENDBRANCH  22   5
ENDBRANCH  21  22
ENDBRANCH  18   8
ENDBRANCH  12  18
TORSDOF 7
ENDMDL
MODEL 7
REMARK VINA RESULT:      -5.8     27.957     29.564
REMARK  Name = 75536575
REMARK  9 active torsions:
REMARK  status: ('A' for Active; 'I' for Inactive)
REMARK    1  A    between atoms: O_2  and  C_11
REMARK    2  A    between atoms: O_5  and  C_22
REMARK    3  A    between atoms: O_5  and  C_23
REMARK    4  A    between atoms: N_6  and  C_9
REMARK    5  A    between atoms: N_6  and  C_10
REMARK    6  A    between atoms: N_8  and  C_18
REMARK    7  A    between atoms: C_12  and  C_18
REMARK    8  A    between atoms: C_19  and  C_20
REMARK    9  A    between atoms: C_21  and  C_22
REMARK                            x       y       z     vdW  Elec       q    Type
REMARK                         _______ _______ _______ _____ _____    ______ ____
ROOT
ATOM      1  O   UNL     1     -12.202  -7.805  14.028  0.00  0.00    -0.371 OA
ATOM      9  C   UNL     1     -10.389  -8.083  15.536  0.00  0.00    +0.111 C 
ATOM     11  C   UNL     1     -10.835  -6.632  15.560  0.00  0.00    +0.164 C 
ATOM     12  C   UNL     1     -12.247  -6.750  15.002  0.00  0.00    +0.165 C 
ATOM     15  C   UNL     1     -10.996  -8.563  14.229  0.00  0.00    +0.181 C 
ENDROOT
BRANCH  11   2
ATOM      2  O   UNL     1     -10.825  -6.079  16.861  0.00  0.00    -0.388 OA
ATOM     25  H   UNL     1     -11.242  -5.202  16.824  0.00  0.00    +0.210 HD
ENDBRANCH  11   2
BRANCH   9   6
ATOM      6  N   UNL     1      -8.946  -8.252  15.586  0.00  0.00    -0.306 NA
ATOM     24  H   UNL     1      -8.517  -7.468  16.077  0.00  0.00    +0.123 HD
BRANCH   6  10
ATOM      3  O   UNL     1      -6.422 -11.082  20.426  0.00  0.00    -0.276 OA
ATOM      7  N   UNL     1      -7.020 -10.972  18.183  0.00  0.00    -0.302 N 
ATOM     10  C   UNL     1      -8.593  -9.507  16.245  0.00  0.00    +0.057 C 
ATOM     13  C   UNL     1      -7.115  -9.833  15.997  0.00  0.00    +0.037 C 
ATOM     14  C   UNL     1      -8.876  -9.409  17.750  0.00  0.00    +0.037 C 
ATOM     16  C   UNL     1      -6.697 -11.093  16.757  0.00  0.00    +0.109 C 
ATOM     17  C   UNL     1      -8.424 -10.677  18.472  0.00  0.00    +0.109 C 
ATOM     19  C   UNL     1      -6.118 -11.153  19.232  0.00  0.00    +0.212 C 
ATOM     20  C   UNL     1      -4.690 -11.451  18.852  0.00  0.00    +0.109 C 
ENDBRANCH   6  10
ENDBRANCH   9   6
BRANCH  12  18
ATOM     18  C   UNL     1     -12.744  -5.471  14.353  0.00  0.00    +0.138 C 
BRANCH  18   8
ATOM      4  O   UNL     1     -12.317  -3.178  12.642  0.00  0.00    -0.273 OA
ATOM      8  N   UNL     1     -12.509  -5.479  12.937  0.00  0.00    -0.311 N 
ATOM     21  C   UNL     1     -12.313  -4.321  12.191  0.00  0.00    +0.239 C 
ATOM     26  H   UNL     1     -12.498  -6.378  12.464  0.00  0.00    +0.149 HD
BRANCH  21  22
ATOM     22  C   UNL     1     -12.088  -4.622  10.725  0.00  0.00    +0.255 C 
BRANCH  22   5
ATOM      5  O   UNL     1     -11.451  -3.537  10.086  0.00  0.00    -0.374 OA
ATOM     23  C   UNL     1     -10.540  -3.973   9.080  0.00  0.00    +0.194 C 
ENDBRANCH  22   5
ENDBRANCH  21  22
ENDBRANCH  18   8
ENDBRANCH  12  18
TORSDOF 7
ENDMDL
MODEL 8
REMARK VINA RESULT:      -5.7      2.966      6.661
REMARK  Name = 75536575
REMARK  9 active torsions:
REMARK  status: ('A' for Active; 'I' for Inactive)
REMARK    1  A    between atoms: O_2  and  C_11
REMARK    2  A    between atoms: O_5  and  C_22
REMARK    3  A    between atoms: O_5  and  C_23
REMARK    4  A    between atoms: N_6  and  C_9
REMARK    5  A    between atoms: N_6  and  C_10
REMARK    6  A    between atoms: N_8  and  C_18
REMARK    7  A    between atoms: C_12  and  C_18
REMARK    8  A    between atoms: C_19  and  C_20
REMARK    9  A    between atoms: C_21  and  C_22
REMARK                            x       y       z     vdW  Elec       q    Type
REMARK                         _______ _______ _______ _____ _____    ______ ____
ROOT
ATOM      1  O   UNL     1      13.568   6.856  20.692  0.00  0.00    -0.371 OA
ATOM      9  C   UNL     1      11.376   7.765  20.600  0.00  0.00    +0.111 C 
ATOM     11  C   UNL     1      12.109   8.108  19.316  0.00  0.00    +0.164 C 
ATOM     12  C   UNL     1      13.209   7.055  19.316  0.00  0.00    +0.165 C 
ATOM     15  C   UNL     1      12.532   7.412  21.521  0.00  0.00    +0.181 C 
ENDROOT
BRANCH  11   2
ATOM      2  O   UNL     1      11.282   8.009  18.173  0.00  0.00    -0.388 OA
ATOM     25  H   UNL     1      10.369   7.857  18.469  0.00  0.00    +0.210 HD
ENDBRANCH  11   2
BRANCH   9   6
ATOM      6  N   UNL     1      10.556   8.850  21.113  0.00  0.00    -0.306 NA
ATOM     24  H   UNL     1       9.745   8.476  21.604  0.00  0.00    +0.123 HD
BRANCH   6  10
ATOM      3  O   UNL     1      10.628  13.552  25.074  0.00  0.00    -0.276 OA
ATOM      7  N   UNL     1      11.625  12.177  23.489  0.00  0.00    -0.302 N 
ATOM     10  C   UNL     1      11.329   9.708  22.007  0.00  0.00    +0.057 C 
ATOM     13  C   UNL     1      11.669  11.029  21.306  0.00  0.00    +0.037 C 
ATOM     14  C   UNL     1      10.539   9.972  23.296  0.00  0.00    +0.037 C 
ATOM     16  C   UNL     1      12.396  11.982  22.255  0.00  0.00    +0.109 C 
ATOM     17  C   UNL     1      11.290  10.945  24.204  0.00  0.00    +0.109 C 
ATOM     19  C   UNL     1      11.245  13.412  24.016  0.00  0.00    +0.212 C 
ATOM     20  C   UNL     1      11.625  14.633  23.218  0.00  0.00    +0.109 C 
ENDBRANCH   6  10
ENDBRANCH   9   6
BRANCH  12  18
ATOM     18  C   UNL     1      14.433   7.467  18.519  0.00  0.00    +0.138 C 
BRANCH  18   8
ATOM      4  O   UNL     1      13.571   8.080  15.826  0.00  0.00    -0.273 OA
ATOM      8  N   UNL     1      14.264   8.769  17.939  0.00  0.00    -0.311 N 
ATOM     21  C   UNL     1      13.843   8.971  16.628  0.00  0.00    +0.239 C 
ATOM     26  H   UNL     1      14.474   9.576  18.518  0.00  0.00    +0.149 HD
BRANCH  21  22
ATOM     22  C   UNL     1      13.750  10.441  16.280  0.00  0.00    +0.255 C 
BRANCH  22   5
ATOM      5  O   UNL     1      13.784  10.625  14.882  0.00  0.00    -0.374 OA
ATOM     23  C   UNL     1      13.971  11.994  14.531  0.00  0.00    +0.194 C 
ENDBRANCH  22   5
ENDBRANCH  21  22
ENDBRANCH  18   8
ENDBRANCH  12  18
TORSDOF 7
ENDMDL
MODEL 9
REMARK VINA RESULT:      -5.7      3.393      6.569
REMARK  Name = 75536575
REMARK  9 active torsions:
REMARK  status: ('A' for Active; 'I' for Inactive)
REMARK    1  A    between atoms: O_2  and  C_11
REMARK    2  A    between atoms: O_5  and  C_22
REMARK    3  A    between atoms: O_5  and  C_23
REMARK    4  A    between atoms: N_6  and  C_9
REMARK    5  A    between atoms: N_6  and  C_10
REMARK    6  A    between atoms: N_8  and  C_18
REMARK    7  A    between atoms: C_12  and  C_18
REMARK    8  A    between atoms: C_19  and  C_20
REMARK    9  A    between atoms: C_21  and  C_22
REMARK                            x       y       z     vdW  Elec       q    Type
REMARK                         _______ _______ _______ _____ _____    ______ ____
ROOT
ATOM      1  O   UNL     1      13.264   8.641  21.948  0.00  0.00    -0.371 OA
ATOM      9  C   UNL     1      11.563  10.220  22.451  0.00  0.00    +0.111 C 
ATOM     11  C   UNL     1      10.930   8.994  21.819  0.00  0.00    +0.164 C 
ATOM     12  C   UNL     1      12.010   7.949  22.059  0.00  0.00    +0.165 C 
ATOM     15  C   UNL     1      13.015  10.056  22.037  0.00  0.00    +0.181 C 
ENDROOT
BRANCH  11   2
ATOM      2  O   UNL     1       9.704   8.638  22.428  0.00  0.00    -0.388 OA
ATOM     25  H   UNL     1       9.630   7.668  22.422  0.00  0.00    +0.210 HD
ENDBRANCH  11   2
BRANCH   9   6
ATOM      6  N   UNL     1      10.985  11.475  21.999  0.00  0.00    -0.306 NA
ATOM     24  H   UNL     1      10.022  11.330  21.695  0.00  0.00    +0.123 HD
BRANCH   6  10
ATOM      3  O   UNL     1      14.366  15.179  25.556  0.00  0.00    -0.276 OA
ATOM      7  N   UNL     1      12.480  13.892  25.125  0.00  0.00    -0.302 N 
ATOM     10  C   UNL     1      11.027  12.478  23.059  0.00  0.00    +0.057 C 
ATOM     13  C   UNL     1      11.368  11.814  24.399  0.00  0.00    +0.037 C 
ATOM     14  C   UNL     1      12.060  13.561  22.719  0.00  0.00    +0.037 C 
ATOM     16  C   UNL     1      11.512  12.857  25.508  0.00  0.00    +0.109 C 
ATOM     17  C   UNL     1      12.188  14.569  23.860  0.00  0.00    +0.109 C 
ATOM     19  C   UNL     1      13.587  14.280  25.881  0.00  0.00    +0.212 C 
ATOM     20  C   UNL     1      13.820  13.534  27.169  0.00  0.00    +0.109 C 
ENDBRANCH   6  10
ENDBRANCH   9   6
BRANCH  12  18
ATOM     18  C   UNL     1      11.966   6.802  21.066  0.00  0.00    +0.138 C 
BRANCH  18   8
ATOM      4  O   UNL     1      14.135   6.970  19.160  0.00  0.00    -0.273 OA
ATOM      8  N   UNL     1      11.897   7.283  19.716  0.00  0.00    -0.311 N 
ATOM     21  C   UNL     1      12.997   7.328  18.865  0.00  0.00    +0.239 C 
ATOM     26  H   UNL     1      10.998   7.614  19.377  0.00  0.00    +0.149 HD
BRANCH  21  22
ATOM     22  C   UNL     1      12.639   7.878  17.502  0.00  0.00    +0.255 C 
BRANCH  22   5
ATOM      5  O   UNL     1      11.309   7.545  17.164  0.00  0.00    -0.374 OA
ATOM     23  C   UNL     1      10.642   8.623  16.511  0.00  0.00    +0.194 C 
ENDBRANCH  22   5
ENDBRANCH  21  22
ENDBRANCH  18   8
ENDBRANCH  12  18
TORSDOF 7
ENDMDL
MODEL 10
REMARK VINA RESULT:      -5.7     26.092     28.432
REMARK  Name = 75536575
REMARK  9 active torsions:
REMARK  status: ('A' for Active; 'I' for Inactive)
REMARK    1  A    between atoms: O_2  and  C_11
REMARK    2  A    between atoms: O_5  and  C_22
REMARK    3  A    between atoms: O_5  and  C_23
REMARK    4  A    between atoms: N_6  and  C_9
REMARK    5  A    between atoms: N_6  and  C_10
REMARK    6  A    between atoms: N_8  and  C_18
REMARK    7  A    between atoms: C_12  and  C_18
REMARK    8  A    between atoms: C_19  and  C_20
REMARK    9  A    between atoms: C_21  and  C_22
REMARK                            x       y       z     vdW  Elec       q    Type
REMARK                         _______ _______ _______ _____ _____    ______ ____
ROOT
ATOM      1  O   UNL     1      -1.607 -11.228  14.924  0.00  0.00    -0.371 OA
ATOM      9  C   UNL     1      -3.860 -10.873  15.585  0.00  0.00    +0.111 C 
ATOM     11  C   UNL     1      -3.783 -10.872  14.069  0.00  0.00    +0.164 C 
ATOM     12  C   UNL     1      -2.471 -11.611  13.842  0.00  0.00    +0.165 C 
ATOM     15  C   UNL     1      -2.408 -10.634  15.961  0.00  0.00    +0.181 C 
ENDROOT
BRANCH  11   2
ATOM      2  O   UNL     1      -4.876 -11.537  13.466  0.00  0.00    -0.388 OA
ATOM     25  H   UNL     1      -5.695 -11.213  13.877  0.00  0.00    +0.210 HD
ENDBRANCH  11   2
BRANCH   9   6
ATOM      6  N   UNL     1      -4.758  -9.865  16.124  0.00  0.00    -0.306 NA
ATOM     24  H   UNL     1      -4.837  -9.082  15.477  0.00  0.00    +0.123 HD
BRANCH   6  10
ATOM      3  O   UNL     1      -9.315 -10.877  20.126  0.00  0.00    -0.276 OA
ATOM      7  N   UNL     1      -8.072 -11.416  18.238  0.00  0.00    -0.302 N 
ATOM     10  C   UNL     1      -6.079 -10.432  16.384  0.00  0.00    +0.057 C 
ATOM     13  C   UNL     1      -5.940 -11.802  17.059  0.00  0.00    +0.037 C 
ATOM     14  C   UNL     1      -6.896  -9.479  17.266  0.00  0.00    +0.037 C 
ATOM     16  C   UNL     1      -7.310 -12.373  17.427  0.00  0.00    +0.109 C 
ATOM     17  C   UNL     1      -8.247 -10.096  17.628  0.00  0.00    +0.109 C 
ATOM     19  C   UNL     1      -8.648 -11.688  19.479  0.00  0.00    +0.212 C 
ATOM     20  C   UNL     1      -8.421 -13.069  20.041  0.00  0.00    +0.109 C 
ENDBRANCH   6  10
ENDBRANCH   9   6
BRANCH  12  18
ATOM     18  C   UNL     1      -1.814 -11.274  12.515  0.00  0.00    +0.138 C 
BRANCH  18   8
ATOM      4  O   UNL     1      -1.539  -8.994  10.756  0.00  0.00    -0.273 OA
ATOM      8  N   UNL     1      -2.776 -10.793  11.565  0.00  0.00    -0.311 N 
ATOM     21  C   UNL     1      -2.558  -9.682  10.755  0.00  0.00    +0.239 C 
ATOM     26  H   UNL     1      -3.660 -11.288  11.494  0.00  0.00    +0.149 HD
BRANCH  21  22
ATOM     22  C   UNL     1      -3.735  -9.400   9.848  0.00  0.00    +0.255 C 
BRANCH  22   5
ATOM      5  O   UNL     1      -4.488  -8.309  10.333  0.00  0.00    -0.374 OA
ATOM     23  C   UNL     1      -5.583  -8.737  11.140  0.00  0.00    +0.194 C 
ENDBRANCH  22   5
ENDBRANCH  21  22
ENDBRANCH  18   8
ENDBRANCH  12  18
TORSDOF 7
ENDMDL
