MODEL 1
REMARK VINA RESULT:      -5.5      0.000      0.000
REMARK  Name = 75536946
REMARK  5 active torsions:
REMARK  status: ('A' for Active; 'I' for Inactive)
REMARK    1  A    between atoms: O_2  and  C_6
REMARK    2  A    between atoms: O_2  and  C_12
REMARK    3  A    between atoms: O_4  and  C_18
REMARK    4  A    between atoms: O_4  and  C_19
REMARK    5  A    between atoms: C_11  and  C_13
REMARK                            x       y       z     vdW  Elec       q    Type
REMARK                         _______ _______ _______ _____ _____    ______ ____
ROOT
ATOM      1  O   UNL     1      15.500   8.022  21.462  0.00  0.00    -0.375 OA
ATOM      3  O   UNL     1      11.947   7.764  17.684  0.00  0.00    -0.276 OA
ATOM      5  N   UNL     1      13.685   7.223  19.144  0.00  0.00    -0.296 N 
ATOM      6  C   UNL     1      13.076   8.406  21.244  0.00  0.00    +0.216 C 
ATOM      7  C   UNL     1      12.803   7.224  20.314  0.00  0.00    +0.154 C 
ATOM      8  C   UNL     1      15.115   6.936  19.330  0.00  0.00    +0.136 C 
ATOM      9  C   UNL     1      14.274   8.183  22.163  0.00  0.00    +0.206 C 
ATOM     10  C   UNL     1      15.601   6.785  20.765  0.00  0.00    +0.179 C 
ATOM     11  C   UNL     1      13.139   7.516  17.887  0.00  0.00    +0.213 C 
ATOM     13  C   UNL     1      14.104   7.528  16.724  0.00  0.00    +0.109 C 
ENDROOT
BRANCH   6   2
ATOM      2  O   UNL     1      11.916   8.607  22.050  0.00  0.00    -0.485 OA
BRANCH   2  12
ATOM     12  C   UNL     1      11.586   9.903  22.333  0.00  0.00    +0.121 A 
ATOM     14  C   UNL     1      11.730  10.888  21.358  0.00  0.00    +0.049 A 
ATOM     15  C   UNL     1      11.105  10.239  23.600  0.00  0.00    +0.049 A 
ATOM     16  C   UNL     1      11.393  12.211  21.647  0.00  0.00    +0.049 A 
ATOM     17  C   UNL     1      10.768  11.561  23.889  0.00  0.00    +0.049 A 
ATOM     18  C   UNL     1      10.912  12.547  22.912  0.00  0.00    +0.120 A 
BRANCH  18   4
ATOM      4  O   UNL     1      10.583  13.837  23.194  0.00  0.00    -0.495 OA
ATOM     19  C   UNL     1      10.273  14.146  24.552  0.00  0.00    +0.277 C 
ENDBRANCH  18   4
ENDBRANCH   2  12
ENDBRANCH   6   2
TORSDOF 3
ENDMDL
MODEL 2
REMARK VINA RESULT:      -5.5      2.984      6.847
REMARK  Name = 75536946
REMARK  5 active torsions:
REMARK  status: ('A' for Active; 'I' for Inactive)
REMARK    1  A    between atoms: O_2  and  C_6
REMARK    2  A    between atoms: O_2  and  C_12
REMARK    3  A    between atoms: O_4  and  C_18
REMARK    4  A    between atoms: O_4  and  C_19
REMARK    5  A    between atoms: C_11  and  C_13
REMARK                            x       y       z     vdW  Elec       q    Type
REMARK                         _______ _______ _______ _____ _____    ______ ____
ROOT
ATOM      1  O   UNL     1      10.499  11.542  24.737  0.00  0.00    -0.375 OA
ATOM      3  O   UNL     1      10.489  14.469  20.448  0.00  0.00    -0.276 OA
ATOM      5  N   UNL     1      10.611  13.789  22.677  0.00  0.00    -0.296 N 
ATOM      6  C   UNL     1      11.621  11.522  22.543  0.00  0.00    +0.216 C 
ATOM      7  C   UNL     1      11.845  13.031  22.456  0.00  0.00    +0.154 C 
ATOM      8  C   UNL     1      10.016  13.807  24.020  0.00  0.00    +0.136 C 
ATOM      9  C   UNL     1      11.573  11.003  23.978  0.00  0.00    +0.206 C 
ATOM     10  C   UNL     1      10.668  12.916  25.069  0.00  0.00    +0.179 C 
ATOM     11  C   UNL     1      10.026  14.457  21.591  0.00  0.00    +0.213 C 
ATOM     13  C   UNL     1       8.740  15.197  21.875  0.00  0.00    +0.109 C 
ENDROOT
BRANCH   6   2
ATOM      2  O   UNL     1      12.698  10.879  21.864  0.00  0.00    -0.485 OA
BRANCH   2  12
ATOM     12  C   UNL     1      12.371  10.147  20.756  0.00  0.00    +0.121 A 
ATOM     14  C   UNL     1      11.335   9.216  20.815  0.00  0.00    +0.049 A 
ATOM     15  C   UNL     1      13.076  10.332  19.565  0.00  0.00    +0.049 A 
ATOM     16  C   UNL     1      11.002   8.470  19.684  0.00  0.00    +0.049 A 
ATOM     17  C   UNL     1      12.742   9.587  18.434  0.00  0.00    +0.049 A 
ATOM     18  C   UNL     1      11.706   8.656  18.495  0.00  0.00    +0.120 A 
BRANCH  18   4
ATOM      4  O   UNL     1      11.380   7.928  17.391  0.00  0.00    -0.495 OA
ATOM     19  C   UNL     1      10.613   8.583  16.384  0.00  0.00    +0.277 C 
ENDBRANCH  18   4
ENDBRANCH   2  12
ENDBRANCH   6   2
TORSDOF 3
ENDMDL
MODEL 3
REMARK VINA RESULT:      -5.5      1.491      3.083
REMARK  Name = 75536946
REMARK  5 active torsions:
REMARK  status: ('A' for Active; 'I' for Inactive)
REMARK    1  A    between atoms: O_2  and  C_6
REMARK    2  A    between atoms: O_2  and  C_12
REMARK    3  A    between atoms: O_4  and  C_18
REMARK    4  A    between atoms: O_4  and  C_19
REMARK    5  A    between atoms: C_11  and  C_13
REMARK                            x       y       z     vdW  Elec       q    Type
REMARK                         _______ _______ _______ _____ _____    ______ ____
ROOT
ATOM      1  O   UNL     1      12.810   7.699  17.829  0.00  0.00    -0.375 OA
ATOM      3  O   UNL     1      15.769   8.722  21.972  0.00  0.00    -0.276 OA
ATOM      5  N   UNL     1      15.080   8.181  19.809  0.00  0.00    -0.296 N 
ATOM      6  C   UNL     1      12.983   9.483  19.519  0.00  0.00    +0.216 C 
ATOM      7  C   UNL     1      14.509   9.511  19.578  0.00  0.00    +0.154 C 
ATOM      8  C   UNL     1      14.993   7.173  18.743  0.00  0.00    +0.136 C 
ATOM      9  C   UNL     1      12.442   9.030  18.166  0.00  0.00    +0.206 C 
ATOM     10  C   UNL     1      14.189   7.554  17.507  0.00  0.00    +0.179 C 
ATOM     11  C   UNL     1      15.674   7.908  21.050  0.00  0.00    +0.213 C 
ATOM     13  C   UNL     1      16.218   6.511  21.238  0.00  0.00    +0.109 C 
ENDROOT
BRANCH   6   2
ATOM      2  O   UNL     1      12.510  10.805  19.777  0.00  0.00    -0.485 OA
BRANCH   2  12
ATOM     12  C   UNL     1      12.001  11.039  21.024  0.00  0.00    +0.121 A 
ATOM     14  C   UNL     1      12.037  12.324  21.563  0.00  0.00    +0.049 A 
ATOM     15  C   UNL     1      11.444   9.990  21.759  0.00  0.00    +0.049 A 
ATOM     16  C   UNL     1      11.518  12.563  22.836  0.00  0.00    +0.049 A 
ATOM     17  C   UNL     1      10.925  10.229  23.031  0.00  0.00    +0.049 A 
ATOM     18  C   UNL     1      10.962  11.515  23.569  0.00  0.00    +0.120 A 
BRANCH  18   4
ATOM      4  O   UNL     1      10.454  11.747  24.810  0.00  0.00    -0.495 OA
ATOM     19  C   UNL     1      10.637  13.054  25.352  0.00  0.00    +0.277 C 
ENDBRANCH  18   4
ENDBRANCH   2  12
ENDBRANCH   6   2
TORSDOF 3
ENDMDL
MODEL 4
REMARK VINA RESULT:      -5.5      2.763      6.446
REMARK  Name = 75536946
REMARK  5 active torsions:
REMARK  status: ('A' for Active; 'I' for Inactive)
REMARK    1  A    between atoms: O_2  and  C_6
REMARK    2  A    between atoms: O_2  and  C_12
REMARK    3  A    between atoms: O_4  and  C_18
REMARK    4  A    between atoms: O_4  and  C_19
REMARK    5  A    between atoms: C_11  and  C_13
REMARK                            x       y       z     vdW  Elec       q    Type
REMARK                         _______ _______ _______ _____ _____    ______ ____
ROOT
ATOM      1  O   UNL     1      10.626   7.719  20.534  0.00  0.00    -0.375 OA
ATOM      3  O   UNL     1      13.253  11.573  22.816  0.00  0.00    -0.276 OA
ATOM      5  N   UNL     1      12.032   9.616  22.465  0.00  0.00    -0.296 N 
ATOM      6  C   UNL     1      12.800   8.838  20.233  0.00  0.00    +0.216 C 
ATOM      7  C   UNL     1      13.122   8.981  21.720  0.00  0.00    +0.154 C 
ATOM      8  C   UNL     1      10.775   8.878  22.658  0.00  0.00    +0.136 C 
ATOM      9  C   UNL     1      11.907   7.639  19.924  0.00  0.00    +0.206 C 
ATOM     10  C   UNL     1      10.654   7.538  21.946  0.00  0.00    +0.179 C 
ATOM     11  C   UNL     1      12.217  10.917  22.954  0.00  0.00    +0.213 C 
ATOM     13  C   UNL     1      11.047  11.529  23.689  0.00  0.00    +0.109 C 
ENDROOT
BRANCH   6   2
ATOM      2  O   UNL     1      14.032   8.679  19.531  0.00  0.00    -0.485 OA
BRANCH   2  12
ATOM     12  C   UNL     1      14.081   9.183  18.262  0.00  0.00    +0.121 A 
ATOM     14  C   UNL     1      14.164  10.561  18.061  0.00  0.00    +0.049 A 
ATOM     15  C   UNL     1      14.049   8.319  17.166  0.00  0.00    +0.049 A 
ATOM     16  C   UNL     1      14.213  11.076  16.765  0.00  0.00    +0.049 A 
ATOM     17  C   UNL     1      14.099   8.834  15.871  0.00  0.00    +0.049 A 
ATOM     18  C   UNL     1      14.181  10.212  15.671  0.00  0.00    +0.120 A 
BRANCH  18   4
ATOM      4  O   UNL     1      14.231  10.714  14.406  0.00  0.00    -0.495 OA
ATOM     19  C   UNL     1      13.919  12.096  14.244  0.00  0.00    +0.277 C 
ENDBRANCH  18   4
ENDBRANCH   2  12
ENDBRANCH   6   2
TORSDOF 3
ENDMDL
MODEL 5
REMARK VINA RESULT:      -5.2     24.733     26.068
REMARK  Name = 75536946
REMARK  5 active torsions:
REMARK  status: ('A' for Active; 'I' for Inactive)
REMARK    1  A    between atoms: O_2  and  C_6
REMARK    2  A    between atoms: O_2  and  C_12
REMARK    3  A    between atoms: O_4  and  C_18
REMARK    4  A    between atoms: O_4  and  C_19
REMARK    5  A    between atoms: C_11  and  C_13
REMARK                            x       y       z     vdW  Elec       q    Type
REMARK                         _______ _______ _______ _____ _____    ______ ____
ROOT
ATOM      1  O   UNL     1     -14.075   4.702  21.913  0.00  0.00    -0.375 OA
ATOM      3  O   UNL     1     -15.086   8.317  18.326  0.00  0.00    -0.276 OA
ATOM      5  N   UNL     1     -15.230   6.959  20.217  0.00  0.00    -0.296 N 
ATOM      6  C   UNL     1     -12.856   6.547  20.826  0.00  0.00    +0.216 C 
ATOM      7  C   UNL     1     -14.022   7.534  20.815  0.00  0.00    +0.154 C 
ATOM      8  C   UNL     1     -15.945   5.896  20.938  0.00  0.00    +0.136 C 
ATOM      9  C   UNL     1     -12.930   5.542  21.973  0.00  0.00    +0.206 C 
ATOM     10  C   UNL     1     -15.293   5.375  22.212  0.00  0.00    +0.179 C 
ATOM     11  C   UNL     1     -15.654   7.429  18.966  0.00  0.00    +0.213 C 
ATOM     13  C   UNL     1     -16.889   6.777  18.389  0.00  0.00    +0.109 C 
ENDROOT
BRANCH   6   2
ATOM      2  O   UNL     1     -11.649   7.296  20.957  0.00  0.00    -0.485 OA
BRANCH   2  12
ATOM     12  C   UNL     1     -11.211   7.948  19.838  0.00  0.00    +0.121 A 
ATOM     14  C   UNL     1     -10.772   9.268  19.926  0.00  0.00    +0.049 A 
ATOM     15  C   UNL     1     -11.203   7.291  18.606  0.00  0.00    +0.049 A 
ATOM     16  C   UNL     1     -10.325   9.934  18.784  0.00  0.00    +0.049 A 
ATOM     17  C   UNL     1     -10.756   7.956  17.464  0.00  0.00    +0.049 A 
ATOM     18  C   UNL     1     -10.317   9.277  17.554  0.00  0.00    +0.120 A 
BRANCH  18   4
ATOM      4  O   UNL     1      -9.881   9.926  16.439  0.00  0.00    -0.495 OA
ATOM     19  C   UNL     1     -10.097  11.334  16.382  0.00  0.00    +0.277 C 
ENDBRANCH  18   4
ENDBRANCH   2  12
ENDBRANCH   6   2
TORSDOF 3
ENDMDL
MODEL 6
REMARK VINA RESULT:      -5.2     23.467     24.858
REMARK  Name = 75536946
REMARK  5 active torsions:
REMARK  status: ('A' for Active; 'I' for Inactive)
REMARK    1  A    between atoms: O_2  and  C_6
REMARK    2  A    between atoms: O_2  and  C_12
REMARK    3  A    between atoms: O_4  and  C_18
REMARK    4  A    between atoms: O_4  and  C_19
REMARK    5  A    between atoms: C_11  and  C_13
REMARK                            x       y       z     vdW  Elec       q    Type
REMARK                         _______ _______ _______ _____ _____    ______ ____
ROOT
ATOM      1  O   UNL     1     -11.564  12.442  17.631  0.00  0.00    -0.375 OA
ATOM      3  O   UNL     1     -10.421   7.410  17.045  0.00  0.00    -0.276 OA
ATOM      5  N   UNL     1     -10.312   9.740  16.970  0.00  0.00    -0.296 N 
ATOM      6  C   UNL     1     -11.431  10.448  19.073  0.00  0.00    +0.216 C 
ATOM      7  C   UNL     1     -10.180   9.855  18.425  0.00  0.00    +0.154 C 
ATOM      8  C   UNL     1     -10.332  10.964  16.156  0.00  0.00    +0.136 C 
ATOM      9  C   UNL     1     -11.497  11.969  18.971  0.00  0.00    +0.206 C 
ATOM     10  C   UNL     1     -10.346  12.286  16.912  0.00  0.00    +0.179 C 
ATOM     11  C   UNL     1     -10.433   8.463  16.403  0.00  0.00    +0.213 C 
ATOM     13  C   UNL     1     -10.594   8.410  14.901  0.00  0.00    +0.109 C 
ENDROOT
BRANCH   6   2
ATOM      2  O   UNL     1     -11.422  10.086  20.453  0.00  0.00    -0.485 OA
BRANCH   2  12
ATOM     12  C   UNL     1     -12.071   8.929  20.785  0.00  0.00    +0.121 A 
ATOM     14  C   UNL     1     -13.342   8.981  21.356  0.00  0.00    +0.049 A 
ATOM     15  C   UNL     1     -11.460   7.696  20.554  0.00  0.00    +0.049 A 
ATOM     16  C   UNL     1     -14.004   7.801  21.695  0.00  0.00    +0.049 A 
ATOM     17  C   UNL     1     -12.122   6.516  20.892  0.00  0.00    +0.049 A 
ATOM     18  C   UNL     1     -13.393   6.569  21.463  0.00  0.00    +0.120 A 
BRANCH  18   4
ATOM      4  O   UNL     1     -14.039   5.417  21.793  0.00  0.00    -0.495 OA
ATOM     19  C   UNL     1     -14.260   5.171  23.181  0.00  0.00    +0.277 C 
ENDBRANCH  18   4
ENDBRANCH   2  12
ENDBRANCH   6   2
TORSDOF 3
ENDMDL
MODEL 7
REMARK VINA RESULT:      -5.2     25.848     27.541
REMARK  Name = 75536946
REMARK  5 active torsions:
REMARK  status: ('A' for Active; 'I' for Inactive)
REMARK    1  A    between atoms: O_2  and  C_6
REMARK    2  A    between atoms: O_2  and  C_12
REMARK    3  A    between atoms: O_4  and  C_18
REMARK    4  A    between atoms: O_4  and  C_19
REMARK    5  A    between atoms: C_11  and  C_13
REMARK                            x       y       z     vdW  Elec       q    Type
REMARK                         _______ _______ _______ _____ _____    ______ ____
ROOT
ATOM      1  O   UNL     1      -1.556 -10.025  14.743  0.00  0.00    -0.375 OA
ATOM      3  O   UNL     1      -6.684 -10.790  14.460  0.00  0.00    -0.276 OA
ATOM      5  N   UNL     1      -4.397 -10.853  14.003  0.00  0.00    -0.296 N 
ATOM      6  C   UNL     1      -3.347 -10.788  16.254  0.00  0.00    +0.216 C 
ATOM      7  C   UNL     1      -4.100 -11.619  15.216  0.00  0.00    +0.154 C 
ATOM      8  C   UNL     1      -3.292 -10.472  13.112  0.00  0.00    +0.136 C 
ATOM      9  C   UNL     1      -1.851 -10.681  15.969  0.00  0.00    +0.206 C 
ATOM     10  C   UNL     1      -1.884 -10.795  13.592  0.00  0.00    +0.179 C 
ATOM     11  C   UNL     1      -5.727 -10.493  13.742  0.00  0.00    +0.213 C 
ATOM     13  C   UNL     1      -5.966  -9.680  12.490  0.00  0.00    +0.109 C 
ENDROOT
BRANCH   6   2
ATOM      2  O   UNL     1      -3.523 -11.410  17.526  0.00  0.00    -0.485 OA
BRANCH   2  12
ATOM     12  C   UNL     1      -4.764 -11.305  18.091  0.00  0.00    +0.121 A 
ATOM     14  C   UNL     1      -5.272 -12.350  18.861  0.00  0.00    +0.049 A 
ATOM     15  C   UNL     1      -5.523 -10.149  17.896  0.00  0.00    +0.049 A 
ATOM     16  C   UNL     1      -6.537 -12.242  19.437  0.00  0.00    +0.049 A 
ATOM     17  C   UNL     1      -6.788 -10.041  18.473  0.00  0.00    +0.049 A 
ATOM     18  C   UNL     1      -7.295 -11.087  19.243  0.00  0.00    +0.120 A 
BRANCH  18   4
ATOM      4  O   UNL     1      -8.530 -10.981  19.806  0.00  0.00    -0.495 OA
ATOM     19  C   UNL     1      -9.617 -10.680  18.933  0.00  0.00    +0.277 C 
ENDBRANCH  18   4
ENDBRANCH   2  12
ENDBRANCH   6   2
TORSDOF 3
ENDMDL
MODEL 8
REMARK VINA RESULT:      -5.1     14.330     18.429
REMARK  Name = 75536946
REMARK  5 active torsions:
REMARK  status: ('A' for Active; 'I' for Inactive)
REMARK    1  A    between atoms: O_2  and  C_6
REMARK    2  A    between atoms: O_2  and  C_12
REMARK    3  A    between atoms: O_4  and  C_18
REMARK    4  A    between atoms: O_4  and  C_19
REMARK    5  A    between atoms: C_11  and  C_13
REMARK                            x       y       z     vdW  Elec       q    Type
REMARK                         _______ _______ _______ _____ _____    ______ ____
ROOT
ATOM      1  O   UNL     1       9.764   9.132   5.935  0.00  0.00    -0.375 OA
ATOM      3  O   UNL     1       9.772   4.004   6.747  0.00  0.00    -0.276 OA
ATOM      5  N   UNL     1       9.173   6.259   6.771  0.00  0.00    -0.296 N 
ATOM      6  C   UNL     1       9.950   7.095   4.563  0.00  0.00    +0.216 C 
ATOM      7  C   UNL     1       8.908   6.280   5.330  0.00  0.00    +0.154 C 
ATOM      8  C   UNL     1       8.994   7.494   7.547  0.00  0.00    +0.136 C 
ATOM      9  C   UNL     1       9.697   8.599   4.619  0.00  0.00    +0.206 C 
ATOM     10  C   UNL     1       8.666   8.755   6.759  0.00  0.00    +0.179 C 
ATOM     11  C   UNL     1       9.608   5.062   7.359  0.00  0.00    +0.213 C 
ATOM     13  C   UNL     1       9.892   5.110   8.843  0.00  0.00    +0.109 C 
ENDROOT
BRANCH   6   2
ATOM      2  O   UNL     1       9.912   6.679   3.198  0.00  0.00    -0.485 OA
BRANCH   2  12
ATOM     12  C   UNL     1      10.874   5.791   2.804  0.00  0.00    +0.121 A 
ATOM     14  C   UNL     1      10.573   4.433   2.709  0.00  0.00    +0.049 A 
ATOM     15  C   UNL     1      12.158   6.245   2.496  0.00  0.00    +0.049 A 
ATOM     16  C   UNL     1      11.555   3.527   2.307  0.00  0.00    +0.049 A 
ATOM     17  C   UNL     1      13.139   5.339   2.093  0.00  0.00    +0.049 A 
ATOM     18  C   UNL     1      12.837   3.981   1.998  0.00  0.00    +0.120 A 
BRANCH  18   4
ATOM      4  O   UNL     1      13.795   3.097   1.605  0.00  0.00    -0.495 OA
ATOM     19  C   UNL     1      15.077   3.631   1.280  0.00  0.00    +0.277 C 
ENDBRANCH  18   4
ENDBRANCH   2  12
ENDBRANCH   6   2
TORSDOF 3
ENDMDL
MODEL 9
REMARK VINA RESULT:      -5.1     24.001     25.232
REMARK  Name = 75536946
REMARK  5 active torsions:
REMARK  status: ('A' for Active; 'I' for Inactive)
REMARK    1  A    between atoms: O_2  and  C_6
REMARK    2  A    between atoms: O_2  and  C_12
REMARK    3  A    between atoms: O_4  and  C_18
REMARK    4  A    between atoms: O_4  and  C_19
REMARK    5  A    between atoms: C_11  and  C_13
REMARK                            x       y       z     vdW  Elec       q    Type
REMARK                         _______ _______ _______ _____ _____    ______ ____
ROOT
ATOM      1  O   UNL     1     -10.626  11.525  18.315  0.00  0.00    -0.375 OA
ATOM      3  O   UNL     1     -11.817   8.153  14.551  0.00  0.00    -0.276 OA
ATOM      5  N   UNL     1     -10.767   9.835  15.779  0.00  0.00    -0.296 N 
ATOM      6  C   UNL     1     -11.054   9.105  18.138  0.00  0.00    +0.216 C 
ATOM      7  C   UNL     1     -10.316   8.901  16.815  0.00  0.00    +0.154 C 
ATOM      8  C   UNL     1     -10.436  11.261  15.913  0.00  0.00    +0.136 C 
ATOM      9  C   UNL     1     -10.501  10.266  18.961  0.00  0.00    +0.206 C 
ATOM     10  C   UNL     1      -9.750  11.686  17.205  0.00  0.00    +0.179 C 
ATOM     11  C   UNL     1     -11.516   9.339  14.703  0.00  0.00    +0.213 C 
ATOM     13  C   UNL     1     -11.976  10.355  13.683  0.00  0.00    +0.109 C 
ENDROOT
BRANCH   6   2
ATOM      2  O   UNL     1     -10.925   7.906  18.900  0.00  0.00    -0.485 OA
BRANCH   2  12
ATOM     12  C   UNL     1     -12.032   7.502  19.593  0.00  0.00    +0.121 A 
ATOM     14  C   UNL     1     -11.889   6.763  20.768  0.00  0.00    +0.049 A 
ATOM     15  C   UNL     1     -13.306   7.827  19.125  0.00  0.00    +0.049 A 
ATOM     16  C   UNL     1     -13.018   6.350  21.475  0.00  0.00    +0.049 A 
ATOM     17  C   UNL     1     -14.435   7.415  19.832  0.00  0.00    +0.049 A 
ATOM     18  C   UNL     1     -14.291   6.677  21.007  0.00  0.00    +0.120 A 
BRANCH  18   4
ATOM      4  O   UNL     1     -15.393   6.275  21.697  0.00  0.00    -0.495 OA
ATOM     19  C   UNL     1     -15.313   5.023  22.376  0.00  0.00    +0.277 C 
ENDBRANCH  18   4
ENDBRANCH   2  12
ENDBRANCH   6   2
TORSDOF 3
ENDMDL
MODEL 10
REMARK VINA RESULT:      -5.1     26.215     28.266
REMARK  Name = 75536946
REMARK  5 active torsions:
REMARK  status: ('A' for Active; 'I' for Inactive)
REMARK    1  A    between atoms: O_2  and  C_6
REMARK    2  A    between atoms: O_2  and  C_12
REMARK    3  A    between atoms: O_4  and  C_18
REMARK    4  A    between atoms: O_4  and  C_19
REMARK    5  A    between atoms: C_11  and  C_13
REMARK                            x       y       z     vdW  Elec       q    Type
REMARK                         _______ _______ _______ _____ _____    ______ ____
ROOT
ATOM      1  O   UNL     1      -6.740 -12.980  18.678  0.00  0.00    -0.375 OA
ATOM      3  O   UNL     1      -8.683  -8.568  16.751  0.00  0.00    -0.276 OA
ATOM      5  N   UNL     1      -8.224 -10.365  18.166  0.00  0.00    -0.296 N 
ATOM      6  C   UNL     1      -5.854 -10.918  17.662  0.00  0.00    +0.216 C 
ATOM      7  C   UNL     1      -6.827  -9.961  18.349  0.00  0.00    +0.154 C 
ATOM      8  C   UNL     1      -8.710 -11.577  18.840  0.00  0.00    +0.136 C 
ATOM      9  C   UNL     1      -5.582 -12.183  18.473  0.00  0.00    +0.206 C 
ATOM     10  C   UNL     1      -7.673 -12.406  19.587  0.00  0.00    +0.179 C 
ATOM     11  C   UNL     1      -9.047  -9.590  17.336  0.00  0.00    +0.213 C 
ATOM     13  C   UNL     1     -10.469 -10.074  17.164  0.00  0.00    +0.109 C 
ENDROOT
BRANCH   6   2
ATOM      2  O   UNL     1      -4.620 -10.226  17.473  0.00  0.00    -0.485 OA
BRANCH   2  12
ATOM     12  C   UNL     1      -3.951 -10.480  16.308  0.00  0.00    +0.121 A 
ATOM     14  C   UNL     1      -2.569 -10.669  16.324  0.00  0.00    +0.049 A 
ATOM     15  C   UNL     1      -4.651 -10.550  15.102  0.00  0.00    +0.049 A 
ATOM     16  C   UNL     1      -1.886 -10.927  15.135  0.00  0.00    +0.049 A 
ATOM     17  C   UNL     1      -3.968 -10.809  13.914  0.00  0.00    +0.049 A 
ATOM     18  C   UNL     1      -2.586 -10.997  13.931  0.00  0.00    +0.120 A 
BRANCH  18   4
ATOM      4  O   UNL     1      -1.920 -11.250  12.771  0.00  0.00    -0.495 OA
ATOM     19  C   UNL     1      -1.965 -10.242  11.763  0.00  0.00    +0.277 C 
ENDBRANCH  18   4
ENDBRANCH   2  12
ENDBRANCH   6   2
TORSDOF 3
ENDMDL
