MODEL 1
REMARK VINA RESULT:      -6.8      0.000      0.000
REMARK  Name = 14457639
REMARK  6 active torsions:
REMARK  status: ('A' for Active; 'I' for Inactive)
REMARK    1  A    between atoms: O_1  and  C_14
REMARK    2  A    between atoms: O_1  and  C_20
REMARK    3  A    between atoms: N_5  and  C_12
REMARK    4  A    between atoms: C_7  and  C_14
REMARK    5  A    between atoms: C_12  and  C_16
REMARK    6  A    between atoms: C_15  and  C_17
REMARK                            x       y       z     vdW  Elec       q    Type
REMARK                         _______ _______ _______ _____ _____    ______ ____
ROOT
ATOM      3  O   UNL     1      15.995   6.061  19.314  0.00  0.00    -0.276 OA
ATOM      4  N   UNL     1      14.395   7.512  20.195  0.00  0.00    -0.282 N 
ATOM      5  N   UNL     1      12.088   9.561  22.322  0.00  0.00    -0.328 N 
ATOM      6  N   UNL     1      10.550   8.041  21.759  0.00  0.00    -0.240 NA
ATOM      7  C   UNL     1      13.293   6.871  19.428  0.00  0.00    +0.191 C 
ATOM      8  C   UNL     1      12.001   6.634  20.236  0.00  0.00    +0.091 C 
ATOM      9  C   UNL     1      12.703   8.689  21.475  0.00  0.00    +0.059 A 
ATOM     10  C   UNL     1      14.097   8.729  21.001  0.00  0.00    +0.163 C 
ATOM     11  C   UNL     1      11.739   7.770  21.142  0.00  0.00    +0.066 A 
ATOM     13  C   UNL     1      10.792   9.129  22.463  0.00  0.00    +0.200 A 
ATOM     15  C   UNL     1      15.706   7.063  19.974  0.00  0.00    +0.213 C 
ATOM     17  C   UNL     1      16.810   7.877  20.602  0.00  0.00    +0.109 C 
ENDROOT
BRANCH   7  14
ATOM      2  O   UNL     1      13.806   8.652  17.885  0.00  0.00    -0.249 OA
ATOM     14  C   UNL     1      13.056   7.750  18.232  0.00  0.00    +0.328 C 
BRANCH  14   1
ATOM      1  O   UNL     1      11.895   7.380  17.618  0.00  0.00    -0.467 OA
ATOM     20  C   UNL     1      11.110   8.453  17.089  0.00  0.00    +0.280 C 
ENDBRANCH  14   1
ENDBRANCH   7  14
BRANCH   5  12
ATOM     12  C   UNL     1      12.667  10.721  22.954  0.00  0.00    +0.158 C 
BRANCH  12  16
ATOM     16  C   UNL     1      11.696  11.871  22.989  0.00  0.00    -0.028 A 
ATOM     18  C   UNL     1      11.442  12.586  21.826  0.00  0.00    +0.005 A 
ATOM     19  C   UNL     1      11.068  12.200  24.182  0.00  0.00    +0.005 A 
ATOM     21  C   UNL     1      10.543  13.652  21.858  0.00  0.00    +0.000 A 
ATOM     22  C   UNL     1      10.168  13.265  24.214  0.00  0.00    +0.000 A 
ATOM     23  C   UNL     1       9.905  13.991  23.052  0.00  0.00    +0.000 A 
ENDBRANCH  12  16
ENDBRANCH   5  12
TORSDOF 4
ENDMDL
MODEL 2
REMARK VINA RESULT:      -6.5      2.105      3.565
REMARK  Name = 14457639
REMARK  6 active torsions:
REMARK  status: ('A' for Active; 'I' for Inactive)
REMARK    1  A    between atoms: O_1  and  C_14
REMARK    2  A    between atoms: O_1  and  C_20
REMARK    3  A    between atoms: N_5  and  C_12
REMARK    4  A    between atoms: C_7  and  C_14
REMARK    5  A    between atoms: C_12  and  C_16
REMARK    6  A    between atoms: C_15  and  C_17
REMARK                            x       y       z     vdW  Elec       q    Type
REMARK                         _______ _______ _______ _____ _____    ______ ____
ROOT
ATOM      3  O   UNL     1      13.932   8.465  15.090  0.00  0.00    -0.276 OA
ATOM      4  N   UNL     1      14.125   8.928  17.368  0.00  0.00    -0.282 N 
ATOM      5  N   UNL     1      15.130  10.019  20.810  0.00  0.00    -0.328 N 
ATOM      6  N   UNL     1      15.741   7.888  21.085  0.00  0.00    -0.240 NA
ATOM      7  C   UNL     1      14.018   7.491  17.738  0.00  0.00    +0.191 C 
ATOM      8  C   UNL     1      15.021   7.029  18.816  0.00  0.00    +0.091 C 
ATOM      9  C   UNL     1      14.808   9.375  19.653  0.00  0.00    +0.059 A 
ATOM     10  C   UNL     1      14.173   9.948  18.453  0.00  0.00    +0.163 C 
ATOM     11  C   UNL     1      15.190   8.072  19.848  0.00  0.00    +0.066 A 
ATOM     13  C   UNL     1      15.689   9.081  21.642  0.00  0.00    +0.200 A 
ATOM     15  C   UNL     1      13.976   9.278  16.017  0.00  0.00    +0.213 C 
ATOM     17  C   UNL     1      13.873  10.753  15.712  0.00  0.00    +0.109 C 
ENDROOT
BRANCH   7  14
ATOM      2  O   UNL     1      11.622   7.644  17.519  0.00  0.00    -0.249 OA
ATOM     14  C   UNL     1      12.594   7.277  18.165  0.00  0.00    +0.328 C 
BRANCH  14   1
ATOM      1  O   UNL     1      12.570   6.623  19.361  0.00  0.00    -0.467 OA
ATOM     20  C   UNL     1      11.751   7.218  20.372  0.00  0.00    +0.280 C 
ENDBRANCH  14   1
ENDBRANCH   7  14
BRANCH   5  12
ATOM     12  C   UNL     1      14.926  11.413  21.120  0.00  0.00    +0.158 C 
BRANCH  12  16
ATOM     16  C   UNL     1      13.593  11.639  21.783  0.00  0.00    -0.028 A 
ATOM     18  C   UNL     1      13.440  11.336  23.129  0.00  0.00    +0.005 A 
ATOM     19  C   UNL     1      12.537  12.145  21.040  0.00  0.00    +0.005 A 
ATOM     21  C   UNL     1      12.205  11.545  23.744  0.00  0.00    +0.000 A 
ATOM     22  C   UNL     1      11.302  12.355  21.654  0.00  0.00    +0.000 A 
ATOM     23  C   UNL     1      11.136  12.055  23.006  0.00  0.00    +0.000 A 
ENDBRANCH  12  16
ENDBRANCH   5  12
TORSDOF 4
ENDMDL
MODEL 3
REMARK VINA RESULT:      -6.3      2.870      6.697
REMARK  Name = 14457639
REMARK  6 active torsions:
REMARK  status: ('A' for Active; 'I' for Inactive)
REMARK    1  A    between atoms: O_1  and  C_14
REMARK    2  A    between atoms: O_1  and  C_20
REMARK    3  A    between atoms: N_5  and  C_12
REMARK    4  A    between atoms: C_7  and  C_14
REMARK    5  A    between atoms: C_12  and  C_16
REMARK    6  A    between atoms: C_15  and  C_17
REMARK                            x       y       z     vdW  Elec       q    Type
REMARK                         _______ _______ _______ _____ _____    ______ ____
ROOT
ATOM      3  O   UNL     1      10.542  13.691  21.852  0.00  0.00    -0.276 OA
ATOM      4  N   UNL     1      11.638  11.670  21.459  0.00  0.00    -0.282 N 
ATOM      5  N   UNL     1      13.010   8.450  20.120  0.00  0.00    -0.328 N 
ATOM      6  N   UNL     1      11.494   7.488  21.450  0.00  0.00    -0.240 NA
ATOM      7  C   UNL     1      11.061  11.043  22.678  0.00  0.00    +0.191 C 
ATOM      8  C   UNL     1      10.552   9.600  22.479  0.00  0.00    +0.091 C 
ATOM      9  C   UNL     1      12.381   9.462  20.780  0.00  0.00    +0.059 A 
ATOM     10  C   UNL     1      12.642  10.908  20.664  0.00  0.00    +0.163 C 
ATOM     11  C   UNL     1      11.460   8.847  21.590  0.00  0.00    +0.066 A 
ATOM     13  C   UNL     1      12.441   7.279  20.557  0.00  0.00    +0.200 A 
ATOM     15  C   UNL     1      11.364  13.025  21.217  0.00  0.00    +0.213 C 
ATOM     17  C   UNL     1      12.138  13.678  20.098  0.00  0.00    +0.109 C 
ENDROOT
BRANCH   7  14
ATOM      2  O   UNL     1      13.329  11.169  23.487  0.00  0.00    -0.249 OA
ATOM     14  C   UNL     1      12.131  11.121  23.730  0.00  0.00    +0.328 C 
BRANCH  14   1
ATOM      1  O   UNL     1      11.555  11.130  24.966  0.00  0.00    -0.467 OA
ATOM     20  C   UNL     1      10.920  12.357  25.341  0.00  0.00    +0.280 C 
ENDBRANCH  14   1
ENDBRANCH   7  14
BRANCH   5  12
ATOM     12  C   UNL     1      14.071   8.565  19.150  0.00  0.00    +0.158 C 
BRANCH  12  16
ATOM     16  C   UNL     1      15.348   7.948  19.658  0.00  0.00    -0.028 A 
ATOM     18  C   UNL     1      16.079   8.602  20.641  0.00  0.00    +0.005 A 
ATOM     19  C   UNL     1      15.777   6.736  19.136  0.00  0.00    +0.005 A 
ATOM     21  C   UNL     1      17.262   8.031  21.111  0.00  0.00    +0.000 A 
ATOM     22  C   UNL     1      16.959   6.164  19.607  0.00  0.00    +0.000 A 
ATOM     23  C   UNL     1      17.702   6.812  20.594  0.00  0.00    +0.000 A 
ENDBRANCH  12  16
ENDBRANCH   5  12
TORSDOF 4
ENDMDL
MODEL 4
REMARK VINA RESULT:      -6.2      1.486      3.301
REMARK  Name = 14457639
REMARK  6 active torsions:
REMARK  status: ('A' for Active; 'I' for Inactive)
REMARK    1  A    between atoms: O_1  and  C_14
REMARK    2  A    between atoms: O_1  and  C_20
REMARK    3  A    between atoms: N_5  and  C_12
REMARK    4  A    between atoms: C_7  and  C_14
REMARK    5  A    between atoms: C_12  and  C_16
REMARK    6  A    between atoms: C_15  and  C_17
REMARK                            x       y       z     vdW  Elec       q    Type
REMARK                         _______ _______ _______ _____ _____    ______ ____
ROOT
ATOM      3  O   UNL     1      13.331   8.187  16.376  0.00  0.00    -0.276 OA
ATOM      4  N   UNL     1      13.266   8.634  18.665  0.00  0.00    -0.282 N 
ATOM      5  N   UNL     1      12.854  10.061  22.105  0.00  0.00    -0.328 N 
ATOM      6  N   UNL     1      15.053  10.439  21.990  0.00  0.00    -0.240 NA
ATOM      7  C   UNL     1      14.725   8.391  18.823  0.00  0.00    +0.191 C 
ATOM      8  C   UNL     1      15.456   9.424  19.707  0.00  0.00    +0.091 C 
ATOM      9  C   UNL     1      13.266   9.565  20.905  0.00  0.00    +0.059 A 
ATOM     10  C   UNL     1      12.445   8.898  19.880  0.00  0.00    +0.163 C 
ATOM     11  C   UNL     1      14.616   9.805  20.860  0.00  0.00    +0.066 A 
ATOM     13  C   UNL     1      13.966  10.577  22.723  0.00  0.00    +0.200 A 
ATOM     15  C   UNL     1      12.688   8.409  17.406  0.00  0.00    +0.213 C 
ATOM     17  C   UNL     1      11.181   8.454  17.339  0.00  0.00    +0.109 C 
ENDROOT
BRANCH   7  14
ATOM      2  O   UNL     1      14.256   6.579  20.343  0.00  0.00    -0.249 OA
ATOM     14  C   UNL     1      14.858   6.995  19.361  0.00  0.00    +0.328 C 
BRANCH  14   1
ATOM      1  O   UNL     1      15.737   6.291  18.592  0.00  0.00    -0.467 OA
ATOM     20  C   UNL     1      16.964   5.930  19.234  0.00  0.00    +0.280 C 
ENDBRANCH  14   1
ENDBRANCH   7  14
BRANCH   5  12
ATOM     12  C   UNL     1      11.515  10.052  22.642  0.00  0.00    +0.158 C 
BRANCH  12  16
ATOM     16  C   UNL     1      11.106  11.420  23.120  0.00  0.00    -0.028 A 
ATOM     18  C   UNL     1      10.919  12.439  22.196  0.00  0.00    +0.005 A 
ATOM     19  C   UNL     1      10.922  11.643  24.477  0.00  0.00    +0.005 A 
ATOM     21  C   UNL     1      10.540  13.707  22.639  0.00  0.00    +0.000 A 
ATOM     22  C   UNL     1      10.543  12.910  24.920  0.00  0.00    +0.000 A 
ATOM     23  C   UNL     1      10.352  13.942  24.001  0.00  0.00    +0.000 A 
ENDBRANCH  12  16
ENDBRANCH   5  12
TORSDOF 4
ENDMDL
MODEL 5
REMARK VINA RESULT:      -6.0      2.795      6.525
REMARK  Name = 14457639
REMARK  6 active torsions:
REMARK  status: ('A' for Active; 'I' for Inactive)
REMARK    1  A    between atoms: O_1  and  C_14
REMARK    2  A    between atoms: O_1  and  C_20
REMARK    3  A    between atoms: N_5  and  C_12
REMARK    4  A    between atoms: C_7  and  C_14
REMARK    5  A    between atoms: C_12  and  C_16
REMARK    6  A    between atoms: C_15  and  C_17
REMARK                            x       y       z     vdW  Elec       q    Type
REMARK                         _______ _______ _______ _____ _____    ______ ____
ROOT
ATOM      3  O   UNL     1      13.033  12.571  22.610  0.00  0.00    -0.276 OA
ATOM      4  N   UNL     1      13.605  10.453  21.815  0.00  0.00    -0.282 N 
ATOM      5  N   UNL     1      15.255   7.381  20.442  0.00  0.00    -0.328 N 
ATOM      6  N   UNL     1      14.234   7.935  18.533  0.00  0.00    -0.240 NA
ATOM      7  C   UNL     1      12.552  10.489  20.765  0.00  0.00    +0.191 C 
ATOM      8  C   UNL     1      13.008   9.980  19.381  0.00  0.00    +0.091 C 
ATOM      9  C   UNL     1      14.520   8.497  20.710  0.00  0.00    +0.059 A 
ATOM     10  C   UNL     1      14.399   9.206  21.996  0.00  0.00    +0.163 C 
ATOM     11  C   UNL     1      13.902   8.814  19.526  0.00  0.00    +0.066 A 
ATOM     13  C   UNL     1      15.050   7.081  19.118  0.00  0.00    +0.200 A 
ATOM     15  C   UNL     1      13.673  11.522  22.722  0.00  0.00    +0.213 C 
ATOM     17  C   UNL     1      14.604  11.348  23.897  0.00  0.00    +0.109 C 
ENDROOT
BRANCH   7  14
ATOM      2  O   UNL     1      10.834   9.934  22.364  0.00  0.00    -0.249 OA
ATOM     14  C   UNL     1      11.399   9.691  21.306  0.00  0.00    +0.328 C 
BRANCH  14   1
ATOM      1  O   UNL     1      11.099   8.680  20.442  0.00  0.00    -0.467 OA
ATOM     20  C   UNL     1      10.883   7.400  21.044  0.00  0.00    +0.280 C 
ENDBRANCH  14   1
ENDBRANCH   7  14
BRANCH   5  12
ATOM     12  C   UNL     1      16.088   6.643  21.359  0.00  0.00    +0.158 C 
BRANCH  12  16
ATOM     16  C   UNL     1      17.538   7.021  21.210  0.00  0.00    -0.028 A 
ATOM     18  C   UNL     1      18.427   6.113  20.650  0.00  0.00    +0.005 A 
ATOM     19  C   UNL     1      17.966   8.272  21.633  0.00  0.00    +0.005 A 
ATOM     21  C   UNL     1      19.770   6.463  20.512  0.00  0.00    +0.000 A 
ATOM     22  C   UNL     1      19.308   8.622  21.494  0.00  0.00    +0.000 A 
ATOM     23  C   UNL     1      20.211   7.718  20.934  0.00  0.00    +0.000 A 
ENDBRANCH  12  16
ENDBRANCH   5  12
TORSDOF 4
ENDMDL
MODEL 6
REMARK VINA RESULT:      -6.0     25.694     27.867
REMARK  Name = 14457639
REMARK  6 active torsions:
REMARK  status: ('A' for Active; 'I' for Inactive)
REMARK    1  A    between atoms: O_1  and  C_14
REMARK    2  A    between atoms: O_1  and  C_20
REMARK    3  A    between atoms: N_5  and  C_12
REMARK    4  A    between atoms: C_7  and  C_14
REMARK    5  A    between atoms: C_12  and  C_16
REMARK    6  A    between atoms: C_15  and  C_17
REMARK                            x       y       z     vdW  Elec       q    Type
REMARK                         _______ _______ _______ _____ _____    ______ ____
ROOT
ATOM      3  O   UNL     1      -7.354 -13.366  16.857  0.00  0.00    -0.276 OA
ATOM      4  N   UNL     1      -5.474 -12.423  15.846  0.00  0.00    -0.282 N 
ATOM      5  N   UNL     1      -2.121 -11.629  14.373  0.00  0.00    -0.328 N 
ATOM      6  N   UNL     1      -1.764 -10.541  16.291  0.00  0.00    -0.240 NA
ATOM      7  C   UNL     1      -5.436 -11.294  16.815  0.00  0.00    +0.191 C 
ATOM      8  C   UNL     1      -4.029 -10.949  17.344  0.00  0.00    +0.091 C 
ATOM      9  C   UNL     1      -3.270 -11.741  15.097  0.00  0.00    +0.059 A 
ATOM     10  C   UNL     1      -4.515 -12.426  14.706  0.00  0.00    +0.163 C 
ATOM     11  C   UNL     1      -3.026 -11.063  16.265  0.00  0.00    +0.066 A 
ATOM     13  C   UNL     1      -1.243 -10.898  15.134  0.00  0.00    +0.200 A 
ATOM     15  C   UNL     1      -6.538 -13.335  15.931  0.00  0.00    +0.213 C 
ATOM     17  C   UNL     1      -6.661 -14.331  14.805  0.00  0.00    +0.109 C 
ENDROOT
BRANCH   7  14
ATOM      2  O   UNL     1      -6.045  -9.951  14.907  0.00  0.00    -0.249 OA
ATOM     14  C   UNL     1      -6.077 -10.128  16.117  0.00  0.00    +0.328 C 
BRANCH  14   1
ATOM      1  O   UNL     1      -6.682  -9.323  17.037  0.00  0.00    -0.467 OA
ATOM     20  C   UNL     1      -7.857  -9.864  17.649  0.00  0.00    +0.280 C 
ENDBRANCH  14   1
ENDBRANCH   7  14
BRANCH   5  12
ATOM     12  C   UNL     1      -1.861 -12.165  13.059  0.00  0.00    +0.158 C 
BRANCH  12  16
ATOM     16  C   UNL     1      -2.391 -11.257  11.981  0.00  0.00    -0.028 A 
ATOM     18  C   UNL     1      -3.521 -11.633  11.267  0.00  0.00    +0.005 A 
ATOM     19  C   UNL     1      -1.743 -10.060  11.715  0.00  0.00    +0.005 A 
ATOM     21  C   UNL     1      -4.013 -10.792  10.268  0.00  0.00    +0.000 A 
ATOM     22  C   UNL     1      -2.234  -9.219  10.717  0.00  0.00    +0.000 A 
ATOM     23  C   UNL     1      -3.369  -9.585   9.993  0.00  0.00    +0.000 A 
ENDBRANCH  12  16
ENDBRANCH   5  12
TORSDOF 4
ENDMDL
MODEL 7
REMARK VINA RESULT:      -5.7      1.668      2.207
REMARK  Name = 14457639
REMARK  6 active torsions:
REMARK  status: ('A' for Active; 'I' for Inactive)
REMARK    1  A    between atoms: O_1  and  C_14
REMARK    2  A    between atoms: O_1  and  C_20
REMARK    3  A    between atoms: N_5  and  C_12
REMARK    4  A    between atoms: C_7  and  C_14
REMARK    5  A    between atoms: C_12  and  C_16
REMARK    6  A    between atoms: C_15  and  C_17
REMARK                            x       y       z     vdW  Elec       q    Type
REMARK                         _______ _______ _______ _____ _____    ______ ____
ROOT
ATOM      3  O   UNL     1      17.352   9.065  20.837  0.00  0.00    -0.276 OA
ATOM      4  N   UNL     1      15.068   9.523  20.976  0.00  0.00    -0.282 N 
ATOM      5  N   UNL     1      11.592  10.545  21.932  0.00  0.00    -0.328 N 
ATOM      6  N   UNL     1      11.285   8.370  22.340  0.00  0.00    -0.240 NA
ATOM      7  C   UNL     1      14.699   8.104  20.728  0.00  0.00    +0.191 C 
ATOM      8  C   UNL     1      13.579   7.563  21.640  0.00  0.00    +0.091 C 
ATOM      9  C   UNL     1      12.759   9.924  21.602  0.00  0.00    +0.059 A 
ATOM     10  C   UNL     1      13.986  10.543  21.070  0.00  0.00    +0.163 C 
ATOM     11  C   UNL     1      12.544   8.593  21.858  0.00  0.00    +0.066 A 
ATOM     13  C   UNL     1      10.734   9.567  22.371  0.00  0.00    +0.200 A 
ATOM     15  C   UNL     1      16.426   9.877  20.915  0.00  0.00    +0.213 C 
ATOM     17  C   UNL     1      16.739  11.352  20.956  0.00  0.00    +0.109 C 
ENDROOT
BRANCH   7  14
ATOM      2  O   UNL     1      14.828   8.716  18.399  0.00  0.00    -0.249 OA
ATOM     14  C   UNL     1      14.331   8.020  19.274  0.00  0.00    +0.328 C 
BRANCH  14   1
ATOM      1  O   UNL     1      13.376   7.062  19.100  0.00  0.00    -0.467 OA
ATOM     20  C   UNL     1      12.413   7.331  18.076  0.00  0.00    +0.280 C 
ENDBRANCH  14   1
ENDBRANCH   7  14
BRANCH   5  12
ATOM     12  C   UNL     1      11.295  11.954  21.840  0.00  0.00    +0.158 C 
BRANCH  12  16
ATOM     16  C   UNL     1      11.226  12.590  23.203  0.00  0.00    -0.028 A 
ATOM     18  C   UNL     1      12.159  12.239  24.169  0.00  0.00    +0.005 A 
ATOM     19  C   UNL     1      10.231  13.518  23.475  0.00  0.00    +0.005 A 
ATOM     21  C   UNL     1      12.095  12.828  25.432  0.00  0.00    +0.000 A 
ATOM     22  C   UNL     1      10.168  14.109  24.737  0.00  0.00    +0.000 A 
ATOM     23  C   UNL     1      11.100  13.763  25.716  0.00  0.00    +0.000 A 
ENDBRANCH  12  16
ENDBRANCH   5  12
TORSDOF 4
ENDMDL
MODEL 8
REMARK VINA RESULT:      -5.4     26.262     27.833
REMARK  Name = 14457639
REMARK  6 active torsions:
REMARK  status: ('A' for Active; 'I' for Inactive)
REMARK    1  A    between atoms: O_1  and  C_14
REMARK    2  A    between atoms: O_1  and  C_20
REMARK    3  A    between atoms: N_5  and  C_12
REMARK    4  A    between atoms: C_7  and  C_14
REMARK    5  A    between atoms: C_12  and  C_16
REMARK    6  A    between atoms: C_15  and  C_17
REMARK                            x       y       z     vdW  Elec       q    Type
REMARK                         _______ _______ _______ _____ _____    ______ ____
ROOT
ATOM      3  O   UNL     1      -3.910 -10.012   9.488  0.00  0.00    -0.276 OA
ATOM      4  N   UNL     1      -3.934 -10.495  11.771  0.00  0.00    -0.282 N 
ATOM      5  N   UNL     1      -3.773 -10.492  15.515  0.00  0.00    -0.328 N 
ATOM      6  N   UNL     1      -1.780 -11.460  15.226  0.00  0.00    -0.240 NA
ATOM      7  C   UNL     1      -2.928 -11.581  11.620  0.00  0.00    +0.191 C 
ATOM      8  C   UNL     1      -1.824 -11.586  12.698  0.00  0.00    +0.091 C 
ATOM      9  C   UNL     1      -3.614 -10.648  14.171  0.00  0.00    +0.059 A 
ATOM     10  C   UNL     1      -4.559 -10.273  13.105  0.00  0.00    +0.163 C 
ATOM     11  C   UNL     1      -2.388 -11.246  14.020  0.00  0.00    +0.066 A 
ATOM     13  C   UNL     1      -2.642 -10.996  16.108  0.00  0.00    +0.200 A 
ATOM     15  C   UNL     1      -4.399  -9.856  10.611  0.00  0.00    +0.213 C 
ATOM     17  C   UNL     1      -5.569  -8.919  10.782  0.00  0.00    +0.109 C 
ENDROOT
BRANCH   7  14
ATOM      2  O   UNL     1      -4.886 -12.949  11.296  0.00  0.00    -0.249 OA
ATOM     14  C   UNL     1      -3.704 -12.866  11.603  0.00  0.00    +0.328 C 
BRANCH  14   1
ATOM      1  O   UNL     1      -2.891 -13.895  11.977  0.00  0.00    -0.467 OA
ATOM     20  C   UNL     1      -3.298 -15.194  11.535  0.00  0.00    +0.280 C 
ENDBRANCH  14   1
ENDBRANCH   7  14
BRANCH   5  12
ATOM     12  C   UNL     1      -4.904  -9.915  16.200  0.00  0.00    +0.158 C 
BRANCH  12  16
ATOM     16  C   UNL     1      -5.527 -10.898  17.155  0.00  0.00    -0.028 A 
ATOM     18  C   UNL     1      -5.417 -10.686  18.522  0.00  0.00    +0.005 A 
ATOM     19  C   UNL     1      -6.203 -12.003  16.655  0.00  0.00    +0.005 A 
ATOM     21  C   UNL     1      -5.994 -11.597  19.408  0.00  0.00    +0.000 A 
ATOM     22  C   UNL     1      -6.781 -12.913  17.540  0.00  0.00    +0.000 A 
ATOM     23  C   UNL     1      -6.676 -12.710  18.916  0.00  0.00    +0.000 A 
ENDBRANCH  12  16
ENDBRANCH   5  12
TORSDOF 4
ENDMDL
MODEL 9
REMARK VINA RESULT:      -5.3     14.285     18.573
REMARK  Name = 14457639
REMARK  6 active torsions:
REMARK  status: ('A' for Active; 'I' for Inactive)
REMARK    1  A    between atoms: O_1  and  C_14
REMARK    2  A    between atoms: O_1  and  C_20
REMARK    3  A    between atoms: N_5  and  C_12
REMARK    4  A    between atoms: C_7  and  C_14
REMARK    5  A    between atoms: C_12  and  C_16
REMARK    6  A    between atoms: C_15  and  C_17
REMARK                            x       y       z     vdW  Elec       q    Type
REMARK                         _______ _______ _______ _____ _____    ______ ____
ROOT
ATOM      3  O   UNL     1       6.419  10.056   4.604  0.00  0.00    -0.276 OA
ATOM      4  N   UNL     1       8.086   8.456   4.278  0.00  0.00    -0.282 N 
ATOM      5  N   UNL     1      10.167   5.463   3.409  0.00  0.00    -0.328 N 
ATOM      6  N   UNL     1       9.935   4.932   5.567  0.00  0.00    -0.240 NA
ATOM      7  C   UNL     1       8.399   8.387   5.730  0.00  0.00    +0.191 C 
ATOM      8  C   UNL     1       8.596   6.958   6.277  0.00  0.00    +0.091 C 
ATOM      9  C   UNL     1       9.449   6.472   3.978  0.00  0.00    +0.059 A 
ATOM     10  C   UNL     1       8.930   7.685   3.322  0.00  0.00    +0.163 C 
ATOM     11  C   UNL     1       9.324   6.124   5.299  0.00  0.00    +0.066 A 
ATOM     13  C   UNL     1      10.437   4.559   4.406  0.00  0.00    +0.200 A 
ATOM     15  C   UNL     1       7.137   9.397   3.847  0.00  0.00    +0.213 C 
ATOM     17  C   UNL     1       7.008   9.588   2.356  0.00  0.00    +0.109 C 
ENDROOT
BRANCH   7  14
ATOM      2  O   UNL     1       9.966  10.131   5.170  0.00  0.00    -0.249 OA
ATOM     14  C   UNL     1       9.618   9.241   5.933  0.00  0.00    +0.328 C 
BRANCH  14   1
ATOM      1  O   UNL     1      10.251   8.865   7.081  0.00  0.00    -0.467 OA
ATOM     20  C   UNL     1      10.182   9.804   8.158  0.00  0.00    +0.280 C 
ENDBRANCH  14   1
ENDBRANCH   7  14
BRANCH   5  12
ATOM     12  C   UNL     1      10.577   5.352   2.031  0.00  0.00    +0.158 C 
BRANCH  12  16
ATOM     16  C   UNL     1      12.016   4.924   1.919  0.00  0.00    -0.028 A 
ATOM     18  C   UNL     1      12.314   3.601   1.621  0.00  0.00    +0.005 A 
ATOM     19  C   UNL     1      13.024   5.857   2.115  0.00  0.00    +0.005 A 
ATOM     21  C   UNL     1      13.648   3.203   1.518  0.00  0.00    +0.000 A 
ATOM     22  C   UNL     1      14.358   5.460   2.010  0.00  0.00    +0.000 A 
ATOM     23  C   UNL     1      14.670   4.134   1.712  0.00  0.00    +0.000 A 
ENDBRANCH  12  16
ENDBRANCH   5  12
TORSDOF 4
ENDMDL
MODEL 10
REMARK VINA RESULT:      -5.2     26.019     28.009
REMARK  Name = 14457639
REMARK  6 active torsions:
REMARK  status: ('A' for Active; 'I' for Inactive)
REMARK    1  A    between atoms: O_1  and  C_14
REMARK    2  A    between atoms: O_1  and  C_20
REMARK    3  A    between atoms: N_5  and  C_12
REMARK    4  A    between atoms: C_7  and  C_14
REMARK    5  A    between atoms: C_12  and  C_16
REMARK    6  A    between atoms: C_15  and  C_17
REMARK                            x       y       z     vdW  Elec       q    Type
REMARK                         _______ _______ _______ _____ _____    ______ ____
ROOT
ATOM      3  O   UNL     1      -1.787 -10.701  16.638  0.00  0.00    -0.276 OA
ATOM      4  N   UNL     1      -3.822 -10.914  15.519  0.00  0.00    -0.282 N 
ATOM      5  N   UNL     1      -6.813 -10.639  13.278  0.00  0.00    -0.328 N 
ATOM      6  N   UNL     1      -7.757  -9.585  15.007  0.00  0.00    -0.240 NA
ATOM      7  C   UNL     1      -4.607 -10.726  16.769  0.00  0.00    +0.191 C 
ATOM      8  C   UNL     1      -5.824  -9.789  16.629  0.00  0.00    +0.091 C 
ATOM      9  C   UNL     1      -5.893 -10.650  14.282  0.00  0.00    +0.059 A 
ATOM     10  C   UNL     1      -4.545 -11.245  14.259  0.00  0.00    +0.163 C 
ATOM     11  C   UNL     1      -6.496 -10.002  15.331  0.00  0.00    +0.066 A 
ATOM     13  C   UNL     1      -7.919  -9.986  13.762  0.00  0.00    +0.200 A 
ATOM     15  C   UNL     1      -2.423 -10.967  15.615  0.00  0.00    +0.213 C 
ATOM     17  C   UNL     1      -1.678 -11.373  14.367  0.00  0.00    +0.109 C 
ENDROOT
BRANCH   7  14
ATOM      2  O   UNL     1      -4.522 -13.136  16.774  0.00  0.00    -0.249 OA
ATOM     14  C   UNL     1      -5.005 -12.103  17.219  0.00  0.00    +0.328 C 
BRANCH  14   1
ATOM      1  O   UNL     1      -5.968 -12.008  18.180  0.00  0.00    -0.467 OA
ATOM     20  C   UNL     1      -7.036 -12.955  18.077  0.00  0.00    +0.280 C 
ENDBRANCH  14   1
ENDBRANCH   7  14
BRANCH   5  12
ATOM     12  C   UNL     1      -6.673 -11.201  11.957  0.00  0.00    +0.158 C 
BRANCH  12  16
ATOM     16  C   UNL     1      -5.728 -10.389  11.112  0.00  0.00    -0.028 A 
ATOM     18  C   UNL     1      -4.585 -10.986  10.598  0.00  0.00    +0.005 A 
ATOM     19  C   UNL     1      -6.013  -9.054  10.858  0.00  0.00    +0.005 A 
ATOM     21  C   UNL     1      -3.709 -10.233   9.815  0.00  0.00    +0.000 A 
ATOM     22  C   UNL     1      -5.138  -8.302  10.075  0.00  0.00    +0.000 A 
ATOM     23  C   UNL     1      -3.986  -8.890   9.553  0.00  0.00    +0.000 A 
ENDBRANCH  12  16
ENDBRANCH   5  12
TORSDOF 4
ENDMDL
