MODEL 1
REMARK VINA RESULT:      -7.4      0.000      0.000
REMARK  Name = 7674751
REMARK  5 active torsions:
REMARK  status: ('A' for Active; 'I' for Inactive)
REMARK    1  A    between atoms: O_6  and  C_32
REMARK    2  A    between atoms: O_6  and  C_33
REMARK    3  A    between atoms: N_7  and  C_16
REMARK    4  A    between atoms: C_16  and  C_21
REMARK    5  A    between atoms: C_19  and  C_22
REMARK                            x       y       z     vdW  Elec       q    Type
REMARK                         _______ _______ _______ _____ _____    ______ ____
ROOT
ATOM      5  O   UNL     1      -6.339 -11.926  11.306  0.00  0.00    -0.267 OA
ATOM      7  N   UNL     1      -3.126 -11.070  15.059  0.00  0.00    -0.297 NA
ATOM      8  N   UNL     1      -4.163 -11.692  12.108  0.00  0.00    -0.311 N 
ATOM      9  C   UNL     1      -3.155 -13.270  13.858  0.00  0.00    +0.024 C 
ATOM     10  C   UNL     1      -1.811 -11.429  12.966  0.00  0.00    +0.050 C 
ATOM     11  C   UNL     1      -1.832 -12.940  13.179  0.00  0.00    +0.017 C 
ATOM     12  C   UNL     1      -3.258 -12.525  15.205  0.00  0.00    +0.090 C 
ATOM     13  C   UNL     1      -1.899 -10.713  14.333  0.00  0.00    +0.094 C 
ATOM     14  C   UNL     1      -4.303 -12.922  12.901  0.00  0.00    +0.130 C 
ATOM     15  C   UNL     1      -2.953 -10.995  12.066  0.00  0.00    +0.026 A 
ATOM     17  C   UNL     1      -2.812  -9.939  11.248  0.00  0.00    +0.022 A 
ATOM     18  C   UNL     1      -5.269 -11.317  11.321  0.00  0.00    +0.259 A 
ATOM     19  C   UNL     1      -5.092 -10.109  10.440  0.00  0.00    +0.047 A 
ATOM     20  C   UNL     1      -3.902  -9.489  10.430  0.00  0.00    +0.015 A 
ENDROOT
BRANCH  19  22
ATOM     22  C   UNL     1      -6.198  -9.601   9.609  0.00  0.00    -0.012 A 
ATOM     25  C   UNL     1      -6.191  -9.815   8.230  0.00  0.00    +0.012 A 
ATOM     26  C   UNL     1      -7.253  -8.906  10.199  0.00  0.00    +0.012 A 
ATOM     30  C   UNL     1      -7.237  -9.334   7.443  0.00  0.00    +0.046 A 
ATOM     31  C   UNL     1      -8.301  -8.425   9.413  0.00  0.00    +0.046 A 
ATOM     32  C   UNL     1      -8.292  -8.639   8.035  0.00  0.00    +0.130 A 
BRANCH  32   6
ATOM      6  O   UNL     1      -9.312  -8.169   7.267  0.00  0.00    -0.406 OA
BRANCH   6  33
ATOM      2  F   UNL     1     -10.368  -6.173   6.906  0.00  0.00    -0.133 F 
ATOM      3  F   UNL     1      -8.953  -6.923   5.419  0.00  0.00    -0.133 F 
ATOM      4  F   UNL     1      -8.198  -6.172   7.328  0.00  0.00    -0.133 F 
ATOM     33  C   UNL     1      -9.211  -6.850   6.745  0.00  0.00    +0.575 C 
ENDBRANCH   6  33
ENDBRANCH  32   6
ENDBRANCH  19  22
BRANCH   7  16
ATOM     16  C   UNL     1      -3.176 -10.407  16.359  0.00  0.00    +0.119 C 
BRANCH  16  21
ATOM      1  F   UNL     1      -8.464  -9.967  18.213  0.00  0.00    -0.205 F 
ATOM     21  C   UNL     1      -4.591 -10.290  16.855  0.00  0.00    -0.033 A 
ATOM     23  C   UNL     1      -4.917 -10.776  18.113  0.00  0.00    +0.008 A 
ATOM     24  C   UNL     1      -5.553  -9.696  16.048  0.00  0.00    +0.008 A 
ATOM     27  C   UNL     1      -6.230 -10.668  18.573  0.00  0.00    +0.038 A 
ATOM     28  C   UNL     1      -6.864  -9.587  16.508  0.00  0.00    +0.038 A 
ATOM     29  C   UNL     1      -7.203 -10.072  17.771  0.00  0.00    +0.123 A 
ENDBRANCH  16  21
ENDBRANCH   7  16
TORSDOF 5
ENDMDL
MODEL 2
REMARK VINA RESULT:      -7.4     23.366     25.538
REMARK  Name = 7674751
REMARK  5 active torsions:
REMARK  status: ('A' for Active; 'I' for Inactive)
REMARK    1  A    between atoms: O_6  and  C_32
REMARK    2  A    between atoms: O_6  and  C_33
REMARK    3  A    between atoms: N_7  and  C_16
REMARK    4  A    between atoms: C_16  and  C_21
REMARK    5  A    between atoms: C_19  and  C_22
REMARK                            x       y       z     vdW  Elec       q    Type
REMARK                         _______ _______ _______ _____ _____    ______ ____
ROOT
ATOM      5  O   UNL     1      10.393   4.084   3.146  0.00  0.00    -0.267 OA
ATOM      7  N   UNL     1       9.004   8.045   5.888  0.00  0.00    -0.297 NA
ATOM      8  N   UNL     1      10.835   5.675   4.792  0.00  0.00    -0.311 N 
ATOM      9  C   UNL     1       9.484   5.832   6.964  0.00  0.00    +0.024 C 
ATOM     10  C   UNL     1      11.322   7.398   6.561  0.00  0.00    +0.050 C 
ATOM     11  C   UNL     1      10.777   6.377   7.555  0.00  0.00    +0.017 C 
ATOM     12  C   UNL     1       8.475   6.980   6.750  0.00  0.00    +0.090 C 
ATOM     13  C   UNL     1      10.297   8.542   6.382  0.00  0.00    +0.094 C 
ATOM     14  C   UNL     1       9.811   5.083   5.665  0.00  0.00    +0.130 C 
ATOM     15  C   UNL     1      11.623   6.743   5.226  0.00  0.00    +0.026 A 
ATOM     17  C   UNL     1      12.628   7.194   4.458  0.00  0.00    +0.022 A 
ATOM     18  C   UNL     1      11.045   5.048   3.548  0.00  0.00    +0.259 A 
ATOM     19  C   UNL     1      12.156   5.599   2.694  0.00  0.00    +0.047 A 
ATOM     20  C   UNL     1      12.890   6.615   3.171  0.00  0.00    +0.015 A 
ENDROOT
BRANCH  19  22
ATOM     22  C   UNL     1      12.435   5.048   1.355  0.00  0.00    -0.012 A 
ATOM     25  C   UNL     1      13.363   4.017   1.204  0.00  0.00    +0.012 A 
ATOM     26  C   UNL     1      11.772   5.557   0.239  0.00  0.00    +0.012 A 
ATOM     30  C   UNL     1      13.628   3.496  -0.062  0.00  0.00    +0.046 A 
ATOM     31  C   UNL     1      12.036   5.037  -1.028  0.00  0.00    +0.046 A 
ATOM     32  C   UNL     1      12.964   4.006  -1.178  0.00  0.00    +0.130 A 
BRANCH  32   6
ATOM      6  O   UNL     1      13.223   3.499  -2.414  0.00  0.00    -0.406 OA
BRANCH   6  33
ATOM      2  F   UNL     1      12.125   1.520  -2.081  0.00  0.00    -0.133 F 
ATOM      3  F   UNL     1      12.857   2.019  -4.079  0.00  0.00    -0.133 F 
ATOM      4  F   UNL     1      11.139   3.101  -3.270  0.00  0.00    -0.133 F 
ATOM     33  C   UNL     1      12.323   2.536  -2.949  0.00  0.00    +0.575 C 
ENDBRANCH   6  33
ENDBRANCH  32   6
ENDBRANCH  19  22
BRANCH   7  16
ATOM     16  C   UNL     1       8.042   9.136   5.754  0.00  0.00    +0.119 C 
BRANCH  16  21
ATOM      1  F   UNL     1       6.341   9.689   0.425  0.00  0.00    -0.205 F 
ATOM     21  C   UNL     1       7.588   9.285   4.327  0.00  0.00    -0.033 A 
ATOM     23  C   UNL     1       8.329   8.702   3.309  0.00  0.00    +0.008 A 
ATOM     24  C   UNL     1       6.432  10.003   4.048  0.00  0.00    +0.008 A 
ATOM     27  C   UNL     1       7.907   8.839   1.986  0.00  0.00    +0.038 A 
ATOM     28  C   UNL     1       6.011  10.140   2.726  0.00  0.00    +0.038 A 
ATOM     29  C   UNL     1       6.747   9.557   1.695  0.00  0.00    +0.123 A 
ENDBRANCH  16  21
ENDBRANCH   7  16
TORSDOF 5
ENDMDL
MODEL 3
REMARK VINA RESULT:      -7.2     17.957     21.298
REMARK  Name = 7674751
REMARK  5 active torsions:
REMARK  status: ('A' for Active; 'I' for Inactive)
REMARK    1  A    between atoms: O_6  and  C_32
REMARK    2  A    between atoms: O_6  and  C_33
REMARK    3  A    between atoms: N_7  and  C_16
REMARK    4  A    between atoms: C_16  and  C_21
REMARK    5  A    between atoms: C_19  and  C_22
REMARK                            x       y       z     vdW  Elec       q    Type
REMARK                         _______ _______ _______ _____ _____    ______ ____
ROOT
ATOM      5  O   UNL     1      -6.610   9.533   5.114  0.00  0.00    -0.267 OA
ATOM      7  N   UNL     1      -1.863  10.321   3.704  0.00  0.00    -0.297 NA
ATOM      8  N   UNL     1      -4.319   9.227   5.419  0.00  0.00    -0.311 N 
ATOM      9  C   UNL     1      -2.716  11.167   5.904  0.00  0.00    +0.024 C 
ATOM     10  C   UNL     1      -1.847   8.884   5.747  0.00  0.00    +0.050 C 
ATOM     11  C   UNL     1      -1.902  10.115   6.647  0.00  0.00    +0.017 C 
ATOM     12  C   UNL     1      -2.042  11.502   4.557  0.00  0.00    +0.090 C 
ATOM     13  C   UNL     1      -1.153   9.248   4.414  0.00  0.00    +0.094 C 
ATOM     14  C   UNL     1      -4.152  10.653   5.735  0.00  0.00    +0.130 C 
ATOM     15  C   UNL     1      -3.240   8.342   5.487  0.00  0.00    +0.026 A 
ATOM     17  C   UNL     1      -3.436   7.026   5.306  0.00  0.00    +0.022 A 
ATOM     18  C   UNL     1      -5.630   8.788   5.149  0.00  0.00    +0.259 A 
ATOM     19  C   UNL     1      -5.813   7.312   4.916  0.00  0.00    +0.047 A 
ATOM     20  C   UNL     1      -4.742   6.509   5.010  0.00  0.00    +0.015 A 
ENDROOT
BRANCH  19  22
ATOM     22  C   UNL     1      -7.133   6.749   4.581  0.00  0.00    -0.012 A 
ATOM     25  C   UNL     1      -7.864   7.271   3.513  0.00  0.00    +0.012 A 
ATOM     26  C   UNL     1      -7.653   5.694   5.330  0.00  0.00    +0.012 A 
ATOM     30  C   UNL     1      -9.114   6.738   3.196  0.00  0.00    +0.046 A 
ATOM     31  C   UNL     1      -8.902   5.161   5.014  0.00  0.00    +0.046 A 
ATOM     32  C   UNL     1      -9.633   5.683   3.947  0.00  0.00    +0.130 A 
BRANCH  32   6
ATOM      6  O   UNL     1     -10.852   5.164   3.638  0.00  0.00    -0.406 OA
BRANCH   6  33
ATOM      2  F   UNL     1     -13.072   5.688   3.807  0.00  0.00    -0.133 F 
ATOM      3  F   UNL     1     -11.654   6.553   5.227  0.00  0.00    -0.133 F 
ATOM      4  F   UNL     1     -12.150   4.429   5.373  0.00  0.00    -0.133 F 
ATOM     33  C   UNL     1     -11.943   5.445   4.507  0.00  0.00    +0.575 C 
ENDBRANCH   6  33
ENDBRANCH  32   6
ENDBRANCH  19  22
BRANCH   7  16
ATOM     16  C   UNL     1      -1.176  10.670   2.463  0.00  0.00    +0.119 C 
BRANCH  16  21
ATOM      1  F   UNL     1      -4.239   9.224  -2.022  0.00  0.00    -0.205 F 
ATOM     21  C   UNL     1      -1.995  10.285   1.262  0.00  0.00    -0.033 A 
ATOM     23  C   UNL     1      -1.380   9.659   0.187  0.00  0.00    +0.008 A 
ATOM     24  C   UNL     1      -3.357  10.557   1.246  0.00  0.00    +0.008 A 
ATOM     27  C   UNL     1      -2.140   9.300  -0.927  0.00  0.00    +0.038 A 
ATOM     28  C   UNL     1      -4.116  10.198   0.133  0.00  0.00    +0.038 A 
ATOM     29  C   UNL     1      -3.508   9.569  -0.953  0.00  0.00    +0.123 A 
ENDBRANCH  16  21
ENDBRANCH   7  16
TORSDOF 5
ENDMDL
MODEL 4
REMARK VINA RESULT:      -7.1     23.855     25.932
REMARK  Name = 7674751
REMARK  5 active torsions:
REMARK  status: ('A' for Active; 'I' for Inactive)
REMARK    1  A    between atoms: O_6  and  C_32
REMARK    2  A    between atoms: O_6  and  C_33
REMARK    3  A    between atoms: N_7  and  C_16
REMARK    4  A    between atoms: C_16  and  C_21
REMARK    5  A    between atoms: C_19  and  C_22
REMARK                            x       y       z     vdW  Elec       q    Type
REMARK                         _______ _______ _______ _____ _____    ______ ____
ROOT
ATOM      5  O   UNL     1       9.900   7.368   1.965  0.00  0.00    -0.267 OA
ATOM      7  N   UNL     1      10.819   8.404   6.784  0.00  0.00    -0.297 NA
ATOM      8  N   UNL     1       9.556   6.962   4.235  0.00  0.00    -0.311 N 
ATOM      9  C   UNL     1       8.528   8.702   5.811  0.00  0.00    +0.024 C 
ATOM     10  C   UNL     1       9.189   6.513   6.684  0.00  0.00    +0.050 C 
ATOM     11  C   UNL     1       8.021   7.489   6.580  0.00  0.00    +0.017 C 
ATOM     12  C   UNL     1       9.714   9.345   6.559  0.00  0.00    +0.090 C 
ATOM     13  C   UNL     1      10.354   7.179   7.452  0.00  0.00    +0.094 C 
ATOM     14  C   UNL     1       8.894   8.266   4.386  0.00  0.00    +0.130 C 
ATOM     15  C   UNL     1       9.648   6.072   5.307  0.00  0.00    +0.026 A 
ATOM     17  C   UNL     1      10.154   4.842   5.119  0.00  0.00    +0.022 A 
ATOM     18  C   UNL     1       9.995   6.622   2.940  0.00  0.00    +0.259 A 
ATOM     19  C   UNL     1      10.590   5.250   2.769  0.00  0.00    +0.047 A 
ATOM     20  C   UNL     1      10.637   4.432   3.831  0.00  0.00    +0.015 A 
ENDROOT
BRANCH  19  22
ATOM     22  C   UNL     1      11.122   4.805   1.468  0.00  0.00    -0.012 A 
ATOM     25  C   UNL     1      12.412   4.280   1.384  0.00  0.00    +0.012 A 
ATOM     26  C   UNL     1      10.337   4.908   0.320  0.00  0.00    +0.012 A 
ATOM     30  C   UNL     1      12.916   3.859   0.154  0.00  0.00    +0.046 A 
ATOM     31  C   UNL     1      10.840   4.487  -0.911  0.00  0.00    +0.046 A 
ATOM     32  C   UNL     1      12.130   3.962  -0.993  0.00  0.00    +0.130 A 
BRANCH  32   6
ATOM      6  O   UNL     1      12.622   3.552  -2.194  0.00  0.00    -0.406 OA
BRANCH   6  33
ATOM      2  F   UNL     1      10.814   2.487  -3.105  0.00  0.00    -0.133 F 
ATOM      3  F   UNL     1      12.190   1.367  -1.829  0.00  0.00    -0.133 F 
ATOM      4  F   UNL     1      12.837   1.967  -3.829  0.00  0.00    -0.133 F 
ATOM     33  C   UNL     1      12.111   2.349  -2.756  0.00  0.00    +0.575 C 
ENDBRANCH   6  33
ENDBRANCH  32   6
ENDBRANCH  19  22
BRANCH   7  16
ATOM     16  C   UNL     1      11.898   9.034   7.540  0.00  0.00    +0.119 C 
BRANCH  16  21
ATOM      1  F   UNL     1      16.876   8.135   5.088  0.00  0.00    -0.205 F 
ATOM     21  C   UNL     1      13.231   8.793   6.885  0.00  0.00    -0.033 A 
ATOM     23  C   UNL     1      13.676   7.492   6.699  0.00  0.00    +0.008 A 
ATOM     24  C   UNL     1      13.997   9.876   6.474  0.00  0.00    +0.008 A 
ATOM     27  C   UNL     1      14.912   7.269   6.091  0.00  0.00    +0.038 A 
ATOM     28  C   UNL     1      15.232   9.653   5.866  0.00  0.00    +0.038 A 
ATOM     29  C   UNL     1      15.689   8.349   5.673  0.00  0.00    +0.123 A 
ENDBRANCH  16  21
ENDBRANCH   7  16
TORSDOF 5
ENDMDL
MODEL 5
REMARK VINA RESULT:      -7.1     27.829     30.537
REMARK  Name = 7674751
REMARK  5 active torsions:
REMARK  status: ('A' for Active; 'I' for Inactive)
REMARK    1  A    between atoms: O_6  and  C_32
REMARK    2  A    between atoms: O_6  and  C_33
REMARK    3  A    between atoms: N_7  and  C_16
REMARK    4  A    between atoms: C_16  and  C_21
REMARK    5  A    between atoms: C_19  and  C_22
REMARK                            x       y       z     vdW  Elec       q    Type
REMARK                         _______ _______ _______ _____ _____    ______ ____
ROOT
ATOM      5  O   UNL     1      15.589   5.846  21.314  0.00  0.00    -0.267 OA
ATOM      7  N   UNL     1      12.436   9.160  19.259  0.00  0.00    -0.297 NA
ATOM      8  N   UNL     1      14.479   7.896  21.357  0.00  0.00    -0.311 N 
ATOM      9  C   UNL     1      11.926   8.086  21.466  0.00  0.00    +0.024 C 
ATOM     10  C   UNL     1      13.292  10.116  21.403  0.00  0.00    +0.050 C 
ATOM     11  C   UNL     1      12.201   9.396  22.191  0.00  0.00    +0.017 C 
ATOM     12  C   UNL     1      11.463   8.368  20.021  0.00  0.00    +0.090 C 
ATOM     13  C   UNL     1      12.793  10.398  19.967  0.00  0.00    +0.094 C 
ATOM     14  C   UNL     1      13.187   7.214  21.523  0.00  0.00    +0.130 C 
ATOM     15  C   UNL     1      14.565   9.290  21.367  0.00  0.00    +0.026 A 
ATOM     17  C   UNL     1      15.766   9.891  21.328  0.00  0.00    +0.022 A 
ATOM     18  C   UNL     1      15.623   7.077  21.292  0.00  0.00    +0.259 A 
ATOM     19  C   UNL     1      16.953   7.780  21.214  0.00  0.00    +0.047 A 
ATOM     20  C   UNL     1      16.973   9.121  21.244  0.00  0.00    +0.015 A 
ENDROOT
BRANCH  19  22
ATOM     22  C   UNL     1      18.212   7.022  21.097  0.00  0.00    -0.012 A 
ATOM     25  C   UNL     1      18.371   6.085  20.075  0.00  0.00    +0.012 A 
ATOM     26  C   UNL     1      19.245   7.242  22.006  0.00  0.00    +0.012 A 
ATOM     30  C   UNL     1      19.562   5.368  19.965  0.00  0.00    +0.046 A 
ATOM     31  C   UNL     1      20.437   6.526  21.897  0.00  0.00    +0.046 A 
ATOM     32  C   UNL     1      20.595   5.588  20.875  0.00  0.00    +0.130 A 
BRANCH  32   6
ATOM      6  O   UNL     1      21.757   4.889  20.768  0.00  0.00    -0.406 OA
BRANCH   6  33
ATOM      2  F   UNL     1      21.793   3.583  22.645  0.00  0.00    -0.133 F 
ATOM      3  F   UNL     1      22.946   2.973  20.892  0.00  0.00    -0.133 F 
ATOM      4  F   UNL     1      20.766   2.828  20.839  0.00  0.00    -0.133 F 
ATOM     33  C   UNL     1      21.799   3.568  21.295  0.00  0.00    +0.575 C 
ENDBRANCH   6  33
ENDBRANCH  32   6
ENDBRANCH  19  22
BRANCH   7  16
ATOM     16  C   UNL     1      11.939   9.450  17.917  0.00  0.00    +0.119 C 
BRANCH  16  21
ATOM      1  F   UNL     1      16.156  10.691  14.414  0.00  0.00    -0.205 F 
ATOM     21  C   UNL     1      13.069   9.782  16.980  0.00  0.00    -0.033 A 
ATOM     23  C   UNL     1      13.621   8.781  16.193  0.00  0.00    +0.008 A 
ATOM     24  C   UNL     1      13.543  11.086  16.914  0.00  0.00    +0.008 A 
ATOM     27  C   UNL     1      14.668   9.088  15.324  0.00  0.00    +0.038 A 
ATOM     28  C   UNL     1      14.589  11.393  16.045  0.00  0.00    +0.038 A 
ATOM     29  C   UNL     1      15.151  10.395  15.249  0.00  0.00    +0.123 A 
ENDBRANCH  16  21
ENDBRANCH   7  16
TORSDOF 5
ENDMDL
MODEL 6
REMARK VINA RESULT:      -7.0     19.625     22.026
REMARK  Name = 7674751
REMARK  5 active torsions:
REMARK  status: ('A' for Active; 'I' for Inactive)
REMARK    1  A    between atoms: O_6  and  C_32
REMARK    2  A    between atoms: O_6  and  C_33
REMARK    3  A    between atoms: N_7  and  C_16
REMARK    4  A    between atoms: C_16  and  C_21
REMARK    5  A    between atoms: C_19  and  C_22
REMARK                            x       y       z     vdW  Elec       q    Type
REMARK                         _______ _______ _______ _____ _____    ______ ____
ROOT
ATOM      5  O   UNL     1     -14.946   9.176  20.168  0.00  0.00    -0.267 OA
ATOM      7  N   UNL     1     -11.514   9.296  16.515  0.00  0.00    -0.297 NA
ATOM      8  N   UNL     1     -12.727   9.296  19.465  0.00  0.00    -0.311 N 
ATOM      9  C   UNL     1     -11.823  11.243  18.064  0.00  0.00    +0.024 C 
ATOM     10  C   UNL     1     -10.328   9.415  18.710  0.00  0.00    +0.050 C 
ATOM     11  C   UNL     1     -10.501  10.931  18.752  0.00  0.00    +0.017 C 
ATOM     12  C   UNL     1     -11.793  10.734  16.607  0.00  0.00    +0.090 C 
ATOM     13  C   UNL     1     -10.285   8.940  17.240  0.00  0.00    +0.094 C 
ATOM     14  C   UNL     1     -12.964  10.625  18.882  0.00  0.00    +0.130 C 
ATOM     15  C   UNL     1     -11.453   8.723  19.458  0.00  0.00    +0.026 A 
ATOM     17  C   UNL     1     -11.234   7.561  20.094  0.00  0.00    +0.022 A 
ATOM     18  C   UNL     1     -13.818   8.685  20.113  0.00  0.00    +0.259 A 
ATOM     19  C   UNL     1     -13.549   7.366  20.788  0.00  0.00    +0.047 A 
ATOM     20  C   UNL     1     -12.302   6.873  20.762  0.00  0.00    +0.015 A 
ENDROOT
BRANCH  19  22
ATOM     22  C   UNL     1     -14.628   6.617  21.458  0.00  0.00    -0.012 A 
ATOM     25  C   UNL     1     -15.562   5.911  20.701  0.00  0.00    +0.012 A 
ATOM     26  C   UNL     1     -14.714   6.614  22.850  0.00  0.00    +0.012 A 
ATOM     30  C   UNL     1     -16.583   5.202  21.334  0.00  0.00    +0.046 A 
ATOM     31  C   UNL     1     -15.734   5.905  23.485  0.00  0.00    +0.046 A 
ATOM     32  C   UNL     1     -16.669   5.199  22.726  0.00  0.00    +0.130 A 
BRANCH  32   6
ATOM      6  O   UNL     1     -17.664   4.509  23.345  0.00  0.00    -0.406 OA
BRANCH   6  33
ATOM      2  F   UNL     1     -18.118   2.667  24.623  0.00  0.00    -0.133 F 
ATOM      3  F   UNL     1     -16.198   2.810  23.590  0.00  0.00    -0.133 F 
ATOM      4  F   UNL     1     -18.012   2.443  22.427  0.00  0.00    -0.133 F 
ATOM     33  C   UNL     1     -17.516   3.102  23.496  0.00  0.00    +0.575 C 
ENDBRANCH   6  33
ENDBRANCH  32   6
ENDBRANCH  19  22
BRANCH   7  16
ATOM     16  C   UNL     1     -11.442   8.865  15.121  0.00  0.00    +0.119 C 
BRANCH  16  21
ATOM      1  F   UNL     1     -16.196   6.316  13.541  0.00  0.00    -0.205 F 
ATOM     21  C   UNL     1     -12.715   8.184  14.697  0.00  0.00    -0.033 A 
ATOM     23  C   UNL     1     -12.776   7.556  13.461  0.00  0.00    +0.008 A 
ATOM     24  C   UNL     1     -13.811   8.190  15.550  0.00  0.00    +0.008 A 
ATOM     27  C   UNL     1     -13.956   6.924  13.068  0.00  0.00    +0.038 A 
ATOM     28  C   UNL     1     -14.990   7.558  15.158  0.00  0.00    +0.038 A 
ATOM     29  C   UNL     1     -15.063   6.924  13.917  0.00  0.00    +0.123 A 
ENDBRANCH  16  21
ENDBRANCH   7  16
TORSDOF 5
ENDMDL
MODEL 7
REMARK VINA RESULT:      -6.9     29.483     31.743
REMARK  Name = 7674751
REMARK  5 active torsions:
REMARK  status: ('A' for Active; 'I' for Inactive)
REMARK    1  A    between atoms: O_6  and  C_32
REMARK    2  A    between atoms: O_6  and  C_33
REMARK    3  A    between atoms: N_7  and  C_16
REMARK    4  A    between atoms: C_16  and  C_21
REMARK    5  A    between atoms: C_19  and  C_22
REMARK                            x       y       z     vdW  Elec       q    Type
REMARK                         _______ _______ _______ _____ _____    ______ ____
ROOT
ATOM      5  O   UNL     1      17.351   8.855  21.942  0.00  0.00    -0.267 OA
ATOM      7  N   UNL     1      22.131   8.967  20.431  0.00  0.00    -0.297 NA
ATOM      8  N   UNL     1      19.434   7.836  21.704  0.00  0.00    -0.311 N 
ATOM      9  C   UNL     1      21.547   8.718  22.856  0.00  0.00    +0.024 C 
ATOM     10  C   UNL     1      21.678   6.726  21.439  0.00  0.00    +0.050 C 
ATOM     11  C   UNL     1      21.989   7.261  22.834  0.00  0.00    +0.017 C 
ATOM     12  C   UNL     1      22.310   9.518  21.780  0.00  0.00    +0.090 C 
ATOM     13  C   UNL     1      22.469   7.537  20.386  0.00  0.00    +0.094 C 
ATOM     14  C   UNL     1      20.025   8.776  22.667  0.00  0.00    +0.130 C 
ATOM     15  C   UNL     1      20.190   6.798  21.153  0.00  0.00    +0.026 A 
ATOM     17  C   UNL     1      19.603   5.884  20.363  0.00  0.00    +0.022 A 
ATOM     18  C   UNL     1      18.056   7.974  21.448  0.00  0.00    +0.259 A 
ATOM     19  C   UNL     1      17.434   6.954  20.532  0.00  0.00    +0.047 A 
ATOM     20  C   UNL     1      18.206   5.971  20.046  0.00  0.00    +0.015 A 
ENDROOT
BRANCH  19  22
ATOM     22  C   UNL     1      16.009   7.029  20.160  0.00  0.00    -0.012 A 
ATOM     25  C   UNL     1      15.645   7.289  18.839  0.00  0.00    +0.012 A 
ATOM     26  C   UNL     1      15.024   6.839  21.129  0.00  0.00    +0.012 A 
ATOM     30  C   UNL     1      14.297   7.360  18.488  0.00  0.00    +0.046 A 
ATOM     31  C   UNL     1      13.676   6.909  20.779  0.00  0.00    +0.046 A 
ATOM     32  C   UNL     1      13.313   7.170  19.457  0.00  0.00    +0.130 A 
BRANCH  32   6
ATOM      6  O   UNL     1      11.998   7.239  19.115  0.00  0.00    -0.406 OA
BRANCH   6  33
ATOM      2  F   UNL     1      10.521   8.204  20.571  0.00  0.00    -0.133 F 
ATOM      3  F   UNL     1      10.435   8.728  18.451  0.00  0.00    -0.133 F 
ATOM      4  F   UNL     1      12.101   9.457  19.664  0.00  0.00    -0.133 F 
ATOM     33  C   UNL     1      11.271   8.410  19.466  0.00  0.00    +0.575 C 
ENDBRANCH   6  33
ENDBRANCH  32   6
ENDBRANCH  19  22
BRANCH   7  16
ATOM     16  C   UNL     1      22.910   9.719  19.450  0.00  0.00    +0.119 C 
BRANCH  16  21
ATOM      1  F   UNL     1      19.751  13.609  16.903  0.00  0.00    -0.205 F 
ATOM     21  C   UNL     1      22.063  10.759  18.768  0.00  0.00    -0.033 A 
ATOM     23  C   UNL     1      21.076  11.417  19.488  0.00  0.00    +0.008 A 
ATOM     24  C   UNL     1      22.283  11.049  17.428  0.00  0.00    +0.008 A 
ATOM     27  C   UNL     1      20.291  12.382  18.856  0.00  0.00    +0.038 A 
ATOM     28  C   UNL     1      21.499  12.014  16.796  0.00  0.00    +0.038 A 
ATOM     29  C   UNL     1      20.504  12.681  17.510  0.00  0.00    +0.123 A 
ENDBRANCH  16  21
ENDBRANCH   7  16
TORSDOF 5
ENDMDL
MODEL 8
REMARK VINA RESULT:      -6.7     28.101     29.832
REMARK  Name = 7674751
REMARK  5 active torsions:
REMARK  status: ('A' for Active; 'I' for Inactive)
REMARK    1  A    between atoms: O_6  and  C_32
REMARK    2  A    between atoms: O_6  and  C_33
REMARK    3  A    between atoms: N_7  and  C_16
REMARK    4  A    between atoms: C_16  and  C_21
REMARK    5  A    between atoms: C_19  and  C_22
REMARK                            x       y       z     vdW  Elec       q    Type
REMARK                         _______ _______ _______ _____ _____    ______ ____
ROOT
ATOM      5  O   UNL     1      14.041  12.157  18.183  0.00  0.00    -0.267 OA
ATOM      7  N   UNL     1      13.829   7.960  20.919  0.00  0.00    -0.297 NA
ATOM      8  N   UNL     1      12.974  10.174  18.788  0.00  0.00    -0.311 N 
ATOM      9  C   UNL     1      12.086   9.747  21.153  0.00  0.00    +0.024 C 
ATOM     10  C   UNL     1      11.824   8.029  19.429  0.00  0.00    +0.050 C 
ATOM     11  C   UNL     1      11.060   8.868  20.450  0.00  0.00    +0.017 C 
ATOM     12  C   UNL     1      13.147   8.869  21.849  0.00  0.00    +0.090 C 
ATOM     13  C   UNL     1      12.866   7.150  20.158  0.00  0.00    +0.094 C 
ATOM     14  C   UNL     1      12.697  10.711  20.128  0.00  0.00    +0.130 C 
ATOM     15  C   UNL     1      12.504   8.916  18.404  0.00  0.00    +0.026 A 
ATOM     17  C   UNL     1      12.671   8.492  17.140  0.00  0.00    +0.022 A 
ATOM     18  C   UNL     1      13.642  11.029  17.890  0.00  0.00    +0.259 A 
ATOM     19  C   UNL     1      13.845  10.512  16.490  0.00  0.00    +0.047 A 
ATOM     20  C   UNL     1      13.357   9.303  16.175  0.00  0.00    +0.015 A 
ENDROOT
BRANCH  19  22
ATOM     22  C   UNL     1      14.571  11.304  15.481  0.00  0.00    -0.012 A 
ATOM     25  C   UNL     1      13.866  11.969  14.477  0.00  0.00    +0.012 A 
ATOM     26  C   UNL     1      15.962  11.389  15.528  0.00  0.00    +0.012 A 
ATOM     30  C   UNL     1      14.553  12.718  13.521  0.00  0.00    +0.046 A 
ATOM     31  C   UNL     1      16.649  12.138  14.573  0.00  0.00    +0.046 A 
ATOM     32  C   UNL     1      15.944  12.802  13.569  0.00  0.00    +0.130 A 
BRANCH  32   6
ATOM      6  O   UNL     1      16.614  13.533  12.637  0.00  0.00    -0.406 OA
BRANCH   6  33
ATOM      2  F   UNL     1      17.437  13.599  10.504  0.00  0.00    -0.133 F 
ATOM      3  F   UNL     1      16.612  11.730  11.278  0.00  0.00    -0.133 F 
ATOM      4  F   UNL     1      18.534  12.444  12.036  0.00  0.00    -0.133 F 
ATOM     33  C   UNL     1      17.314  12.837  11.612  0.00  0.00    +0.575 C 
ENDBRANCH   6  33
ENDBRANCH  32   6
ENDBRANCH  19  22
BRANCH   7  16
ATOM     16  C   UNL     1      14.786   7.111  21.623  0.00  0.00    +0.119 C 
BRANCH  16  21
ATOM      1  F   UNL     1      20.033   9.027  20.998  0.00  0.00    -0.205 F 
ATOM     21  C   UNL     1      16.190   7.623  21.457  0.00  0.00    -0.033 A 
ATOM     23  C   UNL     1      17.217   6.729  21.188  0.00  0.00    +0.008 A 
ATOM     24  C   UNL     1      16.440   8.985  21.572  0.00  0.00    +0.008 A 
ATOM     27  C   UNL     1      18.520   7.205  21.033  0.00  0.00    +0.038 A 
ATOM     28  C   UNL     1      17.742   9.460  21.417  0.00  0.00    +0.038 A 
ATOM     29  C   UNL     1      18.782   8.570  21.147  0.00  0.00    +0.123 A 
ENDBRANCH  16  21
ENDBRANCH   7  16
TORSDOF 5
ENDMDL
MODEL 9
REMARK VINA RESULT:      -6.6     21.594     25.335
REMARK  Name = 7674751
REMARK  5 active torsions:
REMARK  status: ('A' for Active; 'I' for Inactive)
REMARK    1  A    between atoms: O_6  and  C_32
REMARK    2  A    between atoms: O_6  and  C_33
REMARK    3  A    between atoms: N_7  and  C_16
REMARK    4  A    between atoms: C_16  and  C_21
REMARK    5  A    between atoms: C_19  and  C_22
REMARK                            x       y       z     vdW  Elec       q    Type
REMARK                         _______ _______ _______ _____ _____    ______ ____
ROOT
ATOM      5  O   UNL     1       9.368  -9.529  32.866  0.00  0.00    -0.267 OA
ATOM      7  N   UNL     1       8.031  -6.102  36.272  0.00  0.00    -0.297 NA
ATOM      8  N   UNL     1       8.585  -7.403  33.413  0.00  0.00    -0.311 N 
ATOM      9  C   UNL     1       9.980  -5.714  34.744  0.00  0.00    +0.024 C 
ATOM     10  C   UNL     1       7.728  -5.110  33.999  0.00  0.00    +0.050 C 
ATOM     11  C   UNL     1       9.189  -4.671  33.966  0.00  0.00    +0.017 C 
ATOM     12  C   UNL     1       9.465  -5.794  36.196  0.00  0.00    +0.090 C 
ATOM     13  C   UNL     1       7.237  -5.164  35.464  0.00  0.00    +0.094 C 
ATOM     14  C   UNL     1       9.884  -7.058  34.008  0.00  0.00    +0.130 C 
ATOM     15  C   UNL     1       7.556  -6.462  33.333  0.00  0.00    +0.026 A 
ATOM     17  C   UNL     1       6.418  -6.762  32.685  0.00  0.00    +0.022 A 
ATOM     18  C   UNL     1       8.471  -8.686  32.844  0.00  0.00    +0.259 A 
ATOM     19  C   UNL     1       7.171  -9.006  32.155  0.00  0.00    +0.047 A 
ATOM     20  C   UNL     1       6.225  -8.056  32.095  0.00  0.00    +0.015 A 
ENDROOT
BRANCH  19  22
ATOM     22  C   UNL     1       6.925 -10.333  31.563  0.00  0.00    -0.012 A 
ATOM     25  C   UNL     1       6.416 -11.366  32.350  0.00  0.00    +0.012 A 
ATOM     26  C   UNL     1       7.201 -10.558  30.214  0.00  0.00    +0.012 A 
ATOM     30  C   UNL     1       6.185 -12.622  31.790  0.00  0.00    +0.046 A 
ATOM     31  C   UNL     1       6.970 -11.813  29.653  0.00  0.00    +0.046 A 
ATOM     32  C   UNL     1       6.461 -12.846  30.442  0.00  0.00    +0.130 A 
BRANCH  32   6
ATOM      6  O   UNL     1       6.235 -14.071  29.895  0.00  0.00    -0.406 OA
BRANCH   6  33
ATOM      2  F   UNL     1       4.369 -15.313  30.351  0.00  0.00    -0.133 F 
ATOM      3  F   UNL     1       4.933 -14.947  28.272  0.00  0.00    -0.133 F 
ATOM      4  F   UNL     1       4.124 -13.303  29.464  0.00  0.00    -0.133 F 
ATOM     33  C   UNL     1       4.907 -14.403  29.510  0.00  0.00    +0.575 C 
ENDBRANCH   6  33
ENDBRANCH  32   6
ENDBRANCH  19  22
BRANCH   7  16
ATOM     16  C   UNL     1       7.571  -6.116  37.658  0.00  0.00    +0.119 C 
BRANCH  16  21
ATOM      1  F   UNL     1       2.533  -8.571  38.090  0.00  0.00    -0.205 F 
ATOM     21  C   UNL     1       6.223  -6.773  37.775  0.00  0.00    -0.033 A 
ATOM     23  C   UNL     1       5.203  -6.126  38.458  0.00  0.00    +0.008 A 
ATOM     24  C   UNL     1       6.016  -8.018  37.195  0.00  0.00    +0.008 A 
ATOM     27  C   UNL     1       3.953  -6.735  38.566  0.00  0.00    +0.038 A 
ATOM     28  C   UNL     1       4.766  -8.627  37.303  0.00  0.00    +0.038 A 
ATOM     29  C   UNL     1       3.734  -7.986  37.987  0.00  0.00    +0.123 A 
ENDBRANCH  16  21
ENDBRANCH   7  16
TORSDOF 5
ENDMDL
MODEL 10
REMARK VINA RESULT:      -6.5     28.889     31.155
REMARK  Name = 7674751
REMARK  5 active torsions:
REMARK  status: ('A' for Active; 'I' for Inactive)
REMARK    1  A    between atoms: O_6  and  C_32
REMARK    2  A    between atoms: O_6  and  C_33
REMARK    3  A    between atoms: N_7  and  C_16
REMARK    4  A    between atoms: C_16  and  C_21
REMARK    5  A    between atoms: C_19  and  C_22
REMARK                            x       y       z     vdW  Elec       q    Type
REMARK                         _______ _______ _______ _____ _____    ______ ____
ROOT
ATOM      5  O   UNL     1      18.097   5.169  19.702  0.00  0.00    -0.267 OA
ATOM      7  N   UNL     1      21.823   5.281  23.055  0.00  0.00    -0.297 NA
ATOM      8  N   UNL     1      19.943   6.224  20.658  0.00  0.00    -0.311 N 
ATOM      9  C   UNL     1      22.299   5.218  20.595  0.00  0.00    +0.024 C 
ATOM     10  C   UNL     1      21.929   7.374  21.694  0.00  0.00    +0.050 C 
ATOM     11  C   UNL     1      22.760   6.669  20.626  0.00  0.00    +0.017 C 
ATOM     12  C   UNL     1      22.515   4.565  21.976  0.00  0.00    +0.090 C 
ATOM     13  C   UNL     1      22.179   6.708  23.067  0.00  0.00    +0.094 C 
ATOM     14  C   UNL     1      20.834   5.174  20.143  0.00  0.00    +0.130 C 
ATOM     15  C   UNL     1      20.453   7.328  21.345  0.00  0.00    +0.026 A 
ATOM     17  C   UNL     1      19.637   8.331  21.708  0.00  0.00    +0.022 A 
ATOM     18  C   UNL     1      18.577   6.110  20.335  0.00  0.00    +0.259 A 
ATOM     19  C   UNL     1      17.681   7.234  20.785  0.00  0.00    +0.047 A 
ATOM     20  C   UNL     1      18.230   8.276  21.428  0.00  0.00    +0.015 A 
ENDROOT
BRANCH  19  22
ATOM     22  C   UNL     1      16.228   7.197  20.541  0.00  0.00    -0.012 A 
ATOM     25  C   UNL     1      15.339   7.172  21.616  0.00  0.00    +0.012 A 
ATOM     26  C   UNL     1      15.740   7.189  19.234  0.00  0.00    +0.012 A 
ATOM     30  C   UNL     1      13.964   7.137  21.384  0.00  0.00    +0.046 A 
ATOM     31  C   UNL     1      14.365   7.155  19.002  0.00  0.00    +0.046 A 
ATOM     32  C   UNL     1      13.477   7.129  20.078  0.00  0.00    +0.130 A 
BRANCH  32   6
ATOM      6  O   UNL     1      12.136   7.094  19.852  0.00  0.00    -0.406 OA
BRANCH   6  33
ATOM      2  F   UNL     1      10.423   8.300  20.770  0.00  0.00    -0.133 F 
ATOM      3  F   UNL     1      10.865   8.513  18.640  0.00  0.00    -0.133 F 
ATOM      4  F   UNL     1      12.243   9.365  20.107  0.00  0.00    -0.133 F 
ATOM     33  C   UNL     1      11.420   8.323  19.859  0.00  0.00    +0.575 C 
ENDBRANCH   6  33
ENDBRANCH  32   6
ENDBRANCH  19  22
BRANCH   7  16
ATOM     16  C   UNL     1      22.095   4.664  24.351  0.00  0.00    +0.119 C 
BRANCH  16  21
ATOM      1  F   UNL     1      25.837   0.498  23.873  0.00  0.00    -0.205 F 
ATOM     21  C   UNL     1      23.096   3.549  24.222  0.00  0.00    -0.033 A 
ATOM     23  C   UNL     1      24.450   3.850  24.163  0.00  0.00    +0.008 A 
ATOM     24  C   UNL     1      22.654   2.234  24.165  0.00  0.00    +0.008 A 
ATOM     27  C   UNL     1      25.379   2.816  24.044  0.00  0.00    +0.038 A 
ATOM     28  C   UNL     1      23.582   1.201  24.047  0.00  0.00    +0.038 A 
ATOM     29  C   UNL     1      24.945   1.491  23.987  0.00  0.00    +0.123 A 
ENDBRANCH  16  21
ENDBRANCH   7  16
TORSDOF 5
ENDMDL
