MODEL 1
REMARK VINA RESULT:      -6.3      0.000      0.000
REMARK  Name = 26744634
REMARK  11 active torsions:
REMARK  status: ('A' for Active; 'I' for Inactive)
REMARK    1  A    between atoms: O_2  and  C_10
REMARK    2  A    between atoms: O_3  and  C_11
REMARK    3  A    between atoms: O_6  and  C_26
REMARK    4  A    between atoms: O_6  and  C_30
REMARK    5  A    between atoms: N_7  and  C_15
REMARK    6  A    between atoms: N_8  and  C_18
REMARK    7  A    between atoms: C_12  and  C_14
REMARK    8  A    between atoms: C_13  and  C_15
REMARK    9  A    between atoms: C_14  and  C_16
REMARK   10  A    between atoms: C_17  and  C_19
REMARK   11  A    between atoms: C_18  and  C_20
REMARK                            x       y       z     vdW  Elec       q    Type
REMARK                         _______ _______ _______ _____ _____    ______ ____
ROOT
ATOM      1  O   UNL     1      11.666  11.678  22.085  0.00  0.00    -0.366 OA
ATOM     10  C   UNL     1      10.705  12.014  24.234  0.00  0.00    +0.175 C 
ATOM     11  C   UNL     1      12.106  12.588  24.215  0.00  0.00    +0.176 C 
ATOM     12  C   UNL     1      10.718  11.102  23.013  0.00  0.00    +0.158 C 
ATOM     13  C   UNL     1      12.338  12.777  22.726  0.00  0.00    +0.167 C 
ENDROOT
BRANCH  10   2
ATOM      2  O   UNL     1       9.744  13.044  24.007  0.00  0.00    -0.387 OA
ATOM     31  H   UNL     1      10.209  13.788  23.587  0.00  0.00    +0.210 HD
ENDBRANCH  10   2
BRANCH  11   3
ATOM      3  O   UNL     1      12.224  13.800  24.928  0.00  0.00    -0.387 OA
ATOM     32  H   UNL     1      13.161  14.059  24.914  0.00  0.00    +0.210 HD
ENDBRANCH  11   3
BRANCH  12  14
ATOM     14  C   UNL     1      11.178   9.686  23.330  0.00  0.00    +0.130 C 
BRANCH  14  16
ATOM      4  O   UNL     1      10.331   7.597  22.454  0.00  0.00    -0.276 OA
ATOM      8  N   UNL     1      11.138   9.200  20.978  0.00  0.00    -0.310 N 
ATOM     16  C   UNL     1      10.826   8.698  22.233  0.00  0.00    +0.216 C 
ATOM     34  H   UNL     1      11.529  10.135  20.901  0.00  0.00    +0.149 HD
BRANCH   8  18
ATOM     18  C   UNL     1      10.909   8.465  19.756  0.00  0.00    +0.159 C 
BRANCH  18  20
ATOM      9  N   UNL     1      12.380   7.422  18.129  0.00  0.00    -0.258 NA
ATOM     20  C   UNL     1      12.083   8.542  18.825  0.00  0.00    +0.058 A 
ATOM     23  C   UNL     1      12.792   9.729  18.722  0.00  0.00    +0.025 A 
ATOM     27  C   UNL     1      13.874   9.768  17.850  0.00  0.00    +0.003 A 
ATOM     28  C   UNL     1      13.438   7.497  17.291  0.00  0.00    +0.111 A 
ATOM     29  C   UNL     1      14.210   8.634  17.116  0.00  0.00    +0.020 A 
ENDBRANCH  18  20
ENDBRANCH   8  18
ENDBRANCH  14  16
ENDBRANCH  12  14
BRANCH  13  15
ATOM     15  C   UNL     1      13.806  12.774  22.339  0.00  0.00    +0.138 C 
BRANCH  15   7
ATOM      5  O   UNL     1      14.859  10.453  23.661  0.00  0.00    -0.270 OA
ATOM      7  N   UNL     1      14.177  11.535  21.725  0.00  0.00    -0.309 N 
ATOM     17  C   UNL     1      14.682  10.456  22.445  0.00  0.00    +0.244 C 
ATOM     33  H   UNL     1      14.005  11.449  20.729  0.00  0.00    +0.149 HD
BRANCH  17  19
ATOM     19  C   UNL     1      15.044   9.250  21.657  0.00  0.00    +0.037 A 
ATOM     21  C   UNL     1      14.310   8.073  21.805  0.00  0.00    +0.016 A 
ATOM     22  C   UNL     1      16.119   9.294  20.769  0.00  0.00    +0.016 A 
ATOM     24  C   UNL     1      14.651   6.940  21.067  0.00  0.00    +0.046 A 
ATOM     25  C   UNL     1      16.461   8.161  20.031  0.00  0.00    +0.046 A 
ATOM     26  C   UNL     1      15.727   6.984  20.180  0.00  0.00    +0.120 A 
BRANCH  26   6
ATOM      6  O   UNL     1      16.061   5.879  19.458  0.00  0.00    -0.495 OA
ATOM     30  C   UNL     1      17.389   5.817  18.942  0.00  0.00    +0.277 C 
ENDBRANCH  26   6
ENDBRANCH  17  19
ENDBRANCH  15   7
ENDBRANCH  13  15
TORSDOF 10
ENDMDL
MODEL 2
REMARK VINA RESULT:      -6.1      2.584      5.175
REMARK  Name = 26744634
REMARK  11 active torsions:
REMARK  status: ('A' for Active; 'I' for Inactive)
REMARK    1  A    between atoms: O_2  and  C_10
REMARK    2  A    between atoms: O_3  and  C_11
REMARK    3  A    between atoms: O_6  and  C_26
REMARK    4  A    between atoms: O_6  and  C_30
REMARK    5  A    between atoms: N_7  and  C_15
REMARK    6  A    between atoms: N_8  and  C_18
REMARK    7  A    between atoms: C_12  and  C_14
REMARK    8  A    between atoms: C_13  and  C_15
REMARK    9  A    between atoms: C_14  and  C_16
REMARK   10  A    between atoms: C_17  and  C_19
REMARK   11  A    between atoms: C_18  and  C_20
REMARK                            x       y       z     vdW  Elec       q    Type
REMARK                         _______ _______ _______ _____ _____    ______ ____
ROOT
ATOM      1  O   UNL     1      13.033   8.796  21.810  0.00  0.00    -0.366 OA
ATOM     10  C   UNL     1      10.786   9.398  22.302  0.00  0.00    +0.175 C 
ATOM     11  C   UNL     1      10.799   8.101  21.518  0.00  0.00    +0.176 C 
ATOM     12  C   UNL     1      12.184   9.944  22.036  0.00  0.00    +0.158 C 
ATOM     13  C   UNL     1      12.217   7.612  21.763  0.00  0.00    +0.167 C 
ENDROOT
BRANCH  10   2
ATOM      2  O   UNL     1      10.673   9.131  23.699  0.00  0.00    -0.387 OA
ATOM     31  H   UNL     1      11.214   9.790  24.166  0.00  0.00    +0.210 HD
ENDBRANCH  10   2
BRANCH  11   3
ATOM      3  O   UNL     1       9.834   7.171  21.961  0.00  0.00    -0.387 OA
ATOM     32  H   UNL     1       9.260   7.627  22.600  0.00  0.00    +0.210 HD
ENDBRANCH  11   3
BRANCH  12  14
ATOM     14  C   UNL     1      12.254  10.827  20.798  0.00  0.00    +0.130 C 
BRANCH  14  16
ATOM      4  O   UNL     1      13.417  10.157  18.785  0.00  0.00    -0.276 OA
ATOM      8  N   UNL     1      14.651  10.774  20.655  0.00  0.00    -0.310 N 
ATOM     16  C   UNL     1      13.480  10.544  19.949  0.00  0.00    +0.216 C 
ATOM     34  H   UNL     1      14.595  11.114  21.611  0.00  0.00    +0.149 HD
BRANCH   8  18
ATOM     18  C   UNL     1      15.966  10.581  20.087  0.00  0.00    +0.159 C 
BRANCH  18  20
ATOM      9  N   UNL     1      16.712  11.624  22.149  0.00  0.00    -0.258 NA
ATOM     20  C   UNL     1      17.055  10.879  21.075  0.00  0.00    +0.058 A 
ATOM     23  C   UNL     1      18.330  10.387  20.849  0.00  0.00    +0.025 A 
ATOM     27  C   UNL     1      19.317  10.679  21.785  0.00  0.00    +0.003 A 
ATOM     28  C   UNL     1      17.696  11.888  23.038  0.00  0.00    +0.111 A 
ATOM     29  C   UNL     1      19.001  11.443  22.903  0.00  0.00    +0.020 A 
ENDBRANCH  18  20
ENDBRANCH   8  18
ENDBRANCH  14  16
ENDBRANCH  12  14
BRANCH  13  15
ATOM     15  C   UNL     1      12.728   6.681  20.679  0.00  0.00    +0.138 C 
BRANCH  15   7
ATOM      5  O   UNL     1      14.673   7.188  18.628  0.00  0.00    -0.270 OA
ATOM      7  N   UNL     1      14.145   6.497  20.780  0.00  0.00    -0.309 N 
ATOM     17  C   UNL     1      15.019   6.769  19.730  0.00  0.00    +0.244 C 
ATOM     33  H   UNL     1      14.505   6.206  21.682  0.00  0.00    +0.149 HD
BRANCH  17  19
ATOM     19  C   UNL     1      16.457   6.501  19.986  0.00  0.00    +0.037 A 
ATOM     21  C   UNL     1      17.204   5.764  19.066  0.00  0.00    +0.016 A 
ATOM     22  C   UNL     1      17.061   6.986  21.146  0.00  0.00    +0.016 A 
ATOM     24  C   UNL     1      18.553   5.510  19.308  0.00  0.00    +0.046 A 
ATOM     25  C   UNL     1      18.412   6.732  21.387  0.00  0.00    +0.046 A 
ATOM     26  C   UNL     1      19.157   5.994  20.468  0.00  0.00    +0.120 A 
BRANCH  26   6
ATOM      6  O   UNL     1      20.475   5.748  20.704  0.00  0.00    -0.495 OA
ATOM     30  C   UNL     1      20.924   4.404  20.540  0.00  0.00    +0.277 C 
ENDBRANCH  26   6
ENDBRANCH  17  19
ENDBRANCH  15   7
ENDBRANCH  13  15
TORSDOF 10
ENDMDL
MODEL 3
REMARK VINA RESULT:      -6.0      2.211      4.852
REMARK  Name = 26744634
REMARK  11 active torsions:
REMARK  status: ('A' for Active; 'I' for Inactive)
REMARK    1  A    between atoms: O_2  and  C_10
REMARK    2  A    between atoms: O_3  and  C_11
REMARK    3  A    between atoms: O_6  and  C_26
REMARK    4  A    between atoms: O_6  and  C_30
REMARK    5  A    between atoms: N_7  and  C_15
REMARK    6  A    between atoms: N_8  and  C_18
REMARK    7  A    between atoms: C_12  and  C_14
REMARK    8  A    between atoms: C_13  and  C_15
REMARK    9  A    between atoms: C_14  and  C_16
REMARK   10  A    between atoms: C_17  and  C_19
REMARK   11  A    between atoms: C_18  and  C_20
REMARK                            x       y       z     vdW  Elec       q    Type
REMARK                         _______ _______ _______ _____ _____    ______ ____
ROOT
ATOM      1  O   UNL     1      12.892   9.550  22.582  0.00  0.00    -0.366 OA
ATOM     10  C   UNL     1      12.513  11.604  23.718  0.00  0.00    +0.175 C 
ATOM     11  C   UNL     1      11.257  11.204  22.972  0.00  0.00    +0.176 C 
ATOM     12  C   UNL     1      13.573  10.739  23.045  0.00  0.00    +0.158 C 
ATOM     13  C   UNL     1      11.477   9.712  22.786  0.00  0.00    +0.167 C 
ENDROOT
BRANCH  10   2
ATOM      2  O   UNL     1      12.424  11.211  25.087  0.00  0.00    -0.387 OA
ATOM     31  H   UNL     1      13.307  10.914  25.363  0.00  0.00    +0.210 HD
ENDBRANCH  10   2
BRANCH  11   3
ATOM      3  O   UNL     1      10.071  11.480  23.687  0.00  0.00    -0.387 OA
ATOM     32  H   UNL     1       9.323  11.297  23.093  0.00  0.00    +0.210 HD
ENDBRANCH  11   3
BRANCH  12  14
ATOM     14  C   UNL     1      14.213  11.410  21.838  0.00  0.00    +0.130 C 
BRANCH  14  16
ATOM      4  O   UNL     1      16.544  12.034  21.677  0.00  0.00    -0.276 OA
ATOM      8  N   UNL     1      15.976   9.782  21.741  0.00  0.00    -0.310 N 
ATOM     16  C   UNL     1      15.703  11.142  21.744  0.00  0.00    +0.216 C 
ATOM     34  H   UNL     1      15.208   9.122  21.821  0.00  0.00    +0.149 HD
BRANCH   8  18
ATOM     18  C   UNL     1      17.315   9.246  21.658  0.00  0.00    +0.159 C 
BRANCH  18  20
ATOM      9  N   UNL     1      18.519   7.290  20.868  0.00  0.00    -0.258 NA
ATOM     20  C   UNL     1      17.373   8.004  20.817  0.00  0.00    +0.058 A 
ATOM     23  C   UNL     1      16.275   7.655  20.047  0.00  0.00    +0.025 A 
ATOM     27  C   UNL     1      16.359   6.497  19.280  0.00  0.00    +0.003 A 
ATOM     28  C   UNL     1      18.565   6.172  20.110  0.00  0.00    +0.111 A 
ATOM     29  C   UNL     1      17.524   5.736  19.307  0.00  0.00    +0.020 A 
ENDBRANCH  18  20
ENDBRANCH   8  18
ENDBRANCH  14  16
ENDBRANCH  12  14
BRANCH  13  15
ATOM     15  C   UNL     1      10.721   9.136  21.603  0.00  0.00    +0.138 C 
BRANCH  15   7
ATOM      5  O   UNL     1      11.603   7.065  19.819  0.00  0.00    -0.270 OA
ATOM      7  N   UNL     1      11.454   9.311  20.384  0.00  0.00    -0.309 N 
ATOM     17  C   UNL     1      11.843   8.245  19.577  0.00  0.00    +0.244 C 
ATOM     33  H   UNL     1      11.638  10.265  20.095  0.00  0.00    +0.149 HD
BRANCH  17  19
ATOM     19  C   UNL     1      12.620   8.592  18.359  0.00  0.00    +0.037 A 
ATOM     21  C   UNL     1      13.349   7.607  17.692  0.00  0.00    +0.016 A 
ATOM     22  C   UNL     1      12.623   9.903  17.884  0.00  0.00    +0.016 A 
ATOM     24  C   UNL     1      14.080   7.933  16.551  0.00  0.00    +0.046 A 
ATOM     25  C   UNL     1      13.355  10.229  16.742  0.00  0.00    +0.046 A 
ATOM     26  C   UNL     1      14.083   9.244  16.076  0.00  0.00    +0.120 A 
BRANCH  26   6
ATOM      6  O   UNL     1      14.797   9.564  14.961  0.00  0.00    -0.495 OA
ATOM     30  C   UNL     1      15.473  10.820  14.961  0.00  0.00    +0.277 C 
ENDBRANCH  26   6
ENDBRANCH  17  19
ENDBRANCH  15   7
ENDBRANCH  13  15
TORSDOF 10
ENDMDL
MODEL 4
REMARK VINA RESULT:      -5.9      2.604      4.561
REMARK  Name = 26744634
REMARK  11 active torsions:
REMARK  status: ('A' for Active; 'I' for Inactive)
REMARK    1  A    between atoms: O_2  and  C_10
REMARK    2  A    between atoms: O_3  and  C_11
REMARK    3  A    between atoms: O_6  and  C_26
REMARK    4  A    between atoms: O_6  and  C_30
REMARK    5  A    between atoms: N_7  and  C_15
REMARK    6  A    between atoms: N_8  and  C_18
REMARK    7  A    between atoms: C_12  and  C_14
REMARK    8  A    between atoms: C_13  and  C_15
REMARK    9  A    between atoms: C_14  and  C_16
REMARK   10  A    between atoms: C_17  and  C_19
REMARK   11  A    between atoms: C_18  and  C_20
REMARK                            x       y       z     vdW  Elec       q    Type
REMARK                         _______ _______ _______ _____ _____    ______ ____
ROOT
ATOM      1  O   UNL     1      12.993   8.849  21.789  0.00  0.00    -0.366 OA
ATOM     10  C   UNL     1      10.768   9.399  22.425  0.00  0.00    +0.175 C 
ATOM     11  C   UNL     1      10.756   8.124  21.608  0.00  0.00    +0.176 C 
ATOM     12  C   UNL     1      12.140   9.976  22.093  0.00  0.00    +0.158 C 
ATOM     13  C   UNL     1      12.193   7.653  21.758  0.00  0.00    +0.167 C 
ENDROOT
BRANCH  10   2
ATOM      2  O   UNL     1      10.741   9.095  23.819  0.00  0.00    -0.387 OA
ATOM     31  H   UNL     1      10.026   8.453  23.963  0.00  0.00    +0.210 HD
ENDBRANCH  10   2
BRANCH  11   3
ATOM      3  O   UNL     1       9.833   7.166  22.081  0.00  0.00    -0.387 OA
ATOM     32  H   UNL     1       9.399   6.771  21.305  0.00  0.00    +0.210 HD
ENDBRANCH  11   3
BRANCH  12  14
ATOM     14  C   UNL     1      12.124  10.891  20.877  0.00  0.00    +0.130 C 
BRANCH  14  16
ATOM      4  O   UNL     1      14.186  12.149  20.995  0.00  0.00    -0.276 OA
ATOM      8  N   UNL     1      13.919  10.567  19.314  0.00  0.00    -0.310 N 
ATOM     16  C   UNL     1      13.518  11.289  20.428  0.00  0.00    +0.216 C 
ATOM     34  H   UNL     1      13.296   9.862  18.930  0.00  0.00    +0.149 HD
BRANCH   8  18
ATOM     18  C   UNL     1      15.203  10.748  18.677  0.00  0.00    +0.159 C 
BRANCH  18  20
ATOM      9  N   UNL     1      15.465  12.583  17.108  0.00  0.00    -0.258 NA
ATOM     20  C   UNL     1      15.070  11.303  17.289  0.00  0.00    +0.058 A 
ATOM     23  C   UNL     1      14.561  10.499  16.282  0.00  0.00    +0.025 A 
ATOM     27  C   UNL     1      14.452  11.043  15.007  0.00  0.00    +0.003 A 
ATOM     28  C   UNL     1      15.344  13.079  15.857  0.00  0.00    +0.111 A 
ATOM     29  C   UNL     1      14.849  12.358  14.782  0.00  0.00    +0.020 A 
ENDBRANCH  18  20
ENDBRANCH   8  18
ENDBRANCH  14  16
ENDBRANCH  12  14
BRANCH  13  15
ATOM     15  C   UNL     1      12.655   6.759  20.621  0.00  0.00    +0.138 C 
BRANCH  15   7
ATOM      5  O   UNL     1      14.628   7.472  18.661  0.00  0.00    -0.270 OA
ATOM      7  N   UNL     1      14.064   6.511  20.697  0.00  0.00    -0.309 N 
ATOM     17  C   UNL     1      14.953   6.893  19.695  0.00  0.00    +0.244 C 
ATOM     33  H   UNL     1      14.408   6.086  21.550  0.00  0.00    +0.149 HD
BRANCH  17  19
ATOM     19  C   UNL     1      16.379   6.541  19.912  0.00  0.00    +0.037 A 
ATOM     21  C   UNL     1      17.045   6.995  21.051  0.00  0.00    +0.016 A 
ATOM     22  C   UNL     1      17.054   5.758  18.975  0.00  0.00    +0.016 A 
ATOM     24  C   UNL     1      18.385   6.667  21.253  0.00  0.00    +0.046 A 
ATOM     25  C   UNL     1      18.395   5.429  19.178  0.00  0.00    +0.046 A 
ATOM     26  C   UNL     1      19.060   5.884  20.317  0.00  0.00    +0.120 A 
BRANCH  26   6
ATOM      6  O   UNL     1      20.368   5.562  20.514  0.00  0.00    -0.495 OA
ATOM     30  C   UNL     1      21.204   6.565  21.087  0.00  0.00    +0.277 C 
ENDBRANCH  26   6
ENDBRANCH  17  19
ENDBRANCH  15   7
ENDBRANCH  13  15
TORSDOF 10
ENDMDL
MODEL 5
REMARK VINA RESULT:      -5.8      2.666      5.495
REMARK  Name = 26744634
REMARK  11 active torsions:
REMARK  status: ('A' for Active; 'I' for Inactive)
REMARK    1  A    between atoms: O_2  and  C_10
REMARK    2  A    between atoms: O_3  and  C_11
REMARK    3  A    between atoms: O_6  and  C_26
REMARK    4  A    between atoms: O_6  and  C_30
REMARK    5  A    between atoms: N_7  and  C_15
REMARK    6  A    between atoms: N_8  and  C_18
REMARK    7  A    between atoms: C_12  and  C_14
REMARK    8  A    between atoms: C_13  and  C_15
REMARK    9  A    between atoms: C_14  and  C_16
REMARK   10  A    between atoms: C_17  and  C_19
REMARK   11  A    between atoms: C_18  and  C_20
REMARK                            x       y       z     vdW  Elec       q    Type
REMARK                         _______ _______ _______ _____ _____    ______ ____
ROOT
ATOM      1  O   UNL     1      13.275   8.547  21.785  0.00  0.00    -0.366 OA
ATOM     10  C   UNL     1      11.153   9.421  22.407  0.00  0.00    +0.175 C 
ATOM     11  C   UNL     1      10.968   8.366  21.336  0.00  0.00    +0.176 C 
ATOM     12  C   UNL     1      12.636   9.747  22.280  0.00  0.00    +0.158 C 
ATOM     13  C   UNL     1      12.262   7.580  21.456  0.00  0.00    +0.167 C 
ENDROOT
BRANCH  10   2
ATOM      2  O   UNL     1      10.933   8.858  23.700  0.00  0.00    -0.387 OA
ATOM     31  H   UNL     1       9.992   8.980  23.914  0.00  0.00    +0.210 HD
ENDBRANCH  10   2
BRANCH  11   3
ATOM      3  O   UNL     1       9.833   7.553  21.543  0.00  0.00    -0.387 OA
ATOM     32  H   UNL     1       9.862   6.837  20.885  0.00  0.00    +0.210 HD
ENDBRANCH  11   3
BRANCH  12  14
ATOM     14  C   UNL     1      12.918  10.868  21.289  0.00  0.00    +0.130 C 
BRANCH  14  16
ATOM      4  O   UNL     1      14.829  11.780  20.120  0.00  0.00    -0.276 OA
ATOM      8  N   UNL     1      15.165  10.153  21.745  0.00  0.00    -0.310 N 
ATOM     16  C   UNL     1      14.395  11.005  20.968  0.00  0.00    +0.216 C 
ATOM     34  H   UNL     1      14.709   9.563  22.435  0.00  0.00    +0.149 HD
BRANCH   8  18
ATOM     18  C   UNL     1      16.605  10.077  21.643  0.00  0.00    +0.159 C 
BRANCH  18  20
ATOM      9  N   UNL     1      16.261   8.120  20.246  0.00  0.00    -0.258 NA
ATOM     20  C   UNL     1      17.063   8.740  21.140  0.00  0.00    +0.058 A 
ATOM     23  C   UNL     1      18.260   8.214  21.603  0.00  0.00    +0.025 A 
ATOM     27  C   UNL     1      18.657   6.974  21.116  0.00  0.00    +0.003 A 
ATOM     28  C   UNL     1      16.679   6.916  19.796  0.00  0.00    +0.111 A 
ATOM     29  C   UNL     1      17.857   6.306  20.195  0.00  0.00    +0.020 A 
ENDBRANCH  18  20
ENDBRANCH   8  18
ENDBRANCH  14  16
ENDBRANCH  12  14
BRANCH  13  15
ATOM     15  C   UNL     1      12.645   6.853  20.180  0.00  0.00    +0.138 C 
BRANCH  15   7
ATOM      5  O   UNL     1      11.727   7.307  17.498  0.00  0.00    -0.270 OA
ATOM      7  N   UNL     1      13.214   7.753  19.222  0.00  0.00    -0.309 N 
ATOM     17  C   UNL     1      12.702   7.910  17.937  0.00  0.00    +0.244 C 
ATOM     33  H   UNL     1      13.990   8.325  19.537  0.00  0.00    +0.149 HD
BRANCH  17  19
ATOM     19  C   UNL     1      13.422   8.864  17.054  0.00  0.00    +0.037 A 
ATOM     21  C   UNL     1      13.415  10.228  17.348  0.00  0.00    +0.016 A 
ATOM     22  C   UNL     1      14.103   8.397  15.931  0.00  0.00    +0.016 A 
ATOM     24  C   UNL     1      14.088  11.124  16.518  0.00  0.00    +0.046 A 
ATOM     25  C   UNL     1      14.777   9.293  15.101  0.00  0.00    +0.046 A 
ATOM     26  C   UNL     1      14.769  10.656  15.395  0.00  0.00    +0.120 A 
BRANCH  26   6
ATOM      6  O   UNL     1      15.428  11.530  14.584  0.00  0.00    -0.495 OA
ATOM     30  C   UNL     1      16.836  11.653  14.770  0.00  0.00    +0.277 C 
ENDBRANCH  26   6
ENDBRANCH  17  19
ENDBRANCH  15   7
ENDBRANCH  13  15
TORSDOF 10
ENDMDL
MODEL 6
REMARK VINA RESULT:      -5.8     26.652     29.574
REMARK  Name = 26744634
REMARK  11 active torsions:
REMARK  status: ('A' for Active; 'I' for Inactive)
REMARK    1  A    between atoms: O_2  and  C_10
REMARK    2  A    between atoms: O_3  and  C_11
REMARK    3  A    between atoms: O_6  and  C_26
REMARK    4  A    between atoms: O_6  and  C_30
REMARK    5  A    between atoms: N_7  and  C_15
REMARK    6  A    between atoms: N_8  and  C_18
REMARK    7  A    between atoms: C_12  and  C_14
REMARK    8  A    between atoms: C_13  and  C_15
REMARK    9  A    between atoms: C_14  and  C_16
REMARK   10  A    between atoms: C_17  and  C_19
REMARK   11  A    between atoms: C_18  and  C_20
REMARK                            x       y       z     vdW  Elec       q    Type
REMARK                         _______ _______ _______ _____ _____    ______ ____
ROOT
ATOM      1  O   UNL     1     -15.700   2.907  24.643  0.00  0.00    -0.366 OA
ATOM     10  C   UNL     1     -17.591   2.590  23.236  0.00  0.00    +0.175 C 
ATOM     11  C   UNL     1     -16.950   3.927  22.924  0.00  0.00    +0.176 C 
ATOM     12  C   UNL     1     -16.994   2.262  24.600  0.00  0.00    +0.158 C 
ATOM     13  C   UNL     1     -15.547   3.727  23.471  0.00  0.00    +0.167 C 
ENDROOT
BRANCH  10   2
ATOM      2  O   UNL     1     -17.147   1.600  22.309  0.00  0.00    -0.387 OA
ATOM     31  H   UNL     1     -17.836   1.510  21.628  0.00  0.00    +0.210 HD
ENDBRANCH  10   2
BRANCH  11   3
ATOM      3  O   UNL     1     -16.943   4.235  21.547  0.00  0.00    -0.387 OA
ATOM     32  H   UNL     1     -17.854   4.463  21.294  0.00  0.00    +0.210 HD
ENDBRANCH  11   3
BRANCH  12  14
ATOM     14  C   UNL     1     -17.822   2.799  25.759  0.00  0.00    +0.130 C 
BRANCH  14  16
ATOM      4  O   UNL     1     -16.964   4.783  26.843  0.00  0.00    -0.276 OA
ATOM      8  N   UNL     1     -16.260   2.695  27.580  0.00  0.00    -0.310 N 
ATOM     16  C   UNL     1     -16.984   3.558  26.771  0.00  0.00    +0.216 C 
ATOM     34  H   UNL     1     -16.362   1.693  27.452  0.00  0.00    +0.149 HD
BRANCH   8  18
ATOM     18  C   UNL     1     -15.377   3.152  28.629  0.00  0.00    +0.159 C 
BRANCH  18  20
ATOM      9  N   UNL     1     -14.777   2.570  30.910  0.00  0.00    -0.258 NA
ATOM     20  C   UNL     1     -15.208   2.123  29.709  0.00  0.00    +0.058 A 
ATOM     23  C   UNL     1     -15.494   0.796  29.433  0.00  0.00    +0.025 A 
ATOM     27  C   UNL     1     -15.329  -0.132  30.456  0.00  0.00    +0.003 A 
ATOM     28  C   UNL     1     -14.628   1.640  31.879  0.00  0.00    +0.111 A 
ATOM     29  C   UNL     1     -14.887   0.291  31.705  0.00  0.00    +0.020 A 
ENDBRANCH  18  20
ENDBRANCH   8  18
ENDBRANCH  14  16
ENDBRANCH  12  14
BRANCH  13  15
ATOM     15  C   UNL     1     -14.856   5.026  23.844  0.00  0.00    +0.138 C 
BRANCH  15   7
ATOM      5  O   UNL     1     -15.639   7.134  22.058  0.00  0.00    -0.270 OA
ATOM      7  N   UNL     1     -14.096   5.543  22.744  0.00  0.00    -0.309 N 
ATOM     17  C   UNL     1     -14.555   6.571  21.926  0.00  0.00    +0.244 C 
ATOM     33  H   UNL     1     -13.166   5.160  22.612  0.00  0.00    +0.149 HD
BRANCH  17  19
ATOM     19  C   UNL     1     -13.659   6.975  20.812  0.00  0.00    +0.037 A 
ATOM     21  C   UNL     1     -14.192   7.561  19.664  0.00  0.00    +0.016 A 
ATOM     22  C   UNL     1     -12.283   6.767  20.914  0.00  0.00    +0.016 A 
ATOM     24  C   UNL     1     -13.352   7.938  18.618  0.00  0.00    +0.046 A 
ATOM     25  C   UNL     1     -11.442   7.144  19.867  0.00  0.00    +0.046 A 
ATOM     26  C   UNL     1     -11.976   7.729  18.719  0.00  0.00    +0.120 A 
BRANCH  26   6
ATOM      6  O   UNL     1     -11.154   8.098  17.698  0.00  0.00    -0.495 OA
ATOM     30  C   UNL     1     -10.211   9.134  17.966  0.00  0.00    +0.277 C 
ENDBRANCH  26   6
ENDBRANCH  17  19
ENDBRANCH  15   7
ENDBRANCH  13  15
TORSDOF 10
ENDMDL
MODEL 7
REMARK VINA RESULT:      -5.7     14.788     18.210
REMARK  Name = 26744634
REMARK  11 active torsions:
REMARK  status: ('A' for Active; 'I' for Inactive)
REMARK    1  A    between atoms: O_2  and  C_10
REMARK    2  A    between atoms: O_3  and  C_11
REMARK    3  A    between atoms: O_6  and  C_26
REMARK    4  A    between atoms: O_6  and  C_30
REMARK    5  A    between atoms: N_7  and  C_15
REMARK    6  A    between atoms: N_8  and  C_18
REMARK    7  A    between atoms: C_12  and  C_14
REMARK    8  A    between atoms: C_13  and  C_15
REMARK    9  A    between atoms: C_14  and  C_16
REMARK   10  A    between atoms: C_17  and  C_19
REMARK   11  A    between atoms: C_18  and  C_20
REMARK                            x       y       z     vdW  Elec       q    Type
REMARK                         _______ _______ _______ _____ _____    ______ ____
ROOT
ATOM      1  O   UNL     1      10.989   6.828   7.471  0.00  0.00    -0.366 OA
ATOM     10  C   UNL     1       9.639   4.891   7.751  0.00  0.00    +0.175 C 
ATOM     11  C   UNL     1       9.963   5.070   6.282  0.00  0.00    +0.176 C 
ATOM     12  C   UNL     1       9.958   6.269   8.317  0.00  0.00    +0.158 C 
ATOM     13  C   UNL     1      11.197   5.953   6.348  0.00  0.00    +0.167 C 
ENDROOT
BRANCH  10   2
ATOM      2  O   UNL     1      10.533   3.950   8.344  0.00  0.00    -0.387 OA
ATOM     31  H   UNL     1      11.433   4.190   8.067  0.00  0.00    +0.210 HD
ENDBRANCH  10   2
BRANCH  11   3
ATOM      3  O   UNL     1      10.217   3.853   5.613  0.00  0.00    -0.387 OA
ATOM     32  H   UNL     1      10.655   3.259   6.245  0.00  0.00    +0.210 HD
ENDBRANCH  11   3
BRANCH  12  14
ATOM     14  C   UNL     1       8.767   7.217   8.288  0.00  0.00    +0.130 C 
BRANCH  14  16
ATOM      4  O   UNL     1       9.674   9.454   8.139  0.00  0.00    -0.276 OA
ATOM      8  N   UNL     1       8.615   8.535   6.286  0.00  0.00    -0.310 N 
ATOM     16  C   UNL     1       9.082   8.528   7.592  0.00  0.00    +0.216 C 
ATOM     34  H   UNL     1       8.152   7.708   5.921  0.00  0.00    +0.149 HD
BRANCH   8  18
ATOM     18  C   UNL     1       8.778   9.662   5.396  0.00  0.00    +0.159 C 
BRANCH  18  20
ATOM      9  N   UNL     1      10.293   9.895   3.512  0.00  0.00    -0.258 NA
ATOM     20  C   UNL     1       9.232   9.238   4.030  0.00  0.00    +0.058 A 
ATOM     23  C   UNL     1       8.560   8.216   3.378  0.00  0.00    +0.025 A 
ATOM     27  C   UNL     1       9.006   7.846   2.114  0.00  0.00    +0.003 A 
ATOM     28  C   UNL     1      10.699   9.509   2.282  0.00  0.00    +0.111 A 
ATOM     29  C   UNL     1      10.096   8.500   1.549  0.00  0.00    +0.020 A 
ENDBRANCH  18  20
ENDBRANCH   8  18
ENDBRANCH  14  16
ENDBRANCH  12  14
BRANCH  13  15
ATOM     15  C   UNL     1      11.415   6.777   5.092  0.00  0.00    +0.138 C 
BRANCH  15   7
ATOM      5  O   UNL     1      13.450   6.956   3.074  0.00  0.00    -0.270 OA
ATOM      7  N   UNL     1      11.553   5.938   3.939  0.00  0.00    -0.309 N 
ATOM     17  C   UNL     1      12.575   6.097   3.007  0.00  0.00    +0.244 C 
ATOM     33  H   UNL     1      10.896   5.171   3.851  0.00  0.00    +0.149 HD
BRANCH  17  19
ATOM     19  C   UNL     1      12.564   5.161   1.853  0.00  0.00    +0.037 A 
ATOM     21  C   UNL     1      11.394   4.976   1.116  0.00  0.00    +0.016 A 
ATOM     22  C   UNL     1      13.723   4.466   1.508  0.00  0.00    +0.016 A 
ATOM     24  C   UNL     1      11.383   4.096   0.035  0.00  0.00    +0.046 A 
ATOM     25  C   UNL     1      13.712   3.585   0.426  0.00  0.00    +0.046 A 
ATOM     26  C   UNL     1      12.542   3.400  -0.310  0.00  0.00    +0.120 A 
BRANCH  26   6
ATOM      6  O   UNL     1      12.533   2.541  -1.366  0.00  0.00    -0.495 OA
ATOM     30  C   UNL     1      11.541   2.756  -2.369  0.00  0.00    +0.277 C 
ENDBRANCH  26   6
ENDBRANCH  17  19
ENDBRANCH  15   7
ENDBRANCH  13  15
TORSDOF 10
ENDMDL
MODEL 8
REMARK VINA RESULT:      -5.5     14.077     17.598
REMARK  Name = 26744634
REMARK  11 active torsions:
REMARK  status: ('A' for Active; 'I' for Inactive)
REMARK    1  A    between atoms: O_2  and  C_10
REMARK    2  A    between atoms: O_3  and  C_11
REMARK    3  A    between atoms: O_6  and  C_26
REMARK    4  A    between atoms: O_6  and  C_30
REMARK    5  A    between atoms: N_7  and  C_15
REMARK    6  A    between atoms: N_8  and  C_18
REMARK    7  A    between atoms: C_12  and  C_14
REMARK    8  A    between atoms: C_13  and  C_15
REMARK    9  A    between atoms: C_14  and  C_16
REMARK   10  A    between atoms: C_17  and  C_19
REMARK   11  A    between atoms: C_18  and  C_20
REMARK                            x       y       z     vdW  Elec       q    Type
REMARK                         _______ _______ _______ _____ _____    ______ ____
ROOT
ATOM      1  O   UNL     1      10.983   6.902   7.332  0.00  0.00    -0.366 OA
ATOM     10  C   UNL     1       9.653   4.943   7.553  0.00  0.00    +0.175 C 
ATOM     11  C   UNL     1      10.033   5.132   6.098  0.00  0.00    +0.176 C 
ATOM     12  C   UNL     1       9.927   6.325   8.135  0.00  0.00    +0.158 C 
ATOM     13  C   UNL     1      11.249   6.034   6.216  0.00  0.00    +0.167 C 
ENDROOT
BRANCH  10   2
ATOM      2  O   UNL     1      10.537   4.015   8.179  0.00  0.00    -0.387 OA
ATOM     31  H   UNL     1      11.003   3.535   7.473  0.00  0.00    +0.210 HD
ENDBRANCH  10   2
BRANCH  11   3
ATOM      3  O   UNL     1      10.333   3.921   5.437  0.00  0.00    -0.387 OA
ATOM     32  H   UNL     1      11.206   3.628   5.748  0.00  0.00    +0.210 HD
ENDBRANCH  11   3
BRANCH  12  14
ATOM     14  C   UNL     1       8.723   7.253   8.060  0.00  0.00    +0.130 C 
BRANCH  14  16
ATOM      4  O   UNL     1       8.793   9.041   6.433  0.00  0.00    -0.276 OA
ATOM      8  N   UNL     1       9.778   9.363   8.513  0.00  0.00    -0.310 N 
ATOM     16  C   UNL     1       9.085   8.638   7.555  0.00  0.00    +0.216 C 
ATOM     34  H   UNL     1       9.953   8.944   9.421  0.00  0.00    +0.149 HD
BRANCH   8  18
ATOM     18  C   UNL     1      10.246  10.713   8.294  0.00  0.00    +0.159 C 
BRANCH  18  20
ATOM      9  N   UNL     1       8.834  12.653   7.921  0.00  0.00    -0.258 NA
ATOM     20  C   UNL     1       9.276  11.735   8.809  0.00  0.00    +0.058 A 
ATOM     23  C   UNL     1       8.884  11.691  10.138  0.00  0.00    +0.025 A 
ATOM     27  C   UNL     1       7.983  12.652  10.583  0.00  0.00    +0.003 A 
ATOM     28  C   UNL     1       7.960  13.571   8.388  0.00  0.00    +0.111 A 
ATOM     29  C   UNL     1       7.507  13.613   9.697  0.00  0.00    +0.020 A 
ENDBRANCH  18  20
ENDBRANCH   8  18
ENDBRANCH  14  16
ENDBRANCH  12  14
BRANCH  13  15
ATOM     15  C   UNL     1      11.505   6.865   4.972  0.00  0.00    +0.138 C 
BRANCH  15   7
ATOM      5  O   UNL     1      10.034   6.709   2.511  0.00  0.00    -0.270 OA
ATOM      7  N   UNL     1      11.807   6.033   3.846  0.00  0.00    -0.309 N 
ATOM     17  C   UNL     1      11.036   6.021   2.687  0.00  0.00    +0.244 C 
ATOM     33  H   UNL     1      12.654   5.478   3.902  0.00  0.00    +0.149 HD
BRANCH  17  19
ATOM     19  C   UNL     1      11.468   5.082   1.620  0.00  0.00    +0.037 A 
ATOM     21  C   UNL     1      10.713   4.958   0.452  0.00  0.00    +0.016 A 
ATOM     22  C   UNL     1      12.627   4.324   1.785  0.00  0.00    +0.016 A 
ATOM     24  C   UNL     1      11.117   4.075  -0.548  0.00  0.00    +0.046 A 
ATOM     25  C   UNL     1      13.031   3.441   0.783  0.00  0.00    +0.046 A 
ATOM     26  C   UNL     1      12.276   3.316  -0.383  0.00  0.00    +0.120 A 
BRANCH  26   6
ATOM      6  O   UNL     1      12.672   2.454  -1.359  0.00  0.00    -0.495 OA
ATOM     30  C   UNL     1      11.874   2.401  -2.540  0.00  0.00    +0.277 C 
ENDBRANCH  26   6
ENDBRANCH  17  19
ENDBRANCH  15   7
ENDBRANCH  13  15
TORSDOF 10
ENDMDL
MODEL 9
REMARK VINA RESULT:      -5.4     26.484     28.807
REMARK  Name = 26744634
REMARK  11 active torsions:
REMARK  status: ('A' for Active; 'I' for Inactive)
REMARK    1  A    between atoms: O_2  and  C_10
REMARK    2  A    between atoms: O_3  and  C_11
REMARK    3  A    between atoms: O_6  and  C_26
REMARK    4  A    between atoms: O_6  and  C_30
REMARK    5  A    between atoms: N_7  and  C_15
REMARK    6  A    between atoms: N_8  and  C_18
REMARK    7  A    between atoms: C_12  and  C_14
REMARK    8  A    between atoms: C_13  and  C_15
REMARK    9  A    between atoms: C_14  and  C_16
REMARK   10  A    between atoms: C_17  and  C_19
REMARK   11  A    between atoms: C_18  and  C_20
REMARK                            x       y       z     vdW  Elec       q    Type
REMARK                         _______ _______ _______ _____ _____    ______ ____
ROOT
ATOM      1  O   UNL     1      -3.657 -10.185  16.643  0.00  0.00    -0.366 OA
ATOM     10  C   UNL     1      -4.940 -12.187  16.681  0.00  0.00    +0.175 C 
ATOM     11  C   UNL     1      -3.970 -12.234  15.518  0.00  0.00    +0.176 C 
ATOM     12  C   UNL     1      -4.952 -10.702  17.025  0.00  0.00    +0.158 C 
ATOM     13  C   UNL     1      -2.929 -11.214  15.949  0.00  0.00    +0.167 C 
ENDROOT
BRANCH  10   2
ATOM      2  O   UNL     1      -4.408 -12.897  17.798  0.00  0.00    -0.387 OA
ATOM     31  H   UNL     1      -3.455 -13.014  17.642  0.00  0.00    +0.210 HD
ENDBRANCH  10   2
BRANCH  11   3
ATOM      3  O   UNL     1      -3.407 -13.511  15.311  0.00  0.00    -0.387 OA
ATOM     32  H   UNL     1      -3.903 -14.142  15.860  0.00  0.00    +0.210 HD
ENDBRANCH  11   3
BRANCH  12  14
ATOM     14  C   UNL     1      -6.011  -9.921  16.260  0.00  0.00    +0.130 C 
BRANCH  14  16
ATOM      4  O   UNL     1      -7.327  -9.922  18.289  0.00  0.00    -0.276 OA
ATOM      8  N   UNL     1      -8.122  -8.787  16.423  0.00  0.00    -0.310 N 
ATOM     16  C   UNL     1      -7.206  -9.560  17.122  0.00  0.00    +0.216 C 
ATOM     34  H   UNL     1      -7.918  -8.524  15.463  0.00  0.00    +0.149 HD
BRANCH   8  18
ATOM     18  C   UNL     1      -9.354  -8.305  17.005  0.00  0.00    +0.159 C 
BRANCH  18  20
ATOM      9  N   UNL     1     -10.633  -8.657  14.970  0.00  0.00    -0.258 NA
ATOM     20  C   UNL     1     -10.307  -7.798  15.962  0.00  0.00    +0.058 A 
ATOM     23  C   UNL     1     -10.798  -6.506  16.062  0.00  0.00    +0.025 A 
ATOM     27  C   UNL     1     -11.680  -6.067  15.081  0.00  0.00    +0.003 A 
ATOM     28  C   UNL     1     -11.493  -8.196  14.034  0.00  0.00    +0.111 A 
ATOM     29  C   UNL     1     -12.039  -6.923  14.044  0.00  0.00    +0.020 A 
ENDBRANCH  18  20
ENDBRANCH   8  18
ENDBRANCH  14  16
ENDBRANCH  12  14
BRANCH  13  15
ATOM     15  C   UNL     1      -2.165 -10.605  14.787  0.00  0.00    +0.138 C 
BRANCH  15   7
ATOM      5  O   UNL     1      -1.638 -10.782  11.970  0.00  0.00    -0.270 OA
ATOM      7  N   UNL     1      -3.051 -10.229  13.725  0.00  0.00    -0.309 N 
ATOM     17  C   UNL     1      -2.712 -10.349  12.380  0.00  0.00    +0.244 C 
ATOM     33  H   UNL     1      -3.977  -9.915  13.993  0.00  0.00    +0.149 HD
BRANCH  17  19
ATOM     19  C   UNL     1      -3.731  -9.892  11.402  0.00  0.00    +0.037 A 
ATOM     21  C   UNL     1      -5.085  -9.924  11.738  0.00  0.00    +0.016 A 
ATOM     22  C   UNL     1      -3.335  -9.432  10.146  0.00  0.00    +0.016 A 
ATOM     24  C   UNL     1      -6.042  -9.497  10.818  0.00  0.00    +0.046 A 
ATOM     25  C   UNL     1      -4.293  -9.005   9.226  0.00  0.00    +0.046 A 
ATOM     26  C   UNL     1      -5.646  -9.038   9.562  0.00  0.00    +0.120 A 
BRANCH  26   6
ATOM      6  O   UNL     1      -6.580  -8.620   8.663  0.00  0.00    -0.495 OA
ATOM     30  C   UNL     1      -6.729  -9.394   7.475  0.00  0.00    +0.277 C 
ENDBRANCH  26   6
ENDBRANCH  17  19
ENDBRANCH  15   7
ENDBRANCH  13  15
TORSDOF 10
ENDMDL
MODEL 10
REMARK VINA RESULT:      -5.4     26.686     29.744
REMARK  Name = 26744634
REMARK  11 active torsions:
REMARK  status: ('A' for Active; 'I' for Inactive)
REMARK    1  A    between atoms: O_2  and  C_10
REMARK    2  A    between atoms: O_3  and  C_11
REMARK    3  A    between atoms: O_6  and  C_26
REMARK    4  A    between atoms: O_6  and  C_30
REMARK    5  A    between atoms: N_7  and  C_15
REMARK    6  A    between atoms: N_8  and  C_18
REMARK    7  A    between atoms: C_12  and  C_14
REMARK    8  A    between atoms: C_13  and  C_15
REMARK    9  A    between atoms: C_14  and  C_16
REMARK   10  A    between atoms: C_17  and  C_19
REMARK   11  A    between atoms: C_18  and  C_20
REMARK                            x       y       z     vdW  Elec       q    Type
REMARK                         _______ _______ _______ _____ _____    ______ ____
ROOT
ATOM      1  O   UNL     1      -5.833 -11.016  16.554  0.00  0.00    -0.366 OA
ATOM     10  C   UNL     1      -4.769 -11.905  18.487  0.00  0.00    +0.175 C 
ATOM     11  C   UNL     1      -5.817 -10.896  18.909  0.00  0.00    +0.176 C 
ATOM     12  C   UNL     1      -4.576 -11.565  17.014  0.00  0.00    +0.158 C 
ATOM     13  C   UNL     1      -6.712 -10.855  17.682  0.00  0.00    +0.167 C 
ENDROOT
BRANCH  10   2
ATOM      2  O   UNL     1      -5.294 -13.229  18.571  0.00  0.00    -0.387 OA
ATOM     31  H   UNL     1      -4.818 -13.774  17.921  0.00  0.00    +0.210 HD
ENDBRANCH  10   2
BRANCH  11   3
ATOM      3  O   UNL     1      -6.526 -11.278  20.069  0.00  0.00    -0.387 OA
ATOM     32  H   UNL     1      -5.996 -11.954  20.525  0.00  0.00    +0.210 HD
ENDBRANCH  11   3
BRANCH  12  14
ATOM     14  C   UNL     1      -3.496 -10.518  16.780  0.00  0.00    +0.130 C 
BRANCH  14  16
ATOM      4  O   UNL     1      -1.433 -10.951  15.593  0.00  0.00    -0.276 OA
ATOM      8  N   UNL     1      -3.432 -10.901  14.409  0.00  0.00    -0.310 N 
ATOM     16  C   UNL     1      -2.653 -10.813  15.553  0.00  0.00    +0.216 C 
ATOM     34  H   UNL     1      -4.439 -10.790  14.486  0.00  0.00    +0.149 HD
BRANCH   8  18
ATOM     18  C   UNL     1      -2.884 -11.172  13.100  0.00  0.00    +0.159 C 
BRANCH  18  20
ATOM      9  N   UNL     1      -4.773  -9.907  12.244  0.00  0.00    -0.258 NA
ATOM     20  C   UNL     1      -3.495 -10.298  12.043  0.00  0.00    +0.058 A 
ATOM     23  C   UNL     1      -2.739  -9.940  10.938  0.00  0.00    +0.025 A 
ATOM     27  C   UNL     1      -3.333  -9.128   9.978  0.00  0.00    +0.003 A 
ATOM     28  C   UNL     1      -5.318  -9.119  11.290  0.00  0.00    +0.111 A 
ATOM     29  C   UNL     1      -4.648  -8.706  10.150  0.00  0.00    +0.020 A 
ENDBRANCH  18  20
ENDBRANCH   8  18
ENDBRANCH  14  16
ENDBRANCH  12  14
BRANCH  13  15
ATOM     15  C   UNL     1      -7.485  -9.556  17.544  0.00  0.00    +0.138 C 
BRANCH  15   7
ATOM      5  O   UNL     1     -10.094  -9.692  16.353  0.00  0.00    -0.270 OA
ATOM      7  N   UNL     1      -8.739  -9.624  18.235  0.00  0.00    -0.309 N 
ATOM     17  C   UNL     1      -9.963  -9.687  17.574  0.00  0.00    +0.244 C 
ATOM     33  H   UNL     1      -8.701  -9.681  19.247  0.00  0.00    +0.149 HD
BRANCH  17  19
ATOM     19  C   UNL     1     -11.173  -9.727  18.434  0.00  0.00    +0.037 A 
ATOM     21  C   UNL     1     -11.052  -9.993  19.798  0.00  0.00    +0.016 A 
ATOM     22  C   UNL     1     -12.432  -9.503  17.877  0.00  0.00    +0.016 A 
ATOM     24  C   UNL     1     -12.188 -10.034  20.605  0.00  0.00    +0.046 A 
ATOM     25  C   UNL     1     -13.569  -9.543  18.684  0.00  0.00    +0.046 A 
ATOM     26  C   UNL     1     -13.447  -9.809  20.048  0.00  0.00    +0.120 A 
BRANCH  26   6
ATOM      6  O   UNL     1     -14.557  -9.847  20.835  0.00  0.00    -0.495 OA
ATOM     30  C   UNL     1     -15.547  -8.845  20.610  0.00  0.00    +0.277 C 
ENDBRANCH  26   6
ENDBRANCH  17  19
ENDBRANCH  15   7
ENDBRANCH  13  15
TORSDOF 10
ENDMDL
