MODEL 1
REMARK VINA RESULT:      -6.6      0.000      0.000
REMARK  Name = 45784127
REMARK  11 active torsions:
REMARK  status: ('A' for Active; 'I' for Inactive)
REMARK    1  A    between atoms: O_2  and  C_15
REMARK    2  A    between atoms: O_4  and  C_21
REMARK    3  A    between atoms: O_4  and  C_22
REMARK    4  A    between atoms: C_7  and  C_11
REMARK    5  A    between atoms: C_9  and  C_15
REMARK    6  A    between atoms: C_10  and  C_14
REMARK    7  A    between atoms: C_11  and  C_16
REMARK    8  A    between atoms: C_11  and  C_17
REMARK    9  A    between atoms: C_12  and  C_18
REMARK   10  A    between atoms: C_14  and  C_19
REMARK   11  A    between atoms: C_20  and  C_21
REMARK                            x       y       z     vdW  Elec       q    Type
REMARK                         _______ _______ _______ _____ _____    ______ ____
ROOT
ATOM     14  C   UNL     1      -4.469 -10.634  16.718  0.00  0.00    +0.105 C 
ENDROOT
BRANCH  14  10
ATOM      7  C   UNL     1      -7.410 -11.896  17.043  0.00  0.00    +0.001 C 
ATOM      8  C   UNL     1      -6.140 -12.519  16.445  0.00  0.00    +0.012 C 
ATOM      9  C   UNL     1      -7.533 -12.254  18.545  0.00  0.00    +0.040 C 
ATOM     10  C   UNL     1      -4.864 -12.046  17.165  0.00  0.00    +0.024 C 
ATOM     12  C   UNL     1      -5.008 -12.117  18.672  0.00  0.00    -0.073 C 
ATOM     13  C   UNL     1      -6.208 -12.223  19.270  0.00  0.00    -0.022 C 
ATOM     18  C   UNL     1      -3.737 -12.109  19.474  0.00  0.00    +0.039 C 
BRANCH   7  11
ATOM     11  C   UNL     1      -8.637 -12.353  16.248  0.00  0.00    -0.013 C 
ATOM     16  C   UNL     1      -8.834 -13.859  16.394  0.00  0.00    +0.007 C 
ATOM     17  C   UNL     1      -8.493 -11.967  14.779  0.00  0.00    +0.007 C 
ENDBRANCH   7  11
BRANCH   9  15
ATOM     15  C   UNL     1      -8.525 -11.325  19.255  0.00  0.00    +0.163 C 
BRANCH  15   2
ATOM      2  O   UNL     1      -7.790 -10.432  20.069  0.00  0.00    -0.394 OA
ATOM     28  H   UNL     1      -6.867 -10.737  20.071  0.00  0.00    +0.209 HD
ENDBRANCH  15   2
ENDBRANCH   9  15
ENDBRANCH  14  10
BRANCH  14  19
ATOM      3  O   UNL     1      -3.339 -10.459  14.563  0.00  0.00    -0.421 OA
ATOM      5  N   UNL     1      -1.965 -10.818  16.291  0.00  0.00    -0.112 NA
ATOM      6  N   UNL     1      -1.198 -10.741  15.143  0.00  0.00    -0.109 NA
ATOM     19  C   UNL     1      -3.208 -10.649  15.904  0.00  0.00    +0.218 A 
ATOM     20  C   UNL     1      -2.041 -10.531  14.160  0.00  0.00    +0.254 A 
BRANCH  20  21
ATOM     21  C   UNL     1      -1.782 -10.364  12.724  0.00  0.00    +0.326 C 
BRANCH  21   4
ATOM      4  O   UNL     1      -2.496 -11.350  11.974  0.00  0.00    -0.483 OA
BRANCH   4  22
ATOM      1  F   UNL     1      -5.191  -9.569   7.527  0.00  0.00    -0.205 F 
ATOM     22  C   UNL     1      -3.166 -10.907  10.868  0.00  0.00    +0.121 A 
ATOM     23  C   UNL     1      -3.841 -11.815  10.052  0.00  0.00    +0.048 A 
ATOM     24  C   UNL     1      -3.176  -9.548  10.557  0.00  0.00    +0.048 A 
ATOM     25  C   UNL     1      -4.525 -11.364   8.923  0.00  0.00    +0.042 A 
ATOM     26  C   UNL     1      -3.860  -9.096   9.428  0.00  0.00    +0.042 A 
ATOM     27  C   UNL     1      -4.534 -10.004   8.611  0.00  0.00    +0.124 A 
ENDBRANCH   4  22
ENDBRANCH  21   4
ENDBRANCH  20  21
ENDBRANCH  14  19
TORSDOF 8
ENDMDL
MODEL 2
REMARK VINA RESULT:      -6.3     28.045     30.504
REMARK  Name = 45784127
REMARK  11 active torsions:
REMARK  status: ('A' for Active; 'I' for Inactive)
REMARK    1  A    between atoms: O_2  and  C_15
REMARK    2  A    between atoms: O_4  and  C_21
REMARK    3  A    between atoms: O_4  and  C_22
REMARK    4  A    between atoms: C_7  and  C_11
REMARK    5  A    between atoms: C_9  and  C_15
REMARK    6  A    between atoms: C_10  and  C_14
REMARK    7  A    between atoms: C_11  and  C_16
REMARK    8  A    between atoms: C_11  and  C_17
REMARK    9  A    between atoms: C_12  and  C_18
REMARK   10  A    between atoms: C_14  and  C_19
REMARK   11  A    between atoms: C_20  and  C_21
REMARK                            x       y       z     vdW  Elec       q    Type
REMARK                         _______ _______ _______ _____ _____    ______ ____
ROOT
ATOM     14  C   UNL     1      17.580   6.925  21.547  0.00  0.00    +0.105 C 
ENDROOT
BRANCH  14  10
ATOM      7  C   UNL     1      14.719   8.388  21.411  0.00  0.00    +0.001 C 
ATOM      8  C   UNL     1      16.079   8.851  20.868  0.00  0.00    +0.012 C 
ATOM      9  C   UNL     1      13.929   7.630  20.316  0.00  0.00    +0.040 C 
ATOM     10  C   UNL     1      16.939   7.673  20.372  0.00  0.00    +0.024 C 
ATOM     12  C   UNL     1      16.146   6.727  19.494  0.00  0.00    -0.073 C 
ATOM     13  C   UNL     1      14.802   6.731  19.472  0.00  0.00    -0.022 C 
ATOM     18  C   UNL     1      16.936   5.806  18.606  0.00  0.00    +0.039 C 
BRANCH   7  11
ATOM     11  C   UNL     1      13.937   9.592  21.947  0.00  0.00    -0.013 C 
ATOM     16  C   UNL     1      13.441  10.459  20.793  0.00  0.00    +0.007 C 
ATOM     17  C   UNL     1      14.803  10.407  22.902  0.00  0.00    +0.007 C 
ENDBRANCH   7  11
BRANCH   9  15
ATOM     15  C   UNL     1      12.788   6.807  20.926  0.00  0.00    +0.163 C 
BRANCH  15   2
ATOM      2  O   UNL     1      12.149   6.095  19.885  0.00  0.00    -0.394 OA
ATOM     28  H   UNL     1      12.375   6.541  19.051  0.00  0.00    +0.209 HD
ENDBRANCH  15   2
ENDBRANCH   9  15
ENDBRANCH  14  10
BRANCH  14  19
ATOM      3  O   UNL     1      19.655   5.807  20.916  0.00  0.00    -0.421 OA
ATOM      5  N   UNL     1      19.943   7.848  21.784  0.00  0.00    -0.112 NA
ATOM      6  N   UNL     1      21.189   7.335  21.475  0.00  0.00    -0.109 NA
ATOM     19  C   UNL     1      19.078   6.921  21.442  0.00  0.00    +0.218 A 
ATOM     20  C   UNL     1      20.973   6.143  20.971  0.00  0.00    +0.254 A 
BRANCH  20  21
ATOM     21  C   UNL     1      21.932   5.150  20.469  0.00  0.00    +0.326 C 
BRANCH  21   4
ATOM      4  O   UNL     1      21.502   3.830  20.808  0.00  0.00    -0.483 OA
BRANCH   4  22
ATOM      1  F   UNL     1      25.112   0.700  23.524  0.00  0.00    -0.205 F 
ATOM     22  C   UNL     1      22.400   3.052  21.484  0.00  0.00    +0.121 A 
ATOM     23  C   UNL     1      23.353   2.315  20.779  0.00  0.00    +0.048 A 
ATOM     24  C   UNL     1      22.364   2.993  22.876  0.00  0.00    +0.048 A 
ATOM     25  C   UNL     1      24.269   1.520  21.468  0.00  0.00    +0.042 A 
ATOM     26  C   UNL     1      23.280   2.199  23.565  0.00  0.00    +0.042 A 
ATOM     27  C   UNL     1      24.232   1.463  22.862  0.00  0.00    +0.124 A 
ENDBRANCH   4  22
ENDBRANCH  21   4
ENDBRANCH  20  21
ENDBRANCH  14  19
TORSDOF 8
ENDMDL
MODEL 3
REMARK VINA RESULT:      -6.3     20.845     23.305
REMARK  Name = 45784127
REMARK  11 active torsions:
REMARK  status: ('A' for Active; 'I' for Inactive)
REMARK    1  A    between atoms: O_2  and  C_15
REMARK    2  A    between atoms: O_4  and  C_21
REMARK    3  A    between atoms: O_4  and  C_22
REMARK    4  A    between atoms: C_7  and  C_11
REMARK    5  A    between atoms: C_9  and  C_15
REMARK    6  A    between atoms: C_10  and  C_14
REMARK    7  A    between atoms: C_11  and  C_16
REMARK    8  A    between atoms: C_11  and  C_17
REMARK    9  A    between atoms: C_12  and  C_18
REMARK   10  A    between atoms: C_14  and  C_19
REMARK   11  A    between atoms: C_20  and  C_21
REMARK                            x       y       z     vdW  Elec       q    Type
REMARK                         _______ _______ _______ _____ _____    ______ ____
ROOT
ATOM     14  C   UNL     1     -14.571   5.022  23.316  0.00  0.00    +0.105 C 
ENDROOT
BRANCH  14  10
ATOM      7  C   UNL     1     -13.608   7.704  21.825  0.00  0.00    +0.001 C 
ATOM      8  C   UNL     1     -14.435   6.528  21.284  0.00  0.00    +0.012 C 
ATOM      9  C   UNL     1     -14.540   8.820  22.359  0.00  0.00    +0.040 C 
ATOM     10  C   UNL     1     -15.358   5.922  22.357  0.00  0.00    +0.024 C 
ATOM     12  C   UNL     1     -16.117   6.991  23.116  0.00  0.00    -0.073 C 
ATOM     13  C   UNL     1     -15.745   8.283  23.095  0.00  0.00    -0.022 C 
ATOM     18  C   UNL     1     -17.343   6.547  23.864  0.00  0.00    +0.039 C 
BRANCH   7  11
ATOM     11  C   UNL     1     -12.666   8.223  20.734  0.00  0.00    -0.013 C 
ATOM     16  C   UNL     1     -13.450   8.547  19.465  0.00  0.00    +0.007 C 
ATOM     17  C   UNL     1     -11.570   7.201  20.447  0.00  0.00    +0.007 C 
ENDBRANCH   7  11
BRANCH   9  15
ATOM     15  C   UNL     1     -13.776   9.789  23.270  0.00  0.00    +0.163 C 
BRANCH  15   2
ATOM      2  O   UNL     1     -14.202   9.574  24.601  0.00  0.00    -0.394 OA
ATOM     28  H   UNL     1     -13.488   9.098  25.058  0.00  0.00    +0.209 HD
ENDBRANCH  15   2
ENDBRANCH   9  15
ENDBRANCH  14  10
BRANCH  14  19
ATOM      3  O   UNL     1     -15.468   3.656  25.129  0.00  0.00    -0.421 OA
ATOM      5  N   UNL     1     -16.095   2.993  23.087  0.00  0.00    -0.112 NA
ATOM      6  N   UNL     1     -16.670   2.139  24.009  0.00  0.00    -0.109 NA
ATOM     19  C   UNL     1     -15.402   3.862  23.785  0.00  0.00    +0.218 A 
ATOM     20  C   UNL     1     -16.277   2.564  25.187  0.00  0.00    +0.254 A 
BRANCH  20  21
ATOM     21  C   UNL     1     -16.585   2.037  26.523  0.00  0.00    +0.326 C 
BRANCH  21   4
ATOM      4  O   UNL     1     -16.075   2.913  27.531  0.00  0.00    -0.483 OA
BRANCH   4  22
ATOM      1  F   UNL     1     -14.593   0.582  32.283  0.00  0.00    -0.205 F 
ATOM     22  C   UNL     1     -15.706   2.333  28.713  0.00  0.00    +0.121 A 
ATOM     23  C   UNL     1     -14.956   3.057  29.640  0.00  0.00    +0.048 A 
ATOM     24  C   UNL     1     -16.081   1.019  28.991  0.00  0.00    +0.048 A 
ATOM     25  C   UNL     1     -14.579   2.465  30.846  0.00  0.00    +0.042 A 
ATOM     26  C   UNL     1     -15.705   0.428  30.197  0.00  0.00    +0.042 A 
ATOM     27  C   UNL     1     -14.954   1.150  31.124  0.00  0.00    +0.124 A 
ENDBRANCH   4  22
ENDBRANCH  21   4
ENDBRANCH  20  21
ENDBRANCH  14  19
TORSDOF 8
ENDMDL
MODEL 4
REMARK VINA RESULT:      -6.2      3.706      8.247
REMARK  Name = 45784127
REMARK  11 active torsions:
REMARK  status: ('A' for Active; 'I' for Inactive)
REMARK    1  A    between atoms: O_2  and  C_15
REMARK    2  A    between atoms: O_4  and  C_21
REMARK    3  A    between atoms: O_4  and  C_22
REMARK    4  A    between atoms: C_7  and  C_11
REMARK    5  A    between atoms: C_9  and  C_15
REMARK    6  A    between atoms: C_10  and  C_14
REMARK    7  A    between atoms: C_11  and  C_16
REMARK    8  A    between atoms: C_11  and  C_17
REMARK    9  A    between atoms: C_12  and  C_18
REMARK   10  A    between atoms: C_14  and  C_19
REMARK   11  A    between atoms: C_20  and  C_21
REMARK                            x       y       z     vdW  Elec       q    Type
REMARK                         _______ _______ _______ _____ _____    ______ ____
ROOT
ATOM     14  C   UNL     1      -5.915  -9.054  12.108  0.00  0.00    +0.105 C 
ENDROOT
BRANCH  14  10
ATOM      7  C   UNL     1      -3.206 -10.604  12.885  0.00  0.00    +0.001 C 
ATOM      8  C   UNL     1      -4.546 -11.168  12.390  0.00  0.00    +0.012 C 
ATOM      9  C   UNL     1      -2.246 -10.365  11.693  0.00  0.00    +0.040 C 
ATOM     10  C   UNL     1      -5.239 -10.226  11.388  0.00  0.00    +0.024 C 
ATOM     12  C   UNL     1      -4.280  -9.730  10.325  0.00  0.00    -0.073 C 
ATOM     13  C   UNL     1      -2.946  -9.812  10.473  0.00  0.00    -0.022 C 
ATOM     18  C   UNL     1      -4.891  -9.178   9.067  0.00  0.00    +0.039 C 
BRANCH   7  11
ATOM     11  C   UNL     1      -2.596 -11.550  13.924  0.00  0.00    -0.013 C 
ATOM     16  C   UNL     1      -1.730 -10.771  14.909  0.00  0.00    +0.007 C 
ATOM     17  C   UNL     1      -1.782 -12.643  13.237  0.00  0.00    +0.007 C 
ENDBRANCH   7  11
BRANCH   9  15
ATOM     15  C   UNL     1      -1.096  -9.431  12.087  0.00  0.00    +0.163 C 
BRANCH  15   2
ATOM      2  O   UNL     1      -0.602  -8.816  10.914  0.00  0.00    -0.394 OA
ATOM     28  H   UNL     1      -1.172  -9.100  10.179  0.00  0.00    +0.209 HD
ENDBRANCH  15   2
ENDBRANCH   9  15
ENDBRANCH  14  10
BRANCH  14  19
ATOM      3  O   UNL     1      -6.756  -9.659  14.316  0.00  0.00    -0.421 OA
ATOM      5  N   UNL     1      -8.272  -9.831  12.681  0.00  0.00    -0.112 NA
ATOM      6  N   UNL     1      -8.878 -10.201  13.866  0.00  0.00    -0.109 NA
ATOM     19  C   UNL     1      -7.034  -9.524  12.991  0.00  0.00    +0.218 A 
ATOM     20  C   UNL     1      -7.957 -10.086  14.794  0.00  0.00    +0.254 A 
BRANCH  20  21
ATOM     21  C   UNL     1      -8.043 -10.344  16.237  0.00  0.00    +0.326 C 
BRANCH  21   4
ATOM      4  O   UNL     1      -7.048  -9.593  16.935  0.00  0.00    -0.483 OA
BRANCH   4  22
ATOM      1  F   UNL     1      -3.403 -12.483  19.863  0.00  0.00    -0.205 F 
ATOM     22  C   UNL     1      -6.141 -10.311  17.663  0.00  0.00    +0.121 A 
ATOM     23  C   UNL     1      -4.929 -10.693  17.087  0.00  0.00    +0.048 A 
ATOM     24  C   UNL     1      -6.428 -10.663  18.982  0.00  0.00    +0.048 A 
ATOM     25  C   UNL     1      -4.004 -11.427  17.829  0.00  0.00    +0.042 A 
ATOM     26  C   UNL     1      -5.503 -11.396  19.725  0.00  0.00    +0.042 A 
ATOM     27  C   UNL     1      -4.291 -11.778  19.149  0.00  0.00    +0.124 A 
ENDBRANCH   4  22
ENDBRANCH  21   4
ENDBRANCH  20  21
ENDBRANCH  14  19
TORSDOF 8
ENDMDL
MODEL 5
REMARK VINA RESULT:      -6.2      3.392      8.052
REMARK  Name = 45784127
REMARK  11 active torsions:
REMARK  status: ('A' for Active; 'I' for Inactive)
REMARK    1  A    between atoms: O_2  and  C_15
REMARK    2  A    between atoms: O_4  and  C_21
REMARK    3  A    between atoms: O_4  and  C_22
REMARK    4  A    between atoms: C_7  and  C_11
REMARK    5  A    between atoms: C_9  and  C_15
REMARK    6  A    between atoms: C_10  and  C_14
REMARK    7  A    between atoms: C_11  and  C_16
REMARK    8  A    between atoms: C_11  and  C_17
REMARK    9  A    between atoms: C_12  and  C_18
REMARK   10  A    between atoms: C_14  and  C_19
REMARK   11  A    between atoms: C_20  and  C_21
REMARK                            x       y       z     vdW  Elec       q    Type
REMARK                         _______ _______ _______ _____ _____    ______ ____
ROOT
ATOM     14  C   UNL     1      -3.974 -11.394  11.808  0.00  0.00    +0.105 C 
ENDROOT
BRANCH  14  10
ATOM      7  C   UNL     1      -6.179 -10.083   9.867  0.00  0.00    +0.001 C 
ATOM      8  C   UNL     1      -5.771  -9.683  11.293  0.00  0.00    +0.012 C 
ATOM      9  C   UNL     1      -5.370  -9.273   8.824  0.00  0.00    +0.040 C 
ATOM     10  C   UNL     1      -4.270  -9.911  11.554  0.00  0.00    +0.024 C 
ATOM     12  C   UNL     1      -3.413  -9.372  10.427  0.00  0.00    -0.073 C 
ATOM     13  C   UNL     1      -3.924  -9.080   9.219  0.00  0.00    -0.022 C 
ATOM     18  C   UNL     1      -1.961  -9.132  10.737  0.00  0.00    +0.039 C 
BRANCH   7  11
ATOM     11  C   UNL     1      -7.689  -9.894   9.687  0.00  0.00    -0.013 C 
ATOM     16  C   UNL     1      -8.031  -8.410   9.594  0.00  0.00    +0.007 C 
ATOM     17  C   UNL     1      -8.449 -10.554  10.834  0.00  0.00    +0.007 C 
ENDBRANCH   7  11
BRANCH   9  15
ATOM     15  C   UNL     1      -5.438  -9.929   7.440  0.00  0.00    +0.163 C 
BRANCH  15   2
ATOM      2  O   UNL     1      -6.155  -9.069   6.577  0.00  0.00    -0.394 OA
ATOM     28  H   UNL     1      -7.095  -9.136   6.821  0.00  0.00    +0.209 HD
ENDBRANCH  15   2
ENDBRANCH   9  15
ENDBRANCH  14  10
BRANCH  14  19
ATOM      3  O   UNL     1      -3.776 -11.052  14.215  0.00  0.00    -0.421 OA
ATOM      5  N   UNL     1      -2.093 -12.220  13.315  0.00  0.00    -0.112 NA
ATOM      6  N   UNL     1      -1.855 -12.102  14.671  0.00  0.00    -0.109 NA
ATOM     19  C   UNL     1      -3.225 -11.591  13.094  0.00  0.00    +0.218 A 
ATOM     20  C   UNL     1      -2.862 -11.414  15.156  0.00  0.00    +0.254 A 
BRANCH  20  21
ATOM     21  C   UNL     1      -3.131 -10.995  16.538  0.00  0.00    +0.326 C 
BRANCH  21   4
ATOM      4  O   UNL     1      -4.180 -10.025  16.566  0.00  0.00    -0.483 OA
BRANCH   4  22
ATOM      1  F   UNL     1      -8.458 -11.137  19.833  0.00  0.00    -0.205 F 
ATOM     22  C   UNL     1      -5.244 -10.302  17.379  0.00  0.00    +0.121 A 
ATOM     23  C   UNL     1      -6.532  -9.929  16.992  0.00  0.00    +0.048 A 
ATOM     24  C   UNL     1      -5.042 -10.957  18.593  0.00  0.00    +0.048 A 
ATOM     25  C   UNL     1      -7.618 -10.211  17.821  0.00  0.00    +0.042 A 
ATOM     26  C   UNL     1      -6.128 -11.239  19.422  0.00  0.00    +0.042 A 
ATOM     27  C   UNL     1      -7.415 -10.866  19.037  0.00  0.00    +0.124 A 
ENDBRANCH   4  22
ENDBRANCH  21   4
ENDBRANCH  20  21
ENDBRANCH  14  19
TORSDOF 8
ENDMDL
MODEL 6
REMARK VINA RESULT:      -6.2     27.058     29.197
REMARK  Name = 45784127
REMARK  11 active torsions:
REMARK  status: ('A' for Active; 'I' for Inactive)
REMARK    1  A    between atoms: O_2  and  C_15
REMARK    2  A    between atoms: O_4  and  C_21
REMARK    3  A    between atoms: O_4  and  C_22
REMARK    4  A    between atoms: C_7  and  C_11
REMARK    5  A    between atoms: C_9  and  C_15
REMARK    6  A    between atoms: C_10  and  C_14
REMARK    7  A    between atoms: C_11  and  C_16
REMARK    8  A    between atoms: C_11  and  C_17
REMARK    9  A    between atoms: C_12  and  C_18
REMARK   10  A    between atoms: C_14  and  C_19
REMARK   11  A    between atoms: C_20  and  C_21
REMARK                            x       y       z     vdW  Elec       q    Type
REMARK                         _______ _______ _______ _____ _____    ______ ____
ROOT
ATOM     14  C   UNL     1      11.026   9.995  22.581  0.00  0.00    +0.105 C 
ENDROOT
BRANCH  14  10
ATOM      7  C   UNL     1      11.584  12.947  23.730  0.00  0.00    +0.001 C 
ATOM      8  C   UNL     1      12.512  11.724  23.687  0.00  0.00    +0.012 C 
ATOM      9  C   UNL     1      11.799  13.834  22.478  0.00  0.00    +0.040 C 
ATOM     10  C   UNL     1      12.282  10.862  22.432  0.00  0.00    +0.024 C 
ATOM     12  C   UNL     1      12.213  11.704  21.175  0.00  0.00    -0.073 C 
ATOM     13  C   UNL     1      12.010  13.032  21.215  0.00  0.00    -0.022 C 
ATOM     18  C   UNL     1      12.430  10.989  19.870  0.00  0.00    +0.039 C 
BRANCH   7  11
ATOM     11  C   UNL     1      11.814  13.729  25.027  0.00  0.00    -0.013 C 
ATOM     16  C   UNL     1      12.908  13.068  25.859  0.00  0.00    +0.007 C 
ATOM     17  C   UNL     1      10.517  13.833  25.823  0.00  0.00    +0.007 C 
ENDBRANCH   7  11
BRANCH   9  15
ATOM     15  C   UNL     1      10.628  14.802  22.278  0.00  0.00    +0.163 C 
BRANCH  15   2
ATOM      2  O   UNL     1       9.424  14.064  22.356  0.00  0.00    -0.394 OA
ATOM     28  H   UNL     1       9.622  13.243  22.838  0.00  0.00    +0.209 HD
ENDBRANCH  15   2
ENDBRANCH   9  15
ENDBRANCH  14  10
BRANCH  14  19
ATOM      3  O   UNL     1      12.526   8.264  21.741  0.00  0.00    -0.421 OA
ATOM      5  N   UNL     1      10.370   7.669  21.775  0.00  0.00    -0.112 NA
ATOM      6  N   UNL     1      11.100   6.604  21.282  0.00  0.00    -0.109 NA
ATOM     19  C   UNL     1      11.243   8.616  22.029  0.00  0.00    +0.218 A 
ATOM     20  C   UNL     1      12.353   6.995  21.280  0.00  0.00    +0.254 A 
BRANCH  20  21
ATOM     21  C   UNL     1      13.559   6.271  20.861  0.00  0.00    +0.326 C 
BRANCH  21   4
ATOM      4  O   UNL     1      14.446   7.148  20.163  0.00  0.00    -0.483 OA
BRANCH   4  22
ATOM      1  F   UNL     1      19.771   5.787  20.206  0.00  0.00    -0.205 F 
ATOM     22  C   UNL     1      15.771   6.809  20.174  0.00  0.00    +0.121 A 
ATOM     23  C   UNL     1      16.337   6.172  19.069  0.00  0.00    +0.048 A 
ATOM     24  C   UNL     1      16.556   7.101  21.288  0.00  0.00    +0.048 A 
ATOM     25  C   UNL     1      17.688   5.826  19.079  0.00  0.00    +0.042 A 
ATOM     26  C   UNL     1      17.907   6.756  21.299  0.00  0.00    +0.042 A 
ATOM     27  C   UNL     1      18.473   6.118  20.195  0.00  0.00    +0.124 A 
ENDBRANCH   4  22
ENDBRANCH  21   4
ENDBRANCH  20  21
ENDBRANCH  14  19
TORSDOF 8
ENDMDL
MODEL 7
REMARK VINA RESULT:      -6.1     22.855     25.214
REMARK  Name = 45784127
REMARK  11 active torsions:
REMARK  status: ('A' for Active; 'I' for Inactive)
REMARK    1  A    between atoms: O_2  and  C_15
REMARK    2  A    between atoms: O_4  and  C_21
REMARK    3  A    between atoms: O_4  and  C_22
REMARK    4  A    between atoms: C_7  and  C_11
REMARK    5  A    between atoms: C_9  and  C_15
REMARK    6  A    between atoms: C_10  and  C_14
REMARK    7  A    between atoms: C_11  and  C_16
REMARK    8  A    between atoms: C_11  and  C_17
REMARK    9  A    between atoms: C_12  and  C_18
REMARK   10  A    between atoms: C_14  and  C_19
REMARK   11  A    between atoms: C_20  and  C_21
REMARK                            x       y       z     vdW  Elec       q    Type
REMARK                         _______ _______ _______ _____ _____    ______ ____
ROOT
ATOM     14  C   UNL     1     -12.723  10.110  19.628  0.00  0.00    +0.105 C 
ENDROOT
BRANCH  14  10
ATOM      7  C   UNL     1     -10.762  10.354  17.090  0.00  0.00    +0.001 C 
ATOM      8  C   UNL     1     -10.483  10.647  18.572  0.00  0.00    +0.012 C 
ATOM      9  C   UNL     1     -10.366   8.897  16.744  0.00  0.00    +0.040 C 
ATOM     10  C   UNL     1     -11.252   9.697  19.508  0.00  0.00    +0.024 C 
ATOM     12  C   UNL     1     -11.129   8.252  19.069  0.00  0.00    -0.073 C 
ATOM     13  C   UNL     1     -10.719   7.913  17.835  0.00  0.00    -0.022 C 
ATOM     18  C   UNL     1     -11.444   7.203  20.100  0.00  0.00    +0.039 C 
BRANCH   7  11
ATOM     11  C   UNL     1     -10.023  11.368  16.212  0.00  0.00    -0.013 C 
ATOM     16  C   UNL     1      -9.302  12.396  17.079  0.00  0.00    +0.007 C 
ATOM     17  C   UNL     1     -10.995  12.054  15.256  0.00  0.00    +0.007 C 
ENDBRANCH   7  11
BRANCH   9  15
ATOM     15  C   UNL     1     -11.009   8.448  15.425  0.00  0.00    +0.163 C 
BRANCH  15   2
ATOM      2  O   UNL     1     -12.354   8.099  15.685  0.00  0.00    -0.394 OA
ATOM     28  H   UNL     1     -12.908   8.835  15.373  0.00  0.00    +0.209 HD
ENDBRANCH  15   2
ENDBRANCH   9  15
ENDBRANCH  14  10
BRANCH  14  19
ATOM      3  O   UNL     1     -11.966  10.868  21.820  0.00  0.00    -0.421 OA
ATOM      5  N   UNL     1     -14.173  11.046  21.502  0.00  0.00    -0.112 NA
ATOM      6  N   UNL     1     -13.886  11.507  22.773  0.00  0.00    -0.109 NA
ATOM     19  C   UNL     1     -13.023  10.683  20.983  0.00  0.00    +0.218 A 
ATOM     20  C   UNL     1     -12.587  11.384  22.916  0.00  0.00    +0.254 A 
BRANCH  20  21
ATOM     21  C   UNL     1     -11.735  11.722  24.063  0.00  0.00    +0.326 C 
BRANCH  21   4
ATOM      4  O   UNL     1     -12.540  12.051  25.198  0.00  0.00    -0.483 OA
BRANCH   4  22
ATOM      1  F   UNL     1     -11.284   9.514  29.909  0.00  0.00    -0.205 F 
ATOM     22  C   UNL     1     -12.227  11.420  26.370  0.00  0.00    +0.121 A 
ATOM     23  C   UNL     1     -11.163  10.519  26.414  0.00  0.00    +0.048 A 
ATOM     24  C   UNL     1     -12.972  11.677  27.520  0.00  0.00    +0.048 A 
ATOM     25  C   UNL     1     -10.844   9.875  27.610  0.00  0.00    +0.042 A 
ATOM     26  C   UNL     1     -12.654  11.033  28.716  0.00  0.00    +0.042 A 
ATOM     27  C   UNL     1     -11.590  10.132  28.761  0.00  0.00    +0.124 A 
ENDBRANCH   4  22
ENDBRANCH  21   4
ENDBRANCH  20  21
ENDBRANCH  14  19
TORSDOF 8
ENDMDL
MODEL 8
REMARK VINA RESULT:      -6.1     21.116     23.220
REMARK  Name = 45784127
REMARK  11 active torsions:
REMARK  status: ('A' for Active; 'I' for Inactive)
REMARK    1  A    between atoms: O_2  and  C_15
REMARK    2  A    between atoms: O_4  and  C_21
REMARK    3  A    between atoms: O_4  and  C_22
REMARK    4  A    between atoms: C_7  and  C_11
REMARK    5  A    between atoms: C_9  and  C_15
REMARK    6  A    between atoms: C_10  and  C_14
REMARK    7  A    between atoms: C_11  and  C_16
REMARK    8  A    between atoms: C_11  and  C_17
REMARK    9  A    between atoms: C_12  and  C_18
REMARK   10  A    between atoms: C_14  and  C_19
REMARK   11  A    between atoms: C_20  and  C_21
REMARK                            x       y       z     vdW  Elec       q    Type
REMARK                         _______ _______ _______ _____ _____    ______ ____
ROOT
ATOM     14  C   UNL     1     -15.960   5.605  23.089  0.00  0.00    +0.105 C 
ENDROOT
BRANCH  14  10
ATOM      7  C   UNL     1     -14.300   7.374  20.977  0.00  0.00    +0.001 C 
ATOM      8  C   UNL     1     -14.097   5.911  21.399  0.00  0.00    +0.012 C 
ATOM      9  C   UNL     1     -15.202   7.455  19.721  0.00  0.00    +0.040 C 
ATOM     10  C   UNL     1     -15.430   5.204  21.708  0.00  0.00    +0.024 C 
ATOM     12  C   UNL     1     -16.467   5.462  20.634  0.00  0.00    -0.073 C 
ATOM     13  C   UNL     1     -16.342   6.464  19.746  0.00  0.00    -0.022 C 
ATOM     18  C   UNL     1     -17.630   4.511  20.575  0.00  0.00    +0.039 C 
BRANCH   7  11
ATOM     11  C   UNL     1     -12.941   8.041  20.745  0.00  0.00    -0.013 C 
ATOM     16  C   UNL     1     -11.815   7.022  20.902  0.00  0.00    +0.007 C 
ATOM     17  C   UNL     1     -12.750   9.210  21.707  0.00  0.00    +0.007 C 
ENDBRANCH   7  11
BRANCH   9  15
ATOM     15  C   UNL     1     -15.761   8.871  19.532  0.00  0.00    +0.163 C 
BRANCH  15   2
ATOM      2  O   UNL     1     -16.225   9.335  20.784  0.00  0.00    -0.394 OA
ATOM     28  H   UNL     1     -15.501   9.841  21.190  0.00  0.00    +0.209 HD
ENDBRANCH  15   2
ENDBRANCH   9  15
ENDBRANCH  14  10
BRANCH  14  19
ATOM      3  O   UNL     1     -16.308   4.677  25.319  0.00  0.00    -0.421 OA
ATOM      5  N   UNL     1     -15.904   3.143  23.742  0.00  0.00    -0.112 NA
ATOM      6  N   UNL     1     -16.081   2.484  24.945  0.00  0.00    -0.109 NA
ATOM     19  C   UNL     1     -16.045   4.421  24.009  0.00  0.00    +0.218 A 
ATOM     20  C   UNL     1     -16.314   3.419  25.836  0.00  0.00    +0.254 A 
BRANCH  20  21
ATOM     21  C   UNL     1     -16.576   3.294  27.276  0.00  0.00    +0.326 C 
BRANCH  21   4
ATOM      4  O   UNL     1     -16.129   2.023  27.753  0.00  0.00    -0.483 OA
BRANCH   4  22
ATOM      1  F   UNL     1     -13.191   2.046  32.398  0.00  0.00    -0.205 F 
ATOM     22  C   UNL     1     -15.398   2.029  28.908  0.00  0.00    +0.121 A 
ATOM     23  C   UNL     1     -14.950   3.237  29.444  0.00  0.00    +0.048 A 
ATOM     24  C   UNL     1     -15.100   0.828  29.551  0.00  0.00    +0.048 A 
ATOM     25  C   UNL     1     -14.204   3.243  30.623  0.00  0.00    +0.042 A 
ATOM     26  C   UNL     1     -14.355   0.834  30.730  0.00  0.00    +0.042 A 
ATOM     27  C   UNL     1     -13.907   2.041  31.266  0.00  0.00    +0.124 A 
ENDBRANCH   4  22
ENDBRANCH  21   4
ENDBRANCH  20  21
ENDBRANCH  14  19
TORSDOF 8
ENDMDL
MODEL 9
REMARK VINA RESULT:      -5.9      3.562      8.785
REMARK  Name = 45784127
REMARK  11 active torsions:
REMARK  status: ('A' for Active; 'I' for Inactive)
REMARK    1  A    between atoms: O_2  and  C_15
REMARK    2  A    between atoms: O_4  and  C_21
REMARK    3  A    between atoms: O_4  and  C_22
REMARK    4  A    between atoms: C_7  and  C_11
REMARK    5  A    between atoms: C_9  and  C_15
REMARK    6  A    between atoms: C_10  and  C_14
REMARK    7  A    between atoms: C_11  and  C_16
REMARK    8  A    between atoms: C_11  and  C_17
REMARK    9  A    between atoms: C_12  and  C_18
REMARK   10  A    between atoms: C_14  and  C_19
REMARK   11  A    between atoms: C_20  and  C_21
REMARK                            x       y       z     vdW  Elec       q    Type
REMARK                         _______ _______ _______ _____ _____    ______ ____
ROOT
ATOM     14  C   UNL     1      -4.049  -9.219   9.210  0.00  0.00    +0.105 C 
ENDROOT
BRANCH  14  10
ATOM      7  C   UNL     1      -5.317 -10.429   6.512  0.00  0.00    +0.001 C 
ATOM      8  C   UNL     1      -5.038 -11.119   7.856  0.00  0.00    +0.012 C 
ATOM      9  C   UNL     1      -6.768  -9.891   6.471  0.00  0.00    +0.040 C 
ATOM     10  C   UNL     1      -5.241 -10.170   9.051  0.00  0.00    +0.024 C 
ATOM     12  C   UNL     1      -6.540  -9.398   8.944  0.00  0.00    -0.073 C 
ATOM     13  C   UNL     1      -7.216  -9.295   7.786  0.00  0.00    -0.022 C 
ATOM     18  C   UNL     1      -7.069  -8.785  10.211  0.00  0.00    +0.039 C 
BRANCH   7  11
ATOM     11  C   UNL     1      -5.038 -11.400   5.361  0.00  0.00    -0.013 C 
ATOM     16  C   UNL     1      -6.192 -12.385   5.205  0.00  0.00    +0.007 C 
ATOM     17  C   UNL     1      -3.724 -12.140   5.595  0.00  0.00    +0.007 C 
ENDBRANCH   7  11
BRANCH   9  15
ATOM     15  C   UNL     1      -6.943  -8.854   5.356  0.00  0.00    +0.163 C 
BRANCH  15   2
ATOM      2  O   UNL     1      -7.274  -7.614   5.951  0.00  0.00    -0.394 OA
ATOM     28  H   UNL     1      -8.055  -7.270   5.484  0.00  0.00    +0.209 HD
ENDBRANCH  15   2
ENDBRANCH   9  15
ENDBRANCH  14  10
BRANCH  14  19
ATOM      3  O   UNL     1      -3.427 -10.858  10.907  0.00  0.00    -0.421 OA
ATOM      5  N   UNL     1      -1.998  -9.147  10.719  0.00  0.00    -0.112 NA
ATOM      6  N   UNL     1      -1.527  -9.991  11.707  0.00  0.00    -0.109 NA
ATOM     19  C   UNL     1      -3.108  -9.692  10.280  0.00  0.00    +0.218 A 
ATOM     20  C   UNL     1      -2.392 -10.975  11.783  0.00  0.00    +0.254 A 
BRANCH  20  21
ATOM     21  C   UNL     1      -2.394 -12.155  12.658  0.00  0.00    +0.326 C 
BRANCH  21   4
ATOM      4  O   UNL     1      -1.978 -11.794  13.977  0.00  0.00    -0.483 OA
BRANCH   4  22
ATOM      1  F   UNL     1      -5.883 -11.729  17.844  0.00  0.00    -0.205 F 
ATOM     22  C   UNL     1      -2.949 -11.778  14.939  0.00  0.00    +0.121 A 
ATOM     23  C   UNL     1      -4.005 -12.688  14.880  0.00  0.00    +0.048 A 
ATOM     24  C   UNL     1      -2.885 -10.851  15.979  0.00  0.00    +0.048 A 
ATOM     25  C   UNL     1      -4.996 -12.672  15.861  0.00  0.00    +0.042 A 
ATOM     26  C   UNL     1      -3.876 -10.835  16.961  0.00  0.00    +0.042 A 
ATOM     27  C   UNL     1      -4.931 -11.745  16.902  0.00  0.00    +0.124 A 
ENDBRANCH   4  22
ENDBRANCH  21   4
ENDBRANCH  20  21
ENDBRANCH  14  19
TORSDOF 8
ENDMDL
MODEL 10
REMARK VINA RESULT:      -5.8      6.951      8.692
REMARK  Name = 45784127
REMARK  11 active torsions:
REMARK  status: ('A' for Active; 'I' for Inactive)
REMARK    1  A    between atoms: O_2  and  C_15
REMARK    2  A    between atoms: O_4  and  C_21
REMARK    3  A    between atoms: O_4  and  C_22
REMARK    4  A    between atoms: C_7  and  C_11
REMARK    5  A    between atoms: C_9  and  C_15
REMARK    6  A    between atoms: C_10  and  C_14
REMARK    7  A    between atoms: C_11  and  C_16
REMARK    8  A    between atoms: C_11  and  C_17
REMARK    9  A    between atoms: C_12  and  C_18
REMARK   10  A    between atoms: C_14  and  C_19
REMARK   11  A    between atoms: C_20  and  C_21
REMARK                            x       y       z     vdW  Elec       q    Type
REMARK                         _______ _______ _______ _____ _____    ______ ____
ROOT
ATOM     14  C   UNL     1      -9.807  -9.331  16.437  0.00  0.00    +0.105 C 
ENDROOT
BRANCH  14  10
ATOM      7  C   UNL     1      -7.209 -10.966  17.400  0.00  0.00    +0.001 C 
ATOM      8  C   UNL     1      -7.601  -9.505  17.671  0.00  0.00    +0.012 C 
ATOM      9  C   UNL     1      -7.709 -11.881  18.545  0.00  0.00    +0.040 C 
ATOM     10  C   UNL     1      -9.124  -9.327  17.809  0.00  0.00    +0.024 C 
ATOM     12  C   UNL     1      -9.733 -10.371  18.722  0.00  0.00    -0.073 C 
ATOM     13  C   UNL     1      -9.081 -11.500  19.050  0.00  0.00    -0.022 C 
ATOM     18  C   UNL     1     -11.093 -10.066  19.286  0.00  0.00    +0.039 C 
BRANCH   7  11
ATOM     11  C   UNL     1      -5.693 -11.070  17.208  0.00  0.00    -0.013 C 
ATOM     16  C   UNL     1      -4.983 -11.032  18.559  0.00  0.00    +0.007 C 
ATOM     17  C   UNL     1      -5.192  -9.949  16.303  0.00  0.00    +0.007 C 
ENDBRANCH   7  11
BRANCH   9  15
ATOM     15  C   UNL     1      -7.714 -13.353  18.114  0.00  0.00    +0.163 C 
BRANCH  15   2
ATOM      2  O   UNL     1      -8.190 -14.129  19.196  0.00  0.00    -0.394 OA
ATOM     28  H   UNL     1      -8.919 -13.634  19.607  0.00  0.00    +0.209 HD
ENDBRANCH  15   2
ENDBRANCH   9  15
ENDBRANCH  14  10
BRANCH  14  19
ATOM      3  O   UNL     1     -11.216  -7.944  15.008  0.00  0.00    -0.421 OA
ATOM      5  N   UNL     1     -10.642  -6.978  16.942  0.00  0.00    -0.112 NA
ATOM      6  N   UNL     1     -11.432  -6.089  16.238  0.00  0.00    -0.109 NA
ATOM     19  C   UNL     1     -10.542  -8.046  16.186  0.00  0.00    +0.218 A 
ATOM     20  C   UNL     1     -11.744  -6.694  15.116  0.00  0.00    +0.254 A 
BRANCH  20  21
ATOM     21  C   UNL     1     -12.565  -6.221  13.994  0.00  0.00    +0.326 C 
BRANCH  21   4
ATOM      4  O   UNL     1     -12.723  -4.802  14.060  0.00  0.00    -0.483 OA
BRANCH   4  22
ATOM      1  F   UNL     1     -14.751  -2.353   9.577  0.00  0.00    -0.205 F 
ATOM     22  C   UNL     1     -13.228  -4.193  12.945  0.00  0.00    +0.121 A 
ATOM     23  C   UNL     1     -12.436  -4.063  11.804  0.00  0.00    +0.048 A 
ATOM     24  C   UNL     1     -14.533  -3.702  12.949  0.00  0.00    +0.048 A 
ATOM     25  C   UNL     1     -12.950  -3.441  10.666  0.00  0.00    +0.042 A 
ATOM     26  C   UNL     1     -15.047  -3.081  11.811  0.00  0.00    +0.042 A 
ATOM     27  C   UNL     1     -14.256  -2.950  10.670  0.00  0.00    +0.124 A 
ENDBRANCH   4  22
ENDBRANCH  21   4
ENDBRANCH  20  21
ENDBRANCH  14  19
TORSDOF 8
ENDMDL
