MODEL 1
REMARK VINA RESULT:      -6.7      0.000      0.000
REMARK  Name = 26763581
REMARK  12 active torsions:
REMARK  status: ('A' for Active; 'I' for Inactive)
REMARK    1  A    between atoms: S_1  and  N_8
REMARK    2  A    between atoms: S_1  and  C_19
REMARK    3  A    between atoms: O_6  and  C_25
REMARK    4  A    between atoms: O_6  and  C_35
REMARK    5  A    between atoms: N_10  and  C_20
REMARK    6  A    between atoms: N_11  and  C_22
REMARK    7  A    between atoms: C_13  and  C_17
REMARK    8  A    between atoms: C_20  and  C_21
REMARK    9  A    between atoms: C_20  and  C_25
REMARK   10  A    between atoms: C_21  and  C_26
REMARK   11  A    between atoms: C_22  and  C_27
REMARK   12  A    between atoms: C_22  and  C_28
REMARK                            x       y       z     vdW  Elec       q    Type
REMARK                         _______ _______ _______ _____ _____    ______ ____
ROOT
ATOM      5  O   UNL     1      14.453  10.571   4.874  0.00  0.00    -0.253 OA
ATOM      8  N   UNL     1      11.444   6.600   5.217  0.00  0.00    -0.162 NA
ATOM      9  N   UNL     1      13.424   8.632   5.638  0.00  0.00    -0.282 N 
ATOM     11  N   UNL     1      15.714   9.035   6.034  0.00  0.00    -0.297 N 
ATOM     13  C   UNL     1      11.366   7.876   4.451  0.00  0.00    +0.183 C 
ATOM     14  C   UNL     1      12.112   9.027   5.123  0.00  0.00    +0.139 C 
ATOM     15  C   UNL     1      12.119   6.711   6.535  0.00  0.00    +0.129 C 
ATOM     16  C   UNL     1      13.488   7.348   6.344  0.00  0.00    +0.126 C 
ATOM     18  C   UNL     1      14.526   9.493   5.472  0.00  0.00    +0.303 C 
ATOM     38  H   UNL     1      15.766   8.099   6.419  0.00  0.00    +0.150 HD
ENDROOT
BRANCH  13  17
ATOM      4  O   UNL     1      11.949   8.344   2.187  0.00  0.00    -0.274 OA
ATOM     10  N   UNL     1      12.502   6.270   3.089  0.00  0.00    -0.301 N 
ATOM     17  C   UNL     1      11.968   7.548   3.121  0.00  0.00    +0.234 C 
ATOM     37  H   UNL     1      12.440   5.685   3.917  0.00  0.00    +0.150 HD
BRANCH  10  20
ATOM     20  C   UNL     1      13.122   5.704   1.914  0.00  0.00    +0.186 C 
BRANCH  20  25
ATOM      7  O   UNL     1      15.355   5.467   1.021  0.00  0.00    -0.249 OA
ATOM     25  C   UNL     1      14.632   5.911   1.906  0.00  0.00    +0.328 C 
BRANCH  25   6
ATOM      6  O   UNL     1      15.059   6.617   2.990  0.00  0.00    -0.467 OA
ATOM     35  C   UNL     1      15.941   7.709   2.711  0.00  0.00    +0.280 C 
ENDBRANCH  25   6
ENDBRANCH  20  25
BRANCH  20  21
ATOM     21  C   UNL     1      12.744   4.227   1.722  0.00  0.00    +0.070 C 
BRANCH  21  26
ATOM     12  N   UNL     1      10.394   4.013  -1.245  0.00  0.00    -0.263 NA
ATOM     26  C   UNL     1      12.205   3.887   0.351  0.00  0.00    -0.027 A 
ATOM     32  C   UNL     1      12.966   3.162  -0.559  0.00  0.00    +0.006 A 
ATOM     33  C   UNL     1      10.936   4.285  -0.038  0.00  0.00    +0.114 A 
ATOM     34  C   UNL     1      12.443   2.862  -1.812  0.00  0.00    +0.020 A 
ATOM     36  C   UNL     1      11.163   3.306  -2.103  0.00  0.00    +0.111 A 
ENDBRANCH  21  26
ENDBRANCH  20  21
ENDBRANCH  10  20
ENDBRANCH  13  17
BRANCH   8   1
ATOM      1  S   UNL     1      10.071   5.583   5.156  0.00  0.00    +0.062 S 
ATOM      2  O   UNL     1      10.467   4.279   4.667  0.00  0.00    -0.153 OA
ATOM      3  O   UNL     1       8.975   6.306   4.544  0.00  0.00    -0.153 OA
BRANCH   1  19
ATOM     19  C   UNL     1       9.722   5.430   6.881  0.00  0.00    +0.106 A 
ATOM     23  C   UNL     1       9.916   4.208   7.526  0.00  0.00    +0.028 A 
ATOM     24  C   UNL     1       9.248   6.530   7.597  0.00  0.00    +0.028 A 
ATOM     29  C   UNL     1       9.636   4.086   8.886  0.00  0.00    +0.002 A 
ATOM     30  C   UNL     1       8.969   6.407   8.957  0.00  0.00    +0.002 A 
ATOM     31  C   UNL     1       9.163   5.186   9.602  0.00  0.00    +0.000 A 
ENDBRANCH   1  19
ENDBRANCH   8   1
BRANCH  11  22
ATOM     22  C   UNL     1      16.946   9.787   5.958  0.00  0.00    +0.068 C 
ATOM     27  C   UNL     1      18.140   8.872   6.203  0.00  0.00    +0.027 C 
ATOM     28  C   UNL     1      16.927  10.946   6.947  0.00  0.00    +0.027 C 
ENDBRANCH  11  22
TORSDOF 9
ENDMDL
MODEL 2
REMARK VINA RESULT:      -6.4      1.784      2.353
REMARK  Name = 26763581
REMARK  12 active torsions:
REMARK  status: ('A' for Active; 'I' for Inactive)
REMARK    1  A    between atoms: S_1  and  N_8
REMARK    2  A    between atoms: S_1  and  C_19
REMARK    3  A    between atoms: O_6  and  C_25
REMARK    4  A    between atoms: O_6  and  C_35
REMARK    5  A    between atoms: N_10  and  C_20
REMARK    6  A    between atoms: N_11  and  C_22
REMARK    7  A    between atoms: C_13  and  C_17
REMARK    8  A    between atoms: C_20  and  C_21
REMARK    9  A    between atoms: C_20  and  C_25
REMARK   10  A    between atoms: C_21  and  C_26
REMARK   11  A    between atoms: C_22  and  C_27
REMARK   12  A    between atoms: C_22  and  C_28
REMARK                            x       y       z     vdW  Elec       q    Type
REMARK                         _______ _______ _______ _____ _____    ______ ____
ROOT
ATOM      5  O   UNL     1      15.565  10.125   4.603  0.00  0.00    -0.253 OA
ATOM      8  N   UNL     1      12.035   6.715   5.524  0.00  0.00    -0.162 NA
ATOM      9  N   UNL     1      14.360   8.394   5.578  0.00  0.00    -0.282 N 
ATOM     11  N   UNL     1      16.718   8.414   5.621  0.00  0.00    -0.297 N 
ATOM     13  C   UNL     1      12.052   7.977   4.733  0.00  0.00    +0.183 C 
ATOM     14  C   UNL     1      13.067   8.996   5.247  0.00  0.00    +0.139 C 
ATOM     15  C   UNL     1      12.908   6.727   6.726  0.00  0.00    +0.129 C 
ATOM     16  C   UNL     1      14.319   7.124   6.313  0.00  0.00    +0.126 C 
ATOM     18  C   UNL     1      15.549   9.057   5.223  0.00  0.00    +0.303 C 
ATOM     38  H   UNL     1      16.674   7.487   6.028  0.00  0.00    +0.150 HD
ENDROOT
BRANCH  13  17
ATOM      4  O   UNL     1      12.294   8.299   2.383  0.00  0.00    -0.274 OA
ATOM     10  N   UNL     1      12.770   6.209   3.291  0.00  0.00    -0.301 N 
ATOM     17  C   UNL     1      12.385   7.538   3.342  0.00  0.00    +0.234 C 
ATOM     37  H   UNL     1      12.786   5.663   4.147  0.00  0.00    +0.150 HD
BRANCH  10  20
ATOM     20  C   UNL     1      13.123   5.537   2.062  0.00  0.00    +0.186 C 
BRANCH  20  25
ATOM      7  O   UNL     1      15.133   4.197   1.992  0.00  0.00    -0.249 OA
ATOM     25  C   UNL     1      14.625   5.312   1.942  0.00  0.00    +0.328 C 
BRANCH  25   6
ATOM      6  O   UNL     1      15.309   6.481   1.794  0.00  0.00    -0.467 OA
ATOM     35  C   UNL     1      15.736   6.787   0.463  0.00  0.00    +0.280 C 
ENDBRANCH  25   6
ENDBRANCH  20  25
BRANCH  20  21
ATOM     21  C   UNL     1      12.331   4.234   1.874  0.00  0.00    +0.070 C 
BRANCH  21  26
ATOM     12  N   UNL     1      10.322   4.147  -1.340  0.00  0.00    -0.263 NA
ATOM     26  C   UNL     1      11.938   3.934   0.445  0.00  0.00    -0.027 A 
ATOM     32  C   UNL     1      12.774   3.201  -0.390  0.00  0.00    +0.006 A 
ATOM     33  C   UNL     1      10.734   4.380  -0.074  0.00  0.00    +0.114 A 
ATOM     34  C   UNL     1      12.385   2.939  -1.699  0.00  0.00    +0.020 A 
ATOM     36  C   UNL     1      11.160   3.429  -2.121  0.00  0.00    +0.111 A 
ENDBRANCH  21  26
ENDBRANCH  20  21
ENDBRANCH  10  20
ENDBRANCH  13  17
BRANCH   8   1
ATOM      1  S   UNL     1      10.521   5.940   5.702  0.00  0.00    +0.062 S 
ATOM      2  O   UNL     1      10.326   5.591   7.094  0.00  0.00    -0.153 OA
ATOM      3  O   UNL     1      10.373   4.947   4.658  0.00  0.00    -0.153 OA
BRANCH   1  19
ATOM     19  C   UNL     1       9.438   7.284   5.326  0.00  0.00    +0.106 A 
ATOM     23  C   UNL     1       9.248   8.308   6.255  0.00  0.00    +0.028 A 
ATOM     24  C   UNL     1       8.770   7.320   4.102  0.00  0.00    +0.028 A 
ATOM     29  C   UNL     1       8.390   9.366   5.960  0.00  0.00    +0.002 A 
ATOM     30  C   UNL     1       7.912   8.379   3.808  0.00  0.00    +0.002 A 
ATOM     31  C   UNL     1       7.722   9.402   4.736  0.00  0.00    +0.000 A 
ENDBRANCH   1  19
ENDBRANCH   8   1
BRANCH  11  22
ATOM     22  C   UNL     1      18.031   8.949   5.339  0.00  0.00    +0.068 C 
ATOM     27  C   UNL     1      18.616   8.289   4.097  0.00  0.00    +0.027 C 
ATOM     28  C   UNL     1      18.949   8.775   6.542  0.00  0.00    +0.027 C 
ENDBRANCH  11  22
TORSDOF 9
ENDMDL
MODEL 3
REMARK VINA RESULT:      -6.3      2.205      3.030
REMARK  Name = 26763581
REMARK  12 active torsions:
REMARK  status: ('A' for Active; 'I' for Inactive)
REMARK    1  A    between atoms: S_1  and  N_8
REMARK    2  A    between atoms: S_1  and  C_19
REMARK    3  A    between atoms: O_6  and  C_25
REMARK    4  A    between atoms: O_6  and  C_35
REMARK    5  A    between atoms: N_10  and  C_20
REMARK    6  A    between atoms: N_11  and  C_22
REMARK    7  A    between atoms: C_13  and  C_17
REMARK    8  A    between atoms: C_20  and  C_21
REMARK    9  A    between atoms: C_20  and  C_25
REMARK   10  A    between atoms: C_21  and  C_26
REMARK   11  A    between atoms: C_22  and  C_27
REMARK   12  A    between atoms: C_22  and  C_28
REMARK                            x       y       z     vdW  Elec       q    Type
REMARK                         _______ _______ _______ _____ _____    ______ ____
ROOT
ATOM      5  O   UNL     1      15.966   9.713   3.733  0.00  0.00    -0.253 OA
ATOM      8  N   UNL     1      12.318   6.762   5.444  0.00  0.00    -0.162 NA
ATOM      9  N   UNL     1      14.600   8.475   5.148  0.00  0.00    -0.282 N 
ATOM     11  N   UNL     1      16.911   8.690   5.563  0.00  0.00    -0.297 N 
ATOM     13  C   UNL     1      12.482   7.565   4.199  0.00  0.00    +0.183 C 
ATOM     14  C   UNL     1      13.390   8.779   4.382  0.00  0.00    +0.139 C 
ATOM     15  C   UNL     1      12.960   7.350   6.647  0.00  0.00    +0.129 C 
ATOM     16  C   UNL     1      14.423   7.640   6.341  0.00  0.00    +0.126 C 
ATOM     18  C   UNL     1      15.836   9.012   4.741  0.00  0.00    +0.303 C 
ATOM     38  H   UNL     1      16.792   8.024   6.318  0.00  0.00    +0.150 HD
ENDROOT
BRANCH  13  17
ATOM      4  O   UNL     1      14.271   6.426   3.110  0.00  0.00    -0.274 OA
ATOM     10  N   UNL     1      12.083   5.988   2.446  0.00  0.00    -0.301 N 
ATOM     17  C   UNL     1      13.060   6.603   3.210  0.00  0.00    +0.234 C 
ATOM     37  H   UNL     1      11.108   6.229   2.597  0.00  0.00    +0.150 HD
BRANCH  10  20
ATOM     20  C   UNL     1      12.381   5.033   1.404  0.00  0.00    +0.186 C 
BRANCH  20  25
ATOM      7  O   UNL     1      11.424   3.170   2.611  0.00  0.00    -0.249 OA
ATOM     25  C   UNL     1      12.338   3.597   1.913  0.00  0.00    +0.328 C 
BRANCH  25   6
ATOM      6  O   UNL     1      13.426   2.878   1.517  0.00  0.00    -0.467 OA
ATOM     35  C   UNL     1      14.684   3.552   1.615  0.00  0.00    +0.280 C 
ENDBRANCH  25   6
ENDBRANCH  20  25
BRANCH  20  21
ATOM     21  C   UNL     1      11.487   5.231   0.171  0.00  0.00    +0.070 C 
BRANCH  21  26
ATOM     12  N   UNL     1      13.610   4.036  -2.733  0.00  0.00    -0.263 NA
ATOM     26  C   UNL     1      11.923   4.462  -1.056  0.00  0.00    -0.027 A 
ATOM     32  C   UNL     1      11.094   3.509  -1.637  0.00  0.00    +0.006 A 
ATOM     33  C   UNL     1      13.160   4.686  -1.637  0.00  0.00    +0.114 A 
ATOM     34  C   UNL     1      11.521   2.819  -2.766  0.00  0.00    +0.020 A 
ATOM     36  C   UNL     1      12.777   3.117  -3.271  0.00  0.00    +0.111 A 
ENDBRANCH  21  26
ENDBRANCH  20  21
ENDBRANCH  10  20
ENDBRANCH  13  17
BRANCH   8   1
ATOM      1  S   UNL     1      10.795   6.024   5.687  0.00  0.00    +0.062 S 
ATOM      2  O   UNL     1      10.593   5.809   7.105  0.00  0.00    -0.153 OA
ATOM      3  O   UNL     1      10.639   4.940   4.740  0.00  0.00    -0.153 OA
BRANCH   1  19
ATOM     19  C   UNL     1       9.729   7.339   5.184  0.00  0.00    +0.106 A 
ATOM     23  C   UNL     1       9.567   8.458   6.002  0.00  0.00    +0.028 A 
ATOM     24  C   UNL     1       9.045   7.257   3.971  0.00  0.00    +0.028 A 
ATOM     29  C   UNL     1       8.722   9.494   5.607  0.00  0.00    +0.002 A 
ATOM     30  C   UNL     1       8.201   8.294   3.576  0.00  0.00    +0.002 A 
ATOM     31  C   UNL     1       8.039   9.412   4.393  0.00  0.00    +0.000 A 
ENDBRANCH   1  19
ENDBRANCH   8   1
BRANCH  11  22
ATOM     22  C   UNL     1      18.255   9.153   5.298  0.00  0.00    +0.068 C 
ATOM     27  C   UNL     1      18.989   8.160   4.405  0.00  0.00    +0.027 C 
ATOM     28  C   UNL     1      19.009   9.385   6.601  0.00  0.00    +0.027 C 
ENDBRANCH  11  22
TORSDOF 9
ENDMDL
MODEL 4
REMARK VINA RESULT:      -6.3      2.052      2.748
REMARK  Name = 26763581
REMARK  12 active torsions:
REMARK  status: ('A' for Active; 'I' for Inactive)
REMARK    1  A    between atoms: S_1  and  N_8
REMARK    2  A    between atoms: S_1  and  C_19
REMARK    3  A    between atoms: O_6  and  C_25
REMARK    4  A    between atoms: O_6  and  C_35
REMARK    5  A    between atoms: N_10  and  C_20
REMARK    6  A    between atoms: N_11  and  C_22
REMARK    7  A    between atoms: C_13  and  C_17
REMARK    8  A    between atoms: C_20  and  C_21
REMARK    9  A    between atoms: C_20  and  C_25
REMARK   10  A    between atoms: C_21  and  C_26
REMARK   11  A    between atoms: C_22  and  C_27
REMARK   12  A    between atoms: C_22  and  C_28
REMARK                            x       y       z     vdW  Elec       q    Type
REMARK                         _______ _______ _______ _____ _____    ______ ____
ROOT
ATOM      5  O   UNL     1      15.779   9.730   2.464  0.00  0.00    -0.253 OA
ATOM      8  N   UNL     1      12.085   6.396   2.880  0.00  0.00    -0.162 NA
ATOM      9  N   UNL     1      14.223   8.250   3.350  0.00  0.00    -0.282 N 
ATOM     11  N   UNL     1      16.344   8.530   4.343  0.00  0.00    -0.297 N 
ATOM     13  C   UNL     1      12.473   7.361   1.813  0.00  0.00    +0.183 C 
ATOM     14  C   UNL     1      13.209   8.587   2.350  0.00  0.00    +0.139 C 
ATOM     15  C   UNL     1      12.372   6.855   4.263  0.00  0.00    +0.129 C 
ATOM     16  C   UNL     1      13.837   7.259   4.361  0.00  0.00    +0.126 C 
ATOM     18  C   UNL     1      15.471   8.899   3.323  0.00  0.00    +0.303 C 
ATOM     38  H   UNL     1      16.104   7.766   4.965  0.00  0.00    +0.150 HD
ENDROOT
BRANCH  13  17
ATOM      4  O   UNL     1      14.136   7.106   0.124  0.00  0.00    -0.274 OA
ATOM     10  N   UNL     1      13.132   5.204   1.016  0.00  0.00    -0.301 N 
ATOM     17  C   UNL     1      13.346   6.567   0.895  0.00  0.00    +0.234 C 
ATOM     37  H   UNL     1      12.433   4.868   1.671  0.00  0.00    +0.150 HD
BRANCH  10  20
ATOM     20  C   UNL     1      13.834   4.221   0.223  0.00  0.00    +0.186 C 
BRANCH  20  25
ATOM      7  O   UNL     1      15.158   3.273   2.008  0.00  0.00    -0.249 OA
ATOM     25  C   UNL     1      15.129   3.769   0.887  0.00  0.00    +0.328 C 
BRANCH  25   6
ATOM      6  O   UNL     1      16.217   3.998   0.100  0.00  0.00    -0.467 OA
ATOM     35  C   UNL     1      15.938   4.458  -1.226  0.00  0.00    +0.280 C 
ENDBRANCH  25   6
ENDBRANCH  20  25
BRANCH  20  21
ATOM     21  C   UNL     1      12.933   3.034  -0.147  0.00  0.00    +0.070 C 
BRANCH  21  26
ATOM     12  N   UNL     1      10.109   4.186  -2.398  0.00  0.00    -0.263 NA
ATOM     26  C   UNL     1      12.090   3.242  -1.385  0.00  0.00    -0.027 A 
ATOM     32  C   UNL     1      12.475   2.714  -2.612  0.00  0.00    +0.006 A 
ATOM     33  C   UNL     1      10.909   3.964  -1.332  0.00  0.00    +0.114 A 
ATOM     34  C   UNL     1      11.678   2.920  -3.732  0.00  0.00    +0.020 A 
ATOM     36  C   UNL     1      10.515   3.656  -3.574  0.00  0.00    +0.111 A 
ENDBRANCH  21  26
ENDBRANCH  20  21
ENDBRANCH  10  20
ENDBRANCH  13  17
BRANCH   8   1
ATOM      1  S   UNL     1      10.614   5.554   2.657  0.00  0.00    +0.062 S 
ATOM      2  O   UNL     1      10.839   4.139   2.867  0.00  0.00    -0.153 OA
ATOM      3  O   UNL     1       9.974   6.034   1.449  0.00  0.00    -0.153 OA
BRANCH   1  19
ATOM     19  C   UNL     1       9.694   6.164   4.035  0.00  0.00    +0.106 A 
ATOM     23  C   UNL     1       9.732   5.487   5.254  0.00  0.00    +0.028 A 
ATOM     24  C   UNL     1       8.926   7.322   3.904  0.00  0.00    +0.028 A 
ATOM     29  C   UNL     1       9.002   5.966   6.341  0.00  0.00    +0.002 A 
ATOM     30  C   UNL     1       8.197   7.801   4.991  0.00  0.00    +0.002 A 
ATOM     31  C   UNL     1       8.235   7.124   6.210  0.00  0.00    +0.000 A 
ENDBRANCH   1  19
ENDBRANCH   8   1
BRANCH  11  22
ATOM     22  C   UNL     1      17.669   9.093   4.471  0.00  0.00    +0.068 C 
ATOM     27  C   UNL     1      18.718   8.078   4.032  0.00  0.00    +0.027 C 
ATOM     28  C   UNL     1      17.917   9.561   5.899  0.00  0.00    +0.027 C 
ENDBRANCH  11  22
TORSDOF 9
ENDMDL
MODEL 5
REMARK VINA RESULT:      -6.3      2.578      6.912
REMARK  Name = 26763581
REMARK  12 active torsions:
REMARK  status: ('A' for Active; 'I' for Inactive)
REMARK    1  A    between atoms: S_1  and  N_8
REMARK    2  A    between atoms: S_1  and  C_19
REMARK    3  A    between atoms: O_6  and  C_25
REMARK    4  A    between atoms: O_6  and  C_35
REMARK    5  A    between atoms: N_10  and  C_20
REMARK    6  A    between atoms: N_11  and  C_22
REMARK    7  A    between atoms: C_13  and  C_17
REMARK    8  A    between atoms: C_20  and  C_21
REMARK    9  A    between atoms: C_20  and  C_25
REMARK   10  A    between atoms: C_21  and  C_26
REMARK   11  A    between atoms: C_22  and  C_27
REMARK   12  A    between atoms: C_22  and  C_28
REMARK                            x       y       z     vdW  Elec       q    Type
REMARK                         _______ _______ _______ _____ _____    ______ ____
ROOT
ATOM      5  O   UNL     1      11.914   6.518   0.092  0.00  0.00    -0.253 OA
ATOM      8  N   UNL     1      13.874   7.131   4.644  0.00  0.00    -0.162 NA
ATOM      9  N   UNL     1      13.430   6.685   1.846  0.00  0.00    -0.282 N 
ATOM     11  N   UNL     1      13.799   5.200   0.051  0.00  0.00    -0.297 N 
ATOM     13  C   UNL     1      12.574   7.526   4.032  0.00  0.00    +0.183 C 
ATOM     14  C   UNL     1      12.660   7.732   2.520  0.00  0.00    +0.139 C 
ATOM     15  C   UNL     1      15.025   7.131   3.706  0.00  0.00    +0.129 C 
ATOM     16  C   UNL     1      14.681   6.276   2.494  0.00  0.00    +0.126 C 
ATOM     18  C   UNL     1      12.970   6.161   0.623  0.00  0.00    +0.303 C 
ATOM     38  H   UNL     1      14.600   4.850   0.565  0.00  0.00    +0.150 HD
ENDROOT
BRANCH  13  17
ATOM      4  O   UNL     1      11.549   5.406   3.659  0.00  0.00    -0.274 OA
ATOM     10  N   UNL     1      10.935   6.643   5.533  0.00  0.00    -0.301 N 
ATOM     17  C   UNL     1      11.648   6.402   4.371  0.00  0.00    +0.234 C 
ATOM     37  H   UNL     1      11.078   7.516   6.031  0.00  0.00    +0.150 HD
BRANCH  10  20
ATOM     20  C   UNL     1       9.958   5.722   6.065  0.00  0.00    +0.186 C 
BRANCH  20  25
ATOM      7  O   UNL     1      10.192   6.667   8.277  0.00  0.00    -0.249 OA
ATOM     25  C   UNL     1       9.985   5.674   7.588  0.00  0.00    +0.328 C 
BRANCH  25   6
ATOM      6  O   UNL     1       9.771   4.416   8.067  0.00  0.00    -0.467 OA
ATOM     35  C   UNL     1       9.382   4.332   9.440  0.00  0.00    +0.280 C 
ENDBRANCH  25   6
ENDBRANCH  20  25
BRANCH  20  21
ATOM     21  C   UNL     1       8.548   6.006   5.525  0.00  0.00    +0.070 C 
BRANCH  21  26
ATOM     12  N   UNL     1       8.070   8.911   3.136  0.00  0.00    -0.263 NA
ATOM     26  C   UNL     1       8.340   7.415   5.015  0.00  0.00    -0.027 A 
ATOM     32  C   UNL     1       8.231   8.487   5.893  0.00  0.00    +0.006 A 
ATOM     33  C   UNL     1       8.253   7.678   3.658  0.00  0.00    +0.114 A 
ATOM     34  C   UNL     1       8.043   9.771   5.395  0.00  0.00    +0.020 A 
ATOM     36  C   UNL     1       7.970   9.929   4.020  0.00  0.00    +0.111 A 
ENDBRANCH  21  26
ENDBRANCH  20  21
ENDBRANCH  10  20
ENDBRANCH  13  17
BRANCH   8   1
ATOM      1  S   UNL     1      14.188   7.714   6.221  0.00  0.00    +0.062 S 
ATOM      2  O   UNL     1      15.606   7.974   6.357  0.00  0.00    -0.153 OA
ATOM      3  O   UNL     1      13.489   6.884   7.180  0.00  0.00    -0.153 OA
BRANCH   1  19
ATOM     19  C   UNL     1      13.358   9.271   6.147  0.00  0.00    +0.106 A 
ATOM     23  C   UNL     1      13.859  10.291   5.338  0.00  0.00    +0.028 A 
ATOM     24  C   UNL     1      12.204   9.483   6.903  0.00  0.00    +0.028 A 
ATOM     29  C   UNL     1      13.206  11.522   5.284  0.00  0.00    +0.002 A 
ATOM     30  C   UNL     1      11.552  10.713   6.848  0.00  0.00    +0.002 A 
ATOM     31  C   UNL     1      12.052  11.734   6.038  0.00  0.00    +0.000 A 
ENDBRANCH   1  19
ENDBRANCH   8   1
BRANCH  11  22
ATOM     22  C   UNL     1      13.485   4.553  -1.202  0.00  0.00    +0.068 C 
ATOM     27  C   UNL     1      12.801   3.215  -0.949  0.00  0.00    +0.027 C 
ATOM     28  C   UNL     1      14.742   4.380  -2.046  0.00  0.00    +0.027 C 
ENDBRANCH  11  22
TORSDOF 9
ENDMDL
MODEL 6
REMARK VINA RESULT:      -6.1     24.956     28.654
REMARK  Name = 26763581
REMARK  12 active torsions:
REMARK  status: ('A' for Active; 'I' for Inactive)
REMARK    1  A    between atoms: S_1  and  N_8
REMARK    2  A    between atoms: S_1  and  C_19
REMARK    3  A    between atoms: O_6  and  C_25
REMARK    4  A    between atoms: O_6  and  C_35
REMARK    5  A    between atoms: N_10  and  C_20
REMARK    6  A    between atoms: N_11  and  C_22
REMARK    7  A    between atoms: C_13  and  C_17
REMARK    8  A    between atoms: C_20  and  C_21
REMARK    9  A    between atoms: C_20  and  C_25
REMARK   10  A    between atoms: C_21  and  C_26
REMARK   11  A    between atoms: C_22  and  C_27
REMARK   12  A    between atoms: C_22  and  C_28
REMARK                            x       y       z     vdW  Elec       q    Type
REMARK                         _______ _______ _______ _____ _____    ______ ____
ROOT
ATOM      5  O   UNL     1      -5.685 -11.870  11.681  0.00  0.00    -0.253 OA
ATOM      8  N   UNL     1      -9.517 -10.426  14.539  0.00  0.00    -0.162 NA
ATOM      9  N   UNL     1      -7.695 -10.940  12.384  0.00  0.00    -0.282 N 
ATOM     11  N   UNL     1      -6.432  -9.951  10.655  0.00  0.00    -0.297 N 
ATOM     13  C   UNL     1      -8.461 -11.465  14.698  0.00  0.00    +0.183 C 
ATOM     14  C   UNL     1      -7.937 -11.999  13.366  0.00  0.00    +0.139 C 
ATOM     15  C   UNL     1      -9.948 -10.192  13.137  0.00  0.00    +0.129 C 
ATOM     16  C   UNL     1      -8.724  -9.899  12.281  0.00  0.00    +0.126 C 
ATOM     18  C   UNL     1      -6.541 -10.986  11.580  0.00  0.00    +0.303 C 
ATOM     38  H   UNL     1      -7.093  -9.183  10.673  0.00  0.00    +0.150 HD
ENDROOT
BRANCH  13  17
ATOM      4  O   UNL     1      -7.083  -9.603  15.263  0.00  0.00    -0.274 OA
ATOM     10  N   UNL     1      -6.768 -11.621  16.380  0.00  0.00    -0.301 N 
ATOM     17  C   UNL     1      -7.378 -10.778  15.467  0.00  0.00    +0.234 C 
ATOM     37  H   UNL     1      -7.077 -12.586  16.448  0.00  0.00    +0.150 HD
BRANCH  10  20
ATOM     20  C   UNL     1      -5.677 -11.206  17.231  0.00  0.00    +0.186 C 
BRANCH  20  25
ATOM      7  O   UNL     1      -6.051 -10.230  19.410  0.00  0.00    -0.249 OA
ATOM     25  C   UNL     1      -6.058 -11.234  18.707  0.00  0.00    +0.328 C 
BRANCH  25   6
ATOM      6  O   UNL     1      -6.382 -12.488  19.130  0.00  0.00    -0.467 OA
ATOM     35  C   UNL     1      -7.729 -12.663  19.580  0.00  0.00    +0.280 C 
ENDBRANCH  25   6
ENDBRANCH  20  25
BRANCH  20  21
ATOM     21  C   UNL     1      -4.397 -12.009  16.954  0.00  0.00    +0.070 C 
BRANCH  21  26
ATOM     12  N   UNL     1      -2.928 -10.710  13.709  0.00  0.00    -0.263 NA
ATOM     26  C   UNL     1      -3.441 -11.356  15.982  0.00  0.00    -0.027 A 
ATOM     32  C   UNL     1      -2.235 -10.816  16.415  0.00  0.00    +0.006 A 
ATOM     33  C   UNL     1      -3.737 -11.278  14.631  0.00  0.00    +0.114 A 
ATOM     34  C   UNL     1      -1.374 -10.224  15.497  0.00  0.00    +0.020 A 
ATOM     36  C   UNL     1      -1.764 -10.197  14.167  0.00  0.00    +0.111 A 
ENDBRANCH  21  26
ENDBRANCH  20  21
ENDBRANCH  10  20
ENDBRANCH  13  17
BRANCH   8   1
ATOM      1  S   UNL     1     -10.753 -10.400  15.721  0.00  0.00    +0.062 S 
ATOM      2  O   UNL     1     -10.177 -10.694  17.016  0.00  0.00    -0.153 OA
ATOM      3  O   UNL     1     -11.894 -11.144  15.228  0.00  0.00    -0.153 OA
BRANCH   1  19
ATOM     19  C   UNL     1     -11.172  -8.685  15.694  0.00  0.00    +0.106 A 
ATOM     23  C   UNL     1     -12.504  -8.294  15.549  0.00  0.00    +0.028 A 
ATOM     24  C   UNL     1     -10.171  -7.720  15.813  0.00  0.00    +0.028 A 
ATOM     29  C   UNL     1     -12.835  -6.940  15.523  0.00  0.00    +0.002 A 
ATOM     30  C   UNL     1     -10.503  -6.366  15.788  0.00  0.00    +0.002 A 
ATOM     31  C   UNL     1     -11.834  -5.975  15.643  0.00  0.00    +0.000 A 
ENDBRANCH   1  19
ENDBRANCH   8   1
BRANCH  11  22
ATOM     22  C   UNL     1      -5.312  -9.838   9.748  0.00  0.00    +0.068 C 
ATOM     27  C   UNL     1      -4.324  -8.796  10.257  0.00  0.00    +0.027 C 
ATOM     28  C   UNL     1      -5.793  -9.502   8.342  0.00  0.00    +0.027 C 
ENDBRANCH  11  22
TORSDOF 9
ENDMDL
MODEL 7
REMARK VINA RESULT:      -6.0     25.987     30.434
REMARK  Name = 26763581
REMARK  12 active torsions:
REMARK  status: ('A' for Active; 'I' for Inactive)
REMARK    1  A    between atoms: S_1  and  N_8
REMARK    2  A    between atoms: S_1  and  C_19
REMARK    3  A    between atoms: O_6  and  C_25
REMARK    4  A    between atoms: O_6  and  C_35
REMARK    5  A    between atoms: N_10  and  C_20
REMARK    6  A    between atoms: N_11  and  C_22
REMARK    7  A    between atoms: C_13  and  C_17
REMARK    8  A    between atoms: C_20  and  C_21
REMARK    9  A    between atoms: C_20  and  C_25
REMARK   10  A    between atoms: C_21  and  C_26
REMARK   11  A    between atoms: C_22  and  C_27
REMARK   12  A    between atoms: C_22  and  C_28
REMARK                            x       y       z     vdW  Elec       q    Type
REMARK                         _______ _______ _______ _____ _____    ______ ____
ROOT
ATOM      5  O   UNL     1      -3.863 -13.161  14.616  0.00  0.00    -0.253 OA
ATOM      8  N   UNL     1      -8.500 -11.401  15.197  0.00  0.00    -0.162 NA
ATOM      9  N   UNL     1      -5.738 -11.792  14.528  0.00  0.00    -0.282 N 
ATOM     11  N   UNL     1      -3.569 -10.881  14.699  0.00  0.00    -0.297 N 
ATOM     13  C   UNL     1      -7.914 -12.770  15.251  0.00  0.00    +0.183 C 
ATOM     14  C   UNL     1      -6.659 -12.922  14.394  0.00  0.00    +0.139 C 
ATOM     15  C   UNL     1      -7.836 -10.483  14.236  0.00  0.00    +0.129 C 
ATOM     16  C   UNL     1      -6.342 -10.454  14.523  0.00  0.00    +0.126 C 
ATOM     18  C   UNL     1      -4.353 -12.028  14.613  0.00  0.00    +0.303 C 
ATOM     38  H   UNL     1      -4.007  -9.973  14.806  0.00  0.00    +0.150 HD
ENDROOT
BRANCH  13  17
ATOM      4  O   UNL     1      -7.315 -14.092  17.142  0.00  0.00    -0.274 OA
ATOM     10  N   UNL     1      -7.715 -11.817  17.436  0.00  0.00    -0.301 N 
ATOM     17  C   UNL     1      -7.607 -12.985  16.699  0.00  0.00    +0.234 C 
ATOM     37  H   UNL     1      -7.989 -10.959  16.968  0.00  0.00    +0.150 HD
BRANCH  10  20
ATOM     20  C   UNL     1      -7.491 -11.761  18.862  0.00  0.00    +0.186 C 
BRANCH  20  25
ATOM      7  O   UNL     1      -6.279 -10.187  20.238  0.00  0.00    -0.249 OA
ATOM     25  C   UNL     1      -6.307 -10.871  19.221  0.00  0.00    +0.328 C 
BRANCH  25   6
ATOM      6  O   UNL     1      -5.322 -10.923  18.281  0.00  0.00    -0.467 OA
ATOM     35  C   UNL     1      -4.321 -11.924  18.486  0.00  0.00    +0.280 C 
ENDBRANCH  25   6
ENDBRANCH  20  25
BRANCH  20  21
ATOM     21  C   UNL     1      -8.762 -11.362  19.626  0.00  0.00    +0.070 C 
BRANCH  21  26
ATOM     12  N   UNL     1      -9.631 -14.840  20.860  0.00  0.00    -0.263 NA
ATOM     26  C   UNL     1      -9.562 -12.524  20.171  0.00  0.00    -0.027 A 
ATOM     32  C   UNL     1     -10.911 -12.384  20.478  0.00  0.00    +0.006 A 
ATOM     33  C   UNL     1      -8.975 -13.761  20.378  0.00  0.00    +0.114 A 
ATOM     34  C   UNL     1     -11.622 -13.471  20.975  0.00  0.00    +0.020 A 
ATOM     36  C   UNL     1     -10.942 -14.667  21.146  0.00  0.00    +0.111 A 
ENDBRANCH  21  26
ENDBRANCH  20  21
ENDBRANCH  10  20
ENDBRANCH  13  17
BRANCH   8   1
ATOM      1  S   UNL     1     -10.203 -11.291  15.290  0.00  0.00    +0.062 S 
ATOM      2  O   UNL     1     -10.668 -12.061  16.425  0.00  0.00    -0.153 OA
ATOM      3  O   UNL     1     -10.764 -11.499  13.971  0.00  0.00    -0.153 OA
BRANCH   1  19
ATOM     19  C   UNL     1     -10.382  -9.580  15.690  0.00  0.00    +0.106 A 
ATOM     23  C   UNL     1      -9.943  -9.101  16.924  0.00  0.00    +0.028 A 
ATOM     24  C   UNL     1     -10.968  -8.707  14.772  0.00  0.00    +0.028 A 
ATOM     29  C   UNL     1     -10.088  -7.752  17.241  0.00  0.00    +0.002 A 
ATOM     30  C   UNL     1     -11.112  -7.357  15.089  0.00  0.00    +0.002 A 
ATOM     31  C   UNL     1     -10.672  -6.879  16.323  0.00  0.00    +0.000 A 
ENDBRANCH   1  19
ENDBRANCH   8   1
BRANCH  11  22
ATOM     22  C   UNL     1      -2.128 -10.933  14.796  0.00  0.00    +0.068 C 
ATOM     27  C   UNL     1      -1.682 -10.619  16.218  0.00  0.00    +0.027 C 
ATOM     28  C   UNL     1      -1.489  -9.980  13.793  0.00  0.00    +0.027 C 
ENDBRANCH  11  22
TORSDOF 9
ENDMDL
MODEL 8
REMARK VINA RESULT:      -5.9     24.285     26.755
REMARK  Name = 26763581
REMARK  12 active torsions:
REMARK  status: ('A' for Active; 'I' for Inactive)
REMARK    1  A    between atoms: S_1  and  N_8
REMARK    2  A    between atoms: S_1  and  C_19
REMARK    3  A    between atoms: O_6  and  C_25
REMARK    4  A    between atoms: O_6  and  C_35
REMARK    5  A    between atoms: N_10  and  C_20
REMARK    6  A    between atoms: N_11  and  C_22
REMARK    7  A    between atoms: C_13  and  C_17
REMARK    8  A    between atoms: C_20  and  C_21
REMARK    9  A    between atoms: C_20  and  C_25
REMARK   10  A    between atoms: C_21  and  C_26
REMARK   11  A    between atoms: C_22  and  C_27
REMARK   12  A    between atoms: C_22  and  C_28
REMARK                            x       y       z     vdW  Elec       q    Type
REMARK                         _______ _______ _______ _____ _____    ______ ____
ROOT
ATOM      5  O   UNL     1      -9.151 -10.639  14.700  0.00  0.00    -0.253 OA
ATOM      8  N   UNL     1      -4.162 -10.572  14.888  0.00  0.00    -0.162 NA
ATOM      9  N   UNL     1      -6.968 -10.331  15.432  0.00  0.00    -0.282 N 
ATOM     11  N   UNL     1      -8.685  -8.840  16.056  0.00  0.00    -0.297 N 
ATOM     13  C   UNL     1      -5.141 -11.333  14.063  0.00  0.00    +0.183 C 
ATOM     14  C   UNL     1      -6.484 -11.539  14.761  0.00  0.00    +0.139 C 
ATOM     15  C   UNL     1      -4.622 -10.264  16.266  0.00  0.00    +0.129 C 
ATOM     16  C   UNL     1      -5.974  -9.568  16.197  0.00  0.00    +0.126 C 
ATOM     18  C   UNL     1      -8.329  -9.985  15.349  0.00  0.00    +0.303 C 
ATOM     38  H   UNL     1      -7.969  -8.266  16.486  0.00  0.00    +0.150 HD
ENDROOT
BRANCH  13  17
ATOM      4  O   UNL     1      -5.830  -9.406  12.840  0.00  0.00    -0.274 OA
ATOM     10  N   UNL     1      -4.803 -11.158  11.701  0.00  0.00    -0.301 N 
ATOM     17  C   UNL     1      -5.298 -10.513  12.822  0.00  0.00    +0.234 C 
ATOM     37  H   UNL     1      -4.405 -12.087  11.798  0.00  0.00    +0.150 HD
BRANCH  10  20
ATOM     20  C   UNL     1      -4.855 -10.588  10.375  0.00  0.00    +0.186 C 
BRANCH  20  25
ATOM      7  O   UNL     1      -2.610  -9.716  10.572  0.00  0.00    -0.249 OA
ATOM     25  C   UNL     1      -3.750  -9.563  10.149  0.00  0.00    +0.328 C 
BRANCH  25   6
ATOM      6  O   UNL     1      -4.191  -8.479   9.450  0.00  0.00    -0.467 OA
ATOM     35  C   UNL     1      -5.543  -8.085   9.703  0.00  0.00    +0.280 C 
ENDBRANCH  25   6
ENDBRANCH  20  25
BRANCH  20  21
ATOM     21  C   UNL     1      -4.866 -11.670   9.285  0.00  0.00    +0.070 C 
BRANCH  21  26
ATOM     12  N   UNL     1      -7.807 -10.860   7.035  0.00  0.00    -0.263 NA
ATOM     26  C   UNL     1      -5.660 -11.314   8.049  0.00  0.00    -0.027 A 
ATOM     32  C   UNL     1      -5.032 -11.119   6.825  0.00  0.00    +0.006 A 
ATOM     33  C   UNL     1      -7.037 -11.174   8.101  0.00  0.00    +0.114 A 
ATOM     34  C   UNL     1      -5.789 -10.795   5.705  0.00  0.00    +0.020 A 
ATOM     36  C   UNL     1      -7.162 -10.678   5.861  0.00  0.00    +0.111 A 
ENDBRANCH  21  26
ENDBRANCH  20  21
ENDBRANCH  10  20
ENDBRANCH  13  17
BRANCH   8   1
ATOM      1  S   UNL     1      -2.516 -11.008  14.723  0.00  0.00    +0.062 S 
ATOM      2  O   UNL     1      -1.900 -11.038  16.033  0.00  0.00    -0.153 OA
ATOM      3  O   UNL     1      -1.930 -10.242  13.642  0.00  0.00    -0.153 OA
BRANCH   1  19
ATOM     19  C   UNL     1      -2.690 -12.676  14.171  0.00  0.00    +0.106 A 
ATOM     23  C   UNL     1      -2.171 -13.061  12.935  0.00  0.00    +0.028 A 
ATOM     24  C   UNL     1      -3.351 -13.610  14.971  0.00  0.00    +0.028 A 
ATOM     29  C   UNL     1      -2.313 -14.376  12.497  0.00  0.00    +0.002 A 
ATOM     30  C   UNL     1      -3.492 -14.926  14.533  0.00  0.00    +0.002 A 
ATOM     31  C   UNL     1      -2.973 -15.310  13.296  0.00  0.00    +0.000 A 
ENDBRANCH   1  19
ENDBRANCH   8   1
BRANCH  11  22
ATOM     22  C   UNL     1     -10.040  -8.335  16.082  0.00  0.00    +0.068 C 
ATOM     27  C   UNL     1     -10.069  -6.877  15.644  0.00  0.00    +0.027 C 
ATOM     28  C   UNL     1     -10.649  -8.508  17.468  0.00  0.00    +0.027 C 
ENDBRANCH  11  22
TORSDOF 9
ENDMDL
MODEL 9
REMARK VINA RESULT:      -5.9      1.648      2.041
REMARK  Name = 26763581
REMARK  12 active torsions:
REMARK  status: ('A' for Active; 'I' for Inactive)
REMARK    1  A    between atoms: S_1  and  N_8
REMARK    2  A    between atoms: S_1  and  C_19
REMARK    3  A    between atoms: O_6  and  C_25
REMARK    4  A    between atoms: O_6  and  C_35
REMARK    5  A    between atoms: N_10  and  C_20
REMARK    6  A    between atoms: N_11  and  C_22
REMARK    7  A    between atoms: C_13  and  C_17
REMARK    8  A    between atoms: C_20  and  C_21
REMARK    9  A    between atoms: C_20  and  C_25
REMARK   10  A    between atoms: C_21  and  C_26
REMARK   11  A    between atoms: C_22  and  C_27
REMARK   12  A    between atoms: C_22  and  C_28
REMARK                            x       y       z     vdW  Elec       q    Type
REMARK                         _______ _______ _______ _____ _____    ______ ____
ROOT
ATOM      5  O   UNL     1      13.643  12.199   5.291  0.00  0.00    -0.253 OA
ATOM      8  N   UNL     1      10.220   8.617   5.911  0.00  0.00    -0.162 NA
ATOM      9  N   UNL     1      12.338  10.525   6.234  0.00  0.00    -0.282 N 
ATOM     11  N   UNL     1      14.596  10.806   6.854  0.00  0.00    -0.297 N 
ATOM     13  C   UNL     1      10.364   9.732   4.934  0.00  0.00    +0.183 C 
ATOM     14  C   UNL     1      11.141  10.923   5.490  0.00  0.00    +0.139 C 
ATOM     15  C   UNL     1      10.745   8.913   7.269  0.00  0.00    +0.129 C 
ATOM     16  C   UNL     1      12.186   9.391   7.153  0.00  0.00    +0.126 C 
ATOM     18  C   UNL     1      13.534  11.248   6.070  0.00  0.00    +0.303 C 
ATOM     38  H   UNL     1      14.506   9.956   7.398  0.00  0.00    +0.150 HD
ENDROOT
BRANCH  13  17
ATOM      4  O   UNL     1      11.310   9.750   2.746  0.00  0.00    -0.274 OA
ATOM     10  N   UNL     1      11.402   7.790   3.999  0.00  0.00    -0.301 N 
ATOM     17  C   UNL     1      11.077   9.118   3.772  0.00  0.00    +0.234 C 
ATOM     37  H   UNL     1      11.137   7.358   4.880  0.00  0.00    +0.150 HD
BRANCH  10  20
ATOM     20  C   UNL     1      12.075   6.965   3.024  0.00  0.00    +0.186 C 
BRANCH  20  25
ATOM      7  O   UNL     1      14.357   6.936   2.228  0.00  0.00    -0.249 OA
ATOM     25  C   UNL     1      13.590   7.011   3.182  0.00  0.00    +0.328 C 
BRANCH  25   6
ATOM      6  O   UNL     1      13.967   7.125   4.486  0.00  0.00    -0.467 OA
ATOM     35  C   UNL     1      15.151   7.892   4.726  0.00  0.00    +0.280 C 
ENDBRANCH  25   6
ENDBRANCH  20  25
BRANCH  20  21
ATOM     21  C   UNL     1      11.541   5.524   3.026  0.00  0.00    +0.070 C 
BRANCH  21  26
ATOM     12  N   UNL     1      10.302   4.438  -0.388  0.00  0.00    -0.263 NA
ATOM     26  C   UNL     1      11.503   4.863   1.667  0.00  0.00    -0.027 A 
ATOM     32  C   UNL     1      12.568   4.095   1.212  0.00  0.00    +0.006 A 
ATOM     33  C   UNL     1      10.403   5.002   0.836  0.00  0.00    +0.114 A 
ATOM     34  C   UNL     1      12.503   3.498  -0.042  0.00  0.00    +0.020 A 
ATOM     36  C   UNL     1      11.358   3.698  -0.796  0.00  0.00    +0.111 A 
ENDBRANCH  21  26
ENDBRANCH  20  21
ENDBRANCH  10  20
ENDBRANCH  13  17
BRANCH   8   1
ATOM      1  S   UNL     1       8.765   7.721   5.846  0.00  0.00    +0.062 S 
ATOM      2  O   UNL     1       8.594   7.191   4.510  0.00  0.00    -0.153 OA
ATOM      3  O   UNL     1       7.712   8.483   6.485  0.00  0.00    -0.153 OA
BRANCH   1  19
ATOM     19  C   UNL     1       9.181   6.375   6.911  0.00  0.00    +0.106 A 
ATOM     23  C   UNL     1       9.743   5.213   6.380  0.00  0.00    +0.028 A 
ATOM     24  C   UNL     1       8.944   6.471   8.282  0.00  0.00    +0.028 A 
ATOM     29  C   UNL     1      10.067   4.149   7.220  0.00  0.00    +0.002 A 
ATOM     30  C   UNL     1       9.270   5.407   9.122  0.00  0.00    +0.002 A 
ATOM     31  C   UNL     1       9.831   4.245   8.592  0.00  0.00    +0.000 A 
ENDBRANCH   1  19
ENDBRANCH   8   1
BRANCH  11  22
ATOM     22  C   UNL     1      15.900  11.429   6.814  0.00  0.00    +0.068 C 
ATOM     27  C   UNL     1      16.967  10.400   6.465  0.00  0.00    +0.027 C 
ATOM     28  C   UNL     1      16.206  12.116   8.139  0.00  0.00    +0.027 C 
ENDBRANCH  11  22
TORSDOF 9
ENDMDL
MODEL 10
REMARK VINA RESULT:      -5.9     23.157     26.526
REMARK  Name = 26763581
REMARK  12 active torsions:
REMARK  status: ('A' for Active; 'I' for Inactive)
REMARK    1  A    between atoms: S_1  and  N_8
REMARK    2  A    between atoms: S_1  and  C_19
REMARK    3  A    between atoms: O_6  and  C_25
REMARK    4  A    between atoms: O_6  and  C_35
REMARK    5  A    between atoms: N_10  and  C_20
REMARK    6  A    between atoms: N_11  and  C_22
REMARK    7  A    between atoms: C_13  and  C_17
REMARK    8  A    between atoms: C_20  and  C_21
REMARK    9  A    between atoms: C_20  and  C_25
REMARK   10  A    between atoms: C_21  and  C_26
REMARK   11  A    between atoms: C_22  and  C_27
REMARK   12  A    between atoms: C_22  and  C_28
REMARK                            x       y       z     vdW  Elec       q    Type
REMARK                         _______ _______ _______ _____ _____    ______ ____
ROOT
ATOM      5  O   UNL     1      17.219  -6.350  30.590  0.00  0.00    -0.253 OA
ATOM      8  N   UNL     1      19.018  -3.121  27.233  0.00  0.00    -0.162 NA
ATOM      9  N   UNL     1      17.693  -4.388  29.439  0.00  0.00    -0.282 N 
ATOM     11  N   UNL     1      15.618  -4.700  30.515  0.00  0.00    -0.297 N 
ATOM     13  C   UNL     1      19.423  -4.494  27.647  0.00  0.00    +0.183 C 
ATOM     14  C   UNL     1      19.047  -4.822  29.090  0.00  0.00    +0.139 C 
ATOM     15  C   UNL     1      18.441  -2.291  28.322  0.00  0.00    +0.129 C 
ATOM     16  C   UNL     1      17.297  -3.053  28.977  0.00  0.00    +0.126 C 
ATOM     18  C   UNL     1      16.869  -5.229  30.211  0.00  0.00    +0.303 C 
ATOM     38  H   UNL     1      15.320  -3.826  30.097  0.00  0.00    +0.150 HD
ENDROOT
BRANCH  13  17
ATOM      4  O   UNL     1      17.491  -5.508  26.686  0.00  0.00    -0.274 OA
ATOM     10  N   UNL     1      19.592  -6.069  25.855  0.00  0.00    -0.301 N 
ATOM     17  C   UNL     1      18.714  -5.395  26.687  0.00  0.00    +0.234 C 
ATOM     37  H   UNL     1      20.591  -5.918  25.960  0.00  0.00    +0.150 HD
BRANCH  10  20
ATOM     20  C   UNL     1      19.161  -7.016  24.853  0.00  0.00    +0.186 C 
BRANCH  20  25
ATOM      7  O   UNL     1      21.157  -6.710  23.525  0.00  0.00    -0.249 OA
ATOM     25  C   UNL     1      19.942  -6.870  23.552  0.00  0.00    +0.328 C 
BRANCH  25   6
ATOM      6  O   UNL     1      19.131  -6.922  22.458  0.00  0.00    -0.467 OA
ATOM     35  C   UNL     1      19.499  -6.068  21.371  0.00  0.00    +0.280 C 
ENDBRANCH  25   6
ENDBRANCH  20  25
BRANCH  20  21
ATOM     21  C   UNL     1      19.188  -8.459  25.380  0.00  0.00    +0.070 C 
BRANCH  21  26
ATOM     12  N   UNL     1      16.527 -10.807  26.714  0.00  0.00    -0.263 NA
ATOM     26  C   UNL     1      17.829  -9.036  25.709  0.00  0.00    -0.027 A 
ATOM     32  C   UNL     1      16.662  -8.380  25.334  0.00  0.00    +0.006 A 
ATOM     33  C   UNL     1      17.708 -10.236  26.391  0.00  0.00    +0.114 A 
ATOM     34  C   UNL     1      15.427  -8.937  25.648  0.00  0.00    +0.020 A 
ATOM     36  C   UNL     1      15.414 -10.142  26.333  0.00  0.00    +0.111 A 
ENDBRANCH  21  26
ENDBRANCH  20  21
ENDBRANCH  10  20
ENDBRANCH  13  17
BRANCH   8   1
ATOM      1  S   UNL     1      20.053  -2.312  26.138  0.00  0.00    +0.062 S 
ATOM      2  O   UNL     1      21.110  -3.213  25.730  0.00  0.00    -0.153 OA
ATOM      3  O   UNL     1      20.357  -0.996  26.661  0.00  0.00    -0.153 OA
BRANCH   1  19
ATOM     19  C   UNL     1      18.958  -2.109  24.767  0.00  0.00    +0.106 A 
ATOM     23  C   UNL     1      18.140  -0.982  24.688  0.00  0.00    +0.028 A 
ATOM     24  C   UNL     1      18.907  -3.080  23.766  0.00  0.00    +0.028 A 
ATOM     29  C   UNL     1      17.273  -0.824  23.608  0.00  0.00    +0.002 A 
ATOM     30  C   UNL     1      18.040  -2.922  22.686  0.00  0.00    +0.002 A 
ATOM     31  C   UNL     1      17.223  -1.794  22.606  0.00  0.00    +0.000 A 
ENDBRANCH   1  19
ENDBRANCH   8   1
BRANCH  11  22
ATOM     22  C   UNL     1      14.641  -5.424  31.297  0.00  0.00    +0.068 C 
ATOM     27  C   UNL     1      13.684  -6.177  30.382  0.00  0.00    +0.027 C 
ATOM     28  C   UNL     1      13.889  -4.476  32.224  0.00  0.00    +0.027 C 
ENDBRANCH  11  22
TORSDOF 9
ENDMDL
