MODEL 1
REMARK VINA RESULT:      -6.8      0.000      0.000
REMARK  Name = 75536676
REMARK  7 active torsions:
REMARK  status: ('A' for Active; 'I' for Inactive)
REMARK    1  A    between atoms: S_1  and  N_8
REMARK    2  A    between atoms: S_1  and  C_19
REMARK    3  A    between atoms: O_3  and  C_10
REMARK    4  A    between atoms: N_7  and  C_9
REMARK    5  A    between atoms: N_7  and  C_12
REMARK    6  A    between atoms: N_8  and  C_16
REMARK    7  A    between atoms: C_11  and  C_16
REMARK                            x       y       z     vdW  Elec       q    Type
REMARK                         _______ _______ _______ _____ _____    ______ ____
ROOT
ATOM      2  O   UNL     1      10.688   8.601  19.599  0.00  0.00    -0.371 OA
ATOM      9  C   UNL     1      12.469   7.075  19.231  0.00  0.00    +0.111 C 
ATOM     10  C   UNL     1      12.329   7.321  20.722  0.00  0.00    +0.164 C 
ATOM     11  C   UNL     1      10.900   7.840  20.800  0.00  0.00    +0.164 C 
ATOM     13  C   UNL     1      11.722   8.268  18.658  0.00  0.00    +0.181 C 
ENDROOT
BRANCH  10   3
ATOM      3  O   UNL     1      12.506   6.146  21.489  0.00  0.00    -0.388 OA
ATOM     26  H   UNL     1      12.155   5.395  20.982  0.00  0.00    +0.210 HD
ENDBRANCH  10   3
BRANCH   9   7
ATOM      7  N   UNL     1      13.850   7.001  18.780  0.00  0.00    -0.306 NA
ATOM     25  H   UNL     1      13.981   7.589  17.958  0.00  0.00    +0.123 HD
BRANCH   7  12
ATOM      4  O   UNL     1      17.425   8.206  20.620  0.00  0.00    -0.380 OA
ATOM     12  C   UNL     1      14.771   7.413  19.836  0.00  0.00    +0.058 C 
ATOM     14  C   UNL     1      15.322   8.818  19.568  0.00  0.00    +0.047 C 
ATOM     15  C   UNL     1      15.924   6.413  19.958  0.00  0.00    +0.047 C 
ATOM     17  C   UNL     1      16.380   9.178  20.605  0.00  0.00    +0.161 C 
ATOM     18  C   UNL     1      16.949   6.906  20.973  0.00  0.00    +0.161 C 
ENDBRANCH   7  12
ENDBRANCH   9   7
BRANCH  11  16
ATOM     16  C   UNL     1      10.643   8.715  22.014  0.00  0.00    +0.140 C 
BRANCH  16   8
ATOM      8  N   UNL     1      11.922   9.017  22.686  0.00  0.00    -0.187 NA
ATOM     27  H   UNL     1      12.058   8.577  23.605  0.00  0.00    +0.148 HD
BRANCH   8   1
ATOM      1  S   UNL     1      12.732  10.477  22.360  0.00  0.00    +0.058 S 
ATOM      5  O   UNL     1      12.610  10.789  20.949  0.00  0.00    -0.153 OA
ATOM      6  O   UNL     1      14.039  10.442  22.989  0.00  0.00    -0.153 OA
BRANCH   1  19
ATOM     19  C   UNL     1      11.756  11.642  23.262  0.00  0.00    +0.105 A 
ATOM     20  C   UNL     1      11.131  12.694  22.593  0.00  0.00    +0.028 A 
ATOM     21  C   UNL     1      11.614  11.510  24.644  0.00  0.00    +0.028 A 
ATOM     22  C   UNL     1      10.363  13.616  23.305  0.00  0.00    +0.002 A 
ATOM     23  C   UNL     1      10.846  12.432  25.356  0.00  0.00    +0.002 A 
ATOM     24  C   UNL     1      10.221  13.485  24.687  0.00  0.00    +0.000 A 
ENDBRANCH   1  19
ENDBRANCH   8   1
ENDBRANCH  16   8
ENDBRANCH  11  16
TORSDOF 7
ENDMDL
MODEL 2
REMARK VINA RESULT:      -6.4      3.987      6.515
REMARK  Name = 75536676
REMARK  7 active torsions:
REMARK  status: ('A' for Active; 'I' for Inactive)
REMARK    1  A    between atoms: S_1  and  N_8
REMARK    2  A    between atoms: S_1  and  C_19
REMARK    3  A    between atoms: O_3  and  C_10
REMARK    4  A    between atoms: N_7  and  C_9
REMARK    5  A    between atoms: N_7  and  C_12
REMARK    6  A    between atoms: N_8  and  C_16
REMARK    7  A    between atoms: C_11  and  C_16
REMARK                            x       y       z     vdW  Elec       q    Type
REMARK                         _______ _______ _______ _____ _____    ______ ____
ROOT
ATOM      2  O   UNL     1      17.891   7.184  21.415  0.00  0.00    -0.371 OA
ATOM      9  C   UNL     1      19.333   5.915  20.018  0.00  0.00    +0.111 C 
ATOM     10  C   UNL     1      17.892   5.597  19.662  0.00  0.00    +0.164 C 
ATOM     11  C   UNL     1      17.175   6.817  20.223  0.00  0.00    +0.164 C 
ATOM     13  C   UNL     1      19.172   6.531  21.399  0.00  0.00    +0.181 C 
ENDROOT
BRANCH  10   3
ATOM      3  O   UNL     1      17.692   5.463  18.268  0.00  0.00    -0.388 OA
ATOM     26  H   UNL     1      17.456   6.335  17.908  0.00  0.00    +0.210 HD
ENDBRANCH  10   3
BRANCH   9   7
ATOM      7  N   UNL     1      20.205   4.752  20.016  0.00  0.00    -0.306 NA
ATOM     25  H   UNL     1      20.617   4.625  19.092  0.00  0.00    +0.123 HD
BRANCH   7  12
ATOM      4  O   UNL     1      23.940   4.260  21.869  0.00  0.00    -0.380 OA
ATOM     12  C   UNL     1      21.262   4.884  21.015  0.00  0.00    +0.058 C 
ATOM     14  C   UNL     1      22.495   5.576  20.425  0.00  0.00    +0.047 C 
ATOM     15  C   UNL     1      21.648   3.509  21.568  0.00  0.00    +0.047 C 
ATOM     17  C   UNL     1      23.632   5.586  21.439  0.00  0.00    +0.161 C 
ATOM     18  C   UNL     1      22.833   3.634  22.519  0.00  0.00    +0.161 C 
ENDBRANCH   7  12
ENDBRANCH   9   7
BRANCH  11  16
ATOM     16  C   UNL     1      15.719   6.555  20.561  0.00  0.00    +0.140 C 
BRANCH  16   8
ATOM      8  N   UNL     1      14.946   6.377  19.316  0.00  0.00    -0.187 NA
ATOM     27  H   UNL     1      15.347   5.724  18.631  0.00  0.00    +0.148 HD
BRANCH   8   1
ATOM      1  S   UNL     1      13.944   7.629  18.749  0.00  0.00    +0.058 S 
ATOM      5  O   UNL     1      13.380   7.251  17.467  0.00  0.00    -0.153 OA
ATOM      6  O   UNL     1      14.640   8.893  18.895  0.00  0.00    -0.153 OA
BRANCH   1  19
ATOM     19  C   UNL     1      12.640   7.618  19.942  0.00  0.00    +0.105 A 
ATOM     20  C   UNL     1      12.254   6.420  20.543  0.00  0.00    +0.028 A 
ATOM     21  C   UNL     1      11.994   8.808  20.281  0.00  0.00    +0.028 A 
ATOM     22  C   UNL     1      11.223   6.410  21.482  0.00  0.00    +0.002 A 
ATOM     23  C   UNL     1      10.963   8.798  21.220  0.00  0.00    +0.002 A 
ATOM     24  C   UNL     1      10.577   7.600  21.820  0.00  0.00    +0.000 A 
ENDBRANCH   1  19
ENDBRANCH   8   1
ENDBRANCH  16   8
ENDBRANCH  11  16
TORSDOF 7
ENDMDL
MODEL 3
REMARK VINA RESULT:      -6.4      1.877      2.648
REMARK  Name = 75536676
REMARK  7 active torsions:
REMARK  status: ('A' for Active; 'I' for Inactive)
REMARK    1  A    between atoms: S_1  and  N_8
REMARK    2  A    between atoms: S_1  and  C_19
REMARK    3  A    between atoms: O_3  and  C_10
REMARK    4  A    between atoms: N_7  and  C_9
REMARK    5  A    between atoms: N_7  and  C_12
REMARK    6  A    between atoms: N_8  and  C_16
REMARK    7  A    between atoms: C_11  and  C_16
REMARK                            x       y       z     vdW  Elec       q    Type
REMARK                         _______ _______ _______ _____ _____    ______ ____
ROOT
ATOM      2  O   UNL     1      10.700   8.126  19.947  0.00  0.00    -0.371 OA
ATOM      9  C   UNL     1      12.695   7.248  19.004  0.00  0.00    +0.111 C 
ATOM     10  C   UNL     1      12.839   7.294  20.514  0.00  0.00    +0.164 C 
ATOM     11  C   UNL     1      11.381   7.350  20.947  0.00  0.00    +0.164 C 
ATOM     13  C   UNL     1      11.540   8.212  18.784  0.00  0.00    +0.181 C 
ENDROOT
BRANCH  10   3
ATOM      3  O   UNL     1      13.501   6.157  21.034  0.00  0.00    -0.388 OA
ATOM     26  H   UNL     1      14.428   6.395  21.204  0.00  0.00    +0.210 HD
ENDBRANCH  10   3
BRANCH   9   7
ATOM      7  N   UNL     1      13.901   7.636  18.291  0.00  0.00    -0.306 NA
ATOM     25  H   UNL     1      14.100   6.967  17.548  0.00  0.00    +0.123 HD
BRANCH   7  12
ATOM      4  O   UNL     1      14.977  11.209  16.365  0.00  0.00    -0.380 OA
ATOM     12  C   UNL     1      13.769   8.977  17.726  0.00  0.00    +0.058 C 
ATOM     14  C   UNL     1      14.045   8.969  16.219  0.00  0.00    +0.047 C 
ATOM     15  C   UNL     1      14.724   9.948  18.428  0.00  0.00    +0.047 C 
ATOM     17  C   UNL     1      14.034  10.392  15.671  0.00  0.00    +0.161 C 
ATOM     18  C   UNL     1      14.675  11.316  17.757  0.00  0.00    +0.161 C 
ENDBRANCH   7  12
ENDBRANCH   9   7
BRANCH  11  16
ATOM     16  C   UNL     1      11.183   7.984  22.312  0.00  0.00    +0.140 C 
BRANCH  16   8
ATOM      8  N   UNL     1      10.800   9.400  22.149  0.00  0.00    -0.187 NA
ATOM     27  H   UNL     1       9.910   9.569  21.666  0.00  0.00    +0.148 HD
BRANCH   8   1
ATOM      1  S   UNL     1      12.001  10.604  22.078  0.00  0.00    +0.058 S 
ATOM      5  O   UNL     1      12.030  11.175  20.745  0.00  0.00    -0.153 OA
ATOM      6  O   UNL     1      13.218  10.093  22.679  0.00  0.00    -0.153 OA
BRANCH   1  19
ATOM     19  C   UNL     1      11.354  11.826  23.180  0.00  0.00    +0.105 A 
ATOM     20  C   UNL     1      11.291  11.567  24.549  0.00  0.00    +0.028 A 
ATOM     21  C   UNL     1      10.905  13.048  22.679  0.00  0.00    +0.028 A 
ATOM     22  C   UNL     1      10.778  12.529  25.418  0.00  0.00    +0.002 A 
ATOM     23  C   UNL     1      10.391  14.010  23.548  0.00  0.00    +0.002 A 
ATOM     24  C   UNL     1      10.328  13.751  24.917  0.00  0.00    +0.000 A 
ENDBRANCH   1  19
ENDBRANCH   8   1
ENDBRANCH  16   8
ENDBRANCH  11  16
TORSDOF 7
ENDMDL
MODEL 4
REMARK VINA RESULT:      -6.3      2.882      4.457
REMARK  Name = 75536676
REMARK  7 active torsions:
REMARK  status: ('A' for Active; 'I' for Inactive)
REMARK    1  A    between atoms: S_1  and  N_8
REMARK    2  A    between atoms: S_1  and  C_19
REMARK    3  A    between atoms: O_3  and  C_10
REMARK    4  A    between atoms: N_7  and  C_9
REMARK    5  A    between atoms: N_7  and  C_12
REMARK    6  A    between atoms: N_8  and  C_16
REMARK    7  A    between atoms: C_11  and  C_16
REMARK                            x       y       z     vdW  Elec       q    Type
REMARK                         _______ _______ _______ _____ _____    ______ ____
ROOT
ATOM      2  O   UNL     1      15.730   6.203  18.998  0.00  0.00    -0.371 OA
ATOM      9  C   UNL     1      17.171   6.569  20.850  0.00  0.00    +0.111 C 
ATOM     10  C   UNL     1      15.811   7.170  21.155  0.00  0.00    +0.164 C 
ATOM     11  C   UNL     1      14.929   6.411  20.174  0.00  0.00    +0.164 C 
ATOM     13  C   UNL     1      17.108   6.435  19.338  0.00  0.00    +0.181 C 
ENDROOT
BRANCH  10   3
ATOM      3  O   UNL     1      15.410   6.961  22.495  0.00  0.00    -0.388 OA
ATOM     26  H   UNL     1      14.780   6.220  22.514  0.00  0.00    +0.210 HD
ENDBRANCH  10   3
BRANCH   9   7
ATOM      7  N   UNL     1      18.284   7.389  21.300  0.00  0.00    -0.306 NA
ATOM     25  H   UNL     1      17.952   8.116  21.932  0.00  0.00    +0.123 HD
BRANCH   7  12
ATOM      4  O   UNL     1      22.071   6.116  22.591  0.00  0.00    -0.380 OA
ATOM     12  C   UNL     1      19.298   6.578  21.969  0.00  0.00    +0.058 C 
ATOM     14  C   UNL     1      20.052   7.396  23.022  0.00  0.00    +0.047 C 
ATOM     15  C   UNL     1      20.284   6.006  20.947  0.00  0.00    +0.047 C 
ATOM     17  C   UNL     1      21.191   6.576  23.616  0.00  0.00    +0.161 C 
ATOM     18  C   UNL     1      21.411   5.262  21.655  0.00  0.00    +0.161 C 
ENDBRANCH   7  12
ENDBRANCH   9   7
BRANCH  11  16
ATOM     16  C   UNL     1      13.660   7.159  19.804  0.00  0.00    +0.140 C 
BRANCH  16   8
ATOM      8  N   UNL     1      12.802   7.299  20.997  0.00  0.00    -0.187 NA
ATOM     27  H   UNL     1      13.006   6.655  21.772  0.00  0.00    +0.148 HD
BRANCH   8   1
ATOM      1  S   UNL     1      11.219   7.901  20.841  0.00  0.00    +0.058 S 
ATOM      5  O   UNL     1      10.326   7.131  21.686  0.00  0.00    -0.153 OA
ATOM      6  O   UNL     1      10.918   8.078  19.433  0.00  0.00    -0.153 OA
BRANCH   1  19
ATOM     19  C   UNL     1      11.375   9.517  21.542  0.00  0.00    +0.105 A 
ATOM     20  C   UNL     1      10.830   9.788  22.798  0.00  0.00    +0.028 A 
ATOM     21  C   UNL     1      12.040  10.521  20.838  0.00  0.00    +0.028 A 
ATOM     22  C   UNL     1      10.950  11.063  23.350  0.00  0.00    +0.002 A 
ATOM     23  C   UNL     1      12.160  11.796  21.390  0.00  0.00    +0.002 A 
ATOM     24  C   UNL     1      11.616  12.067  22.645  0.00  0.00    +0.000 A 
ENDBRANCH   1  19
ENDBRANCH   8   1
ENDBRANCH  16   8
ENDBRANCH  11  16
TORSDOF 7
ENDMDL
MODEL 5
REMARK VINA RESULT:      -6.0     26.499     28.716
REMARK  Name = 75536676
REMARK  7 active torsions:
REMARK  status: ('A' for Active; 'I' for Inactive)
REMARK    1  A    between atoms: S_1  and  N_8
REMARK    2  A    between atoms: S_1  and  C_19
REMARK    3  A    between atoms: O_3  and  C_10
REMARK    4  A    between atoms: N_7  and  C_9
REMARK    5  A    between atoms: N_7  and  C_12
REMARK    6  A    between atoms: N_8  and  C_16
REMARK    7  A    between atoms: C_11  and  C_16
REMARK                            x       y       z     vdW  Elec       q    Type
REMARK                         _______ _______ _______ _____ _____    ______ ____
ROOT
ATOM      2  O   UNL     1      -5.961 -11.213  18.343  0.00  0.00    -0.371 OA
ATOM      9  C   UNL     1      -7.697  -9.881  17.419  0.00  0.00    +0.111 C 
ATOM     10  C   UNL     1      -6.411  -9.613  16.661  0.00  0.00    +0.164 C 
ATOM     11  C   UNL     1      -5.607 -10.861  16.995  0.00  0.00    +0.164 C 
ATOM     13  C   UNL     1      -7.167 -10.513  18.696  0.00  0.00    +0.181 C 
ENDROOT
BRANCH  10   3
ATOM      3  O   UNL     1      -6.617  -9.474  15.269  0.00  0.00    -0.388 OA
ATOM     26  H   UNL     1      -6.804  -8.539  15.079  0.00  0.00    +0.210 HD
ENDBRANCH  10   3
BRANCH   9   7
ATOM      7  N   UNL     1      -8.489  -8.687  17.666  0.00  0.00    -0.306 NA
ATOM     25  H   UNL     1      -7.958  -7.856  17.412  0.00  0.00    +0.123 HD
BRANCH   7  12
ATOM      4  O   UNL     1     -12.462  -7.828  16.615  0.00  0.00    -0.380 OA
ATOM     12  C   UNL     1      -9.742  -8.722  16.915  0.00  0.00    +0.058 C 
ATOM     14  C   UNL     1     -10.095  -7.335  16.369  0.00  0.00    +0.047 C 
ATOM     15  C   UNL     1     -10.879  -9.242  17.799  0.00  0.00    +0.047 C 
ATOM     17  C   UNL     1     -11.467  -7.361  15.704  0.00  0.00    +0.161 C 
ATOM     18  C   UNL     1     -12.207  -9.163  17.055  0.00  0.00    +0.161 C 
ENDBRANCH   7  12
ENDBRANCH   9   7
BRANCH  11  16
ATOM     16  C   UNL     1      -4.106 -10.655  16.896  0.00  0.00    +0.140 C 
BRANCH  16   8
ATOM      8  N   UNL     1      -3.746 -10.292  15.511  0.00  0.00    -0.187 NA
ATOM     27  H   UNL     1      -4.314  -9.550  15.082  0.00  0.00    +0.148 HD
BRANCH   8   1
ATOM      1  S   UNL     1      -3.013 -11.441  14.493  0.00  0.00    +0.058 S 
ATOM      5  O   UNL     1      -3.857 -12.618  14.410  0.00  0.00    -0.153 OA
ATOM      6  O   UNL     1      -1.615 -11.571  14.858  0.00  0.00    -0.153 OA
BRANCH   1  19
ATOM     19  C   UNL     1      -3.064 -10.623  12.927  0.00  0.00    +0.105 A 
ATOM     20  C   UNL     1      -1.877 -10.310  12.264  0.00  0.00    +0.028 A 
ATOM     21  C   UNL     1      -4.292 -10.287  12.355  0.00  0.00    +0.028 A 
ATOM     22  C   UNL     1      -1.917  -9.660  11.030  0.00  0.00    +0.002 A 
ATOM     23  C   UNL     1      -4.332  -9.638  11.121  0.00  0.00    +0.002 A 
ATOM     24  C   UNL     1      -3.145  -9.325  10.459  0.00  0.00    +0.000 A 
ENDBRANCH   1  19
ENDBRANCH   8   1
ENDBRANCH  16   8
ENDBRANCH  11  16
TORSDOF 7
ENDMDL
MODEL 6
REMARK VINA RESULT:      -5.8     26.193     28.681
REMARK  Name = 75536676
REMARK  7 active torsions:
REMARK  status: ('A' for Active; 'I' for Inactive)
REMARK    1  A    between atoms: S_1  and  N_8
REMARK    2  A    between atoms: S_1  and  C_19
REMARK    3  A    between atoms: O_3  and  C_10
REMARK    4  A    between atoms: N_7  and  C_9
REMARK    5  A    between atoms: N_7  and  C_12
REMARK    6  A    between atoms: N_8  and  C_16
REMARK    7  A    between atoms: C_11  and  C_16
REMARK                            x       y       z     vdW  Elec       q    Type
REMARK                         _______ _______ _______ _____ _____    ______ ____
ROOT
ATOM      2  O   UNL     1      -1.543 -11.285  14.822  0.00  0.00    -0.371 OA
ATOM      9  C   UNL     1      -3.682 -10.957  15.799  0.00  0.00    +0.111 C 
ATOM     10  C   UNL     1      -3.790 -10.768  14.297  0.00  0.00    +0.164 C 
ATOM     11  C   UNL     1      -2.549 -11.507  13.818  0.00  0.00    +0.164 C 
ATOM     13  C   UNL     1      -2.186 -10.804  16.014  0.00  0.00    +0.181 C 
ENDROOT
BRANCH  10   3
ATOM      3  O   UNL     1      -4.975 -11.324  13.761  0.00  0.00    -0.388 OA
ATOM     26  H   UNL     1      -4.756 -11.751  12.915  0.00  0.00    +0.210 HD
ENDBRANCH  10   3
BRANCH   9   7
ATOM      7  N   UNL     1      -4.465 -10.002  16.565  0.00  0.00    -0.306 NA
ATOM     25  H   UNL     1      -4.899  -9.323  15.941  0.00  0.00    +0.123 HD
BRANCH   7  12
ATOM      4  O   UNL     1      -7.213 -10.694  19.663  0.00  0.00    -0.380 OA
ATOM     12  C   UNL     1      -5.494 -10.676  17.354  0.00  0.00    +0.058 C 
ATOM     14  C   UNL     1      -6.768  -9.829  17.437  0.00  0.00    +0.047 C 
ATOM     15  C   UNL     1      -4.973 -10.978  18.762  0.00  0.00    +0.047 C 
ATOM     17  C   UNL     1      -7.779 -10.484  18.370  0.00  0.00    +0.161 C 
ATOM     18  C   UNL     1      -6.084 -11.569  19.622  0.00  0.00    +0.161 C 
ENDBRANCH   7  12
ENDBRANCH   9   7
BRANCH  11  16
ATOM     16  C   UNL     1      -2.044 -11.024  12.471  0.00  0.00    +0.140 C 
BRANCH  16   8
ATOM      8  N   UNL     1      -3.085 -11.239  11.446  0.00  0.00    -0.187 NA
ATOM     27  H   UNL     1      -3.076 -12.158  10.986  0.00  0.00    +0.148 HD
BRANCH   8   1
ATOM      1  S   UNL     1      -3.728  -9.914  10.594  0.00  0.00    +0.058 S 
ATOM      5  O   UNL     1      -2.654  -9.006  10.236  0.00  0.00    -0.153 OA
ATOM      6  O   UNL     1      -4.894  -9.420  11.300  0.00  0.00    -0.153 OA
BRANCH   1  19
ATOM     19  C   UNL     1      -4.308 -10.683   9.112  0.00  0.00    +0.105 A 
ATOM     20  C   UNL     1      -4.209 -12.066   8.959  0.00  0.00    +0.028 A 
ATOM     21  C   UNL     1      -4.863  -9.906   8.095  0.00  0.00    +0.028 A 
ATOM     22  C   UNL     1      -4.663 -12.673   7.788  0.00  0.00    +0.002 A 
ATOM     23  C   UNL     1      -5.318 -10.512   6.924  0.00  0.00    +0.002 A 
ATOM     24  C   UNL     1      -5.218 -11.895   6.771  0.00  0.00    +0.000 A 
ENDBRANCH   1  19
ENDBRANCH   8   1
ENDBRANCH  16   8
ENDBRANCH  11  16
TORSDOF 7
ENDMDL
MODEL 7
REMARK VINA RESULT:      -5.8     27.151     28.545
REMARK  Name = 75536676
REMARK  7 active torsions:
REMARK  status: ('A' for Active; 'I' for Inactive)
REMARK    1  A    between atoms: S_1  and  N_8
REMARK    2  A    between atoms: S_1  and  C_19
REMARK    3  A    between atoms: O_3  and  C_10
REMARK    4  A    between atoms: N_7  and  C_9
REMARK    5  A    between atoms: N_7  and  C_12
REMARK    6  A    between atoms: N_8  and  C_16
REMARK    7  A    between atoms: C_11  and  C_16
REMARK                            x       y       z     vdW  Elec       q    Type
REMARK                         _______ _______ _______ _____ _____    ______ ____
ROOT
ATOM      2  O   UNL     1      -5.332 -12.648  18.595  0.00  0.00    -0.371 OA
ATOM      9  C   UNL     1      -4.848 -12.078  16.341  0.00  0.00    +0.111 C 
ATOM     10  C   UNL     1      -5.411 -10.860  17.050  0.00  0.00    +0.164 C 
ATOM     11  C   UNL     1      -5.157 -11.224  18.506  0.00  0.00    +0.164 C 
ATOM     13  C   UNL     1      -5.296 -13.197  17.267  0.00  0.00    +0.181 C 
ENDROOT
BRANCH  10   3
ATOM      3  O   UNL     1      -4.753  -9.663  16.683  0.00  0.00    -0.388 OA
ATOM     26  H   UNL     1      -5.066  -9.400  15.801  0.00  0.00    +0.210 HD
ENDBRANCH  10   3
BRANCH   9   7
ATOM      7  N   UNL     1      -5.336 -12.239  14.981  0.00  0.00    -0.306 NA
ATOM     25  H   UNL     1      -6.084 -11.571  14.796  0.00  0.00    +0.123 HD
BRANCH   7  12
ATOM      4  O   UNL     1      -1.962 -10.565  13.127  0.00  0.00    -0.380 OA
ATOM     12  C   UNL     1      -4.260 -12.058  14.011  0.00  0.00    +0.058 C 
ATOM     14  C   UNL     1      -2.888 -12.188  14.680  0.00  0.00    +0.047 C 
ATOM     15  C   UNL     1      -4.381 -10.693  13.328  0.00  0.00    +0.047 C 
ATOM     17  C   UNL     1      -1.780 -11.866  13.684  0.00  0.00    +0.161 C 
ATOM     18  C   UNL     1      -3.191 -10.454  12.406  0.00  0.00    +0.161 C 
ENDBRANCH   7  12
ENDBRANCH   9   7
BRANCH  11  16
ATOM     16  C   UNL     1      -6.099 -10.529  19.472  0.00  0.00    +0.140 C 
BRANCH  16   8
ATOM      8  N   UNL     1      -7.244  -9.967  18.730  0.00  0.00    -0.187 NA
ATOM     27  H   UNL     1      -7.229  -8.949  18.591  0.00  0.00    +0.148 HD
BRANCH   8   1
ATOM      1  S   UNL     1      -8.751 -10.757  18.762  0.00  0.00    +0.058 S 
ATOM      5  O   UNL     1      -9.200 -10.879  20.136  0.00  0.00    -0.153 OA
ATOM      6  O   UNL     1      -8.687 -11.928  17.909  0.00  0.00    -0.153 OA
BRANCH   1  19
ATOM     19  C   UNL     1      -9.793  -9.582  17.950  0.00  0.00    +0.105 A 
ATOM     20  C   UNL     1     -11.180  -9.723  18.008  0.00  0.00    +0.028 A 
ATOM     21  C   UNL     1      -9.228  -8.517  17.248  0.00  0.00    +0.028 A 
ATOM     22  C   UNL     1     -12.002  -8.798  17.364  0.00  0.00    +0.002 A 
ATOM     23  C   UNL     1     -10.050  -7.593  16.604  0.00  0.00    +0.002 A 
ATOM     24  C   UNL     1     -11.437  -7.733  16.662  0.00  0.00    +0.000 A 
ENDBRANCH   1  19
ENDBRANCH   8   1
ENDBRANCH  16   8
ENDBRANCH  11  16
TORSDOF 7
ENDMDL
MODEL 8
REMARK VINA RESULT:      -5.8     26.652     28.347
REMARK  Name = 75536676
REMARK  7 active torsions:
REMARK  status: ('A' for Active; 'I' for Inactive)
REMARK    1  A    between atoms: S_1  and  N_8
REMARK    2  A    between atoms: S_1  and  C_19
REMARK    3  A    between atoms: O_3  and  C_10
REMARK    4  A    between atoms: N_7  and  C_9
REMARK    5  A    between atoms: N_7  and  C_12
REMARK    6  A    between atoms: N_8  and  C_16
REMARK    7  A    between atoms: C_11  and  C_16
REMARK                            x       y       z     vdW  Elec       q    Type
REMARK                         _______ _______ _______ _____ _____    ______ ____
ROOT
ATOM      2  O   UNL     1      -5.958 -10.127  17.405  0.00  0.00    -0.371 OA
ATOM      9  C   UNL     1      -4.008 -11.282  16.697  0.00  0.00    +0.111 C 
ATOM     10  C   UNL     1      -4.385 -11.754  18.090  0.00  0.00    +0.164 C 
ATOM     11  C   UNL     1      -5.852 -11.353  18.148  0.00  0.00    +0.164 C 
ATOM     13  C   UNL     1      -4.772  -9.972  16.607  0.00  0.00    +0.181 C 
ENDROOT
BRANCH  10   3
ATOM      3  O   UNL     1      -4.211 -13.147  18.260  0.00  0.00    -0.388 OA
ATOM     26  H   UNL     1      -4.645 -13.602  17.518  0.00  0.00    +0.210 HD
ENDBRANCH  10   3
BRANCH   9   7
ATOM      7  N   UNL     1      -2.576 -11.117  16.505  0.00  0.00    -0.306 NA
ATOM     25  H   UNL     1      -2.065 -11.634  17.219  0.00  0.00    +0.123 HD
BRANCH   7  12
ATOM      4  O   UNL     1      -2.795 -11.914  12.389  0.00  0.00    -0.380 OA
ATOM     12  C   UNL     1      -2.168 -11.570  15.178  0.00  0.00    +0.058 C 
ATOM     14  C   UNL     1      -2.147 -10.407  14.181  0.00  0.00    +0.047 C 
ATOM     15  C   UNL     1      -3.108 -12.671  14.677  0.00  0.00    +0.047 C 
ATOM     17  C   UNL     1      -1.849 -10.918  12.776  0.00  0.00    +0.161 C 
ATOM     18  C   UNL     1      -2.757 -13.057  13.245  0.00  0.00    +0.161 C 
ENDBRANCH   7  12
ENDBRANCH   9   7
BRANCH  11  16
ATOM     16  C   UNL     1      -6.361 -11.141  19.563  0.00  0.00    +0.140 C 
BRANCH  16   8
ATOM      8  N   UNL     1      -7.568 -10.292  19.533  0.00  0.00    -0.187 NA
ATOM     27  H   UNL     1      -7.526  -9.437  20.101  0.00  0.00    +0.148 HD
BRANCH   8   1
ATOM      1  S   UNL     1      -9.091 -10.987  19.227  0.00  0.00    +0.058 S 
ATOM      5  O   UNL     1      -9.835 -11.079  20.469  0.00  0.00    -0.153 OA
ATOM      6  O   UNL     1      -8.914 -12.161  18.394  0.00  0.00    -0.153 OA
BRANCH   1  19
ATOM     19  C   UNL     1      -9.858  -9.751  18.222  0.00  0.00    +0.105 A 
ATOM     20  C   UNL     1      -9.072  -8.882  17.464  0.00  0.00    +0.028 A 
ATOM     21  C   UNL     1     -11.248  -9.643  18.190  0.00  0.00    +0.028 A 
ATOM     22  C   UNL     1      -9.677  -7.904  16.674  0.00  0.00    +0.002 A 
ATOM     23  C   UNL     1     -11.853  -8.666  17.400  0.00  0.00    +0.002 A 
ATOM     24  C   UNL     1     -11.068  -7.797  16.642  0.00  0.00    +0.000 A 
ENDBRANCH   1  19
ENDBRANCH   8   1
ENDBRANCH  16   8
ENDBRANCH  11  16
TORSDOF 7
ENDMDL
MODEL 9
REMARK VINA RESULT:      -5.7     25.655     28.253
REMARK  Name = 75536676
REMARK  7 active torsions:
REMARK  status: ('A' for Active; 'I' for Inactive)
REMARK    1  A    between atoms: S_1  and  N_8
REMARK    2  A    between atoms: S_1  and  C_19
REMARK    3  A    between atoms: O_3  and  C_10
REMARK    4  A    between atoms: N_7  and  C_9
REMARK    5  A    between atoms: N_7  and  C_12
REMARK    6  A    between atoms: N_8  and  C_16
REMARK    7  A    between atoms: C_11  and  C_16
REMARK                            x       y       z     vdW  Elec       q    Type
REMARK                         _______ _______ _______ _____ _____    ______ ____
ROOT
ATOM      2  O   UNL     1      -6.759 -12.277  13.531  0.00  0.00    -0.371 OA
ATOM      9  C   UNL     1      -7.194 -10.321  14.805  0.00  0.00    +0.111 C 
ATOM     10  C   UNL     1      -6.395  -9.941  13.572  0.00  0.00    +0.164 C 
ATOM     11  C   UNL     1      -6.670 -11.132  12.666  0.00  0.00    +0.164 C 
ATOM     13  C   UNL     1      -6.934 -11.816  14.882  0.00  0.00    +0.181 C 
ENDROOT
BRANCH  10   3
ATOM      3  O   UNL     1      -6.830  -8.726  12.993  0.00  0.00    -0.388 OA
ATOM     26  H   UNL     1      -7.501  -8.333  13.577  0.00  0.00    +0.210 HD
ENDBRANCH  10   3
BRANCH   9   7
ATOM      7  N   UNL     1      -6.783  -9.613  16.007  0.00  0.00    -0.306 NA
ATOM     25  H   UNL     1      -7.364  -8.787  16.143  0.00  0.00    +0.123 HD
BRANCH   7  12
ATOM      4  O   UNL     1      -6.910 -10.743  20.049  0.00  0.00    -0.380 OA
ATOM     12  C   UNL     1      -6.870 -10.477  17.182  0.00  0.00    +0.058 C 
ATOM     14  C   UNL     1      -8.107 -10.143  18.021  0.00  0.00    +0.047 C 
ATOM     15  C   UNL     1      -5.606 -10.342  18.037  0.00  0.00    +0.047 C 
ATOM     17  C   UNL     1      -8.111 -10.960  19.308  0.00  0.00    +0.161 C 
ATOM     18  C   UNL     1      -5.748 -11.148  19.323  0.00  0.00    +0.161 C 
ENDBRANCH   7  12
ENDBRANCH   9   7
BRANCH  11  16
ATOM     16  C   UNL     1      -5.588 -11.358  11.625  0.00  0.00    +0.140 C 
BRANCH  16   8
ATOM      8  N   UNL     1      -4.518 -10.355  11.797  0.00  0.00    -0.187 NA
ATOM     27  H   UNL     1      -4.739  -9.407  11.469  0.00  0.00    +0.148 HD
BRANCH   8   1
ATOM      1  S   UNL     1      -2.889 -10.844  11.822  0.00  0.00    +0.058 S 
ATOM      5  O   UNL     1      -2.076  -9.843  11.158  0.00  0.00    -0.153 OA
ATOM      6  O   UNL     1      -2.808 -12.235  11.419  0.00  0.00    -0.153 OA
BRANCH   1  19
ATOM     19  C   UNL     1      -2.520 -10.786  13.550  0.00  0.00    +0.105 A 
ATOM     20  C   UNL     1      -3.295 -11.514  14.454  0.00  0.00    +0.028 A 
ATOM     21  C   UNL     1      -1.456 -10.009  14.010  0.00  0.00    +0.028 A 
ATOM     22  C   UNL     1      -3.006 -11.465  15.818  0.00  0.00    +0.002 A 
ATOM     23  C   UNL     1      -1.167  -9.961  15.374  0.00  0.00    +0.002 A 
ATOM     24  C   UNL     1      -1.942 -10.688  16.277  0.00  0.00    +0.000 A 
ENDBRANCH   1  19
ENDBRANCH   8   1
ENDBRANCH  16   8
ENDBRANCH  11  16
TORSDOF 7
ENDMDL
MODEL 10
REMARK VINA RESULT:      -5.7     26.531     29.116
REMARK  Name = 75536676
REMARK  7 active torsions:
REMARK  status: ('A' for Active; 'I' for Inactive)
REMARK    1  A    between atoms: S_1  and  N_8
REMARK    2  A    between atoms: S_1  and  C_19
REMARK    3  A    between atoms: O_3  and  C_10
REMARK    4  A    between atoms: N_7  and  C_9
REMARK    5  A    between atoms: N_7  and  C_12
REMARK    6  A    between atoms: N_8  and  C_16
REMARK    7  A    between atoms: C_11  and  C_16
REMARK                            x       y       z     vdW  Elec       q    Type
REMARK                         _______ _______ _______ _____ _____    ______ ____
ROOT
ATOM      2  O   UNL     1      -3.823 -10.478  13.851  0.00  0.00    -0.371 OA
ATOM      9  C   UNL     1      -3.207 -10.818  16.119  0.00  0.00    +0.111 C 
ATOM     10  C   UNL     1      -2.168 -11.465  15.222  0.00  0.00    +0.164 C 
ATOM     11  C   UNL     1      -2.408 -10.725  13.914  0.00  0.00    +0.164 C 
ATOM     13  C   UNL     1      -4.379 -10.670  15.163  0.00  0.00    +0.181 C 
ENDROOT
BRANCH  10   3
ATOM      3  O   UNL     1      -0.848 -11.285  15.696  0.00  0.00    -0.388 OA
ATOM     26  H   UNL     1      -0.770 -10.380  16.044  0.00  0.00    +0.210 HD
ENDBRANCH  10   3
BRANCH   9   7
ATOM      7  N   UNL     1      -3.533 -11.607  17.296  0.00  0.00    -0.306 NA
ATOM     25  H   UNL     1      -3.024 -11.255  18.106  0.00  0.00    +0.123 HD
BRANCH   7  12
ATOM      4  O   UNL     1      -7.154 -12.163  19.348  0.00  0.00    -0.380 OA
ATOM     12  C   UNL     1      -4.969 -11.582  17.565  0.00  0.00    +0.058 C 
ATOM     14  C   UNL     1      -5.285 -10.714  18.788  0.00  0.00    +0.047 C 
ATOM     15  C   UNL     1      -5.496 -13.003  17.782  0.00  0.00    +0.047 C 
ATOM     17  C   UNL     1      -6.767 -10.806  19.133  0.00  0.00    +0.161 C 
ATOM     18  C   UNL     1      -6.966 -12.968  18.183  0.00  0.00    +0.161 C 
ENDBRANCH   7  12
ENDBRANCH   9   7
BRANCH  11  16
ATOM     16  C   UNL     1      -1.968 -11.508  12.690  0.00  0.00    +0.140 C 
BRANCH  16   8
ATOM      8  N   UNL     1      -1.672 -12.902  13.075  0.00  0.00    -0.187 NA
ATOM     27  H   UNL     1      -0.676 -13.153  13.111  0.00  0.00    +0.148 HD
BRANCH   8   1
ATOM      1  S   UNL     1      -2.805 -14.132  12.760  0.00  0.00    +0.058 S 
ATOM      5  O   UNL     1      -2.564 -14.682  11.440  0.00  0.00    -0.153 OA
ATOM      6  O   UNL     1      -4.127 -13.658  13.122  0.00  0.00    -0.153 OA
BRANCH   1  19
ATOM     19  C   UNL     1      -2.352 -15.356  13.952  0.00  0.00    +0.105 A 
ATOM     20  C   UNL     1      -3.247 -15.712  14.961  0.00  0.00    +0.028 A 
ATOM     21  C   UNL     1      -1.097 -15.962  13.885  0.00  0.00    +0.028 A 
ATOM     22  C   UNL     1      -2.888 -16.675  15.904  0.00  0.00    +0.002 A 
ATOM     23  C   UNL     1      -0.738 -16.926  14.828  0.00  0.00    +0.002 A 
ATOM     24  C   UNL     1      -1.633 -17.282  15.837  0.00  0.00    +0.000 A 
ENDBRANCH   1  19
ENDBRANCH   8   1
ENDBRANCH  16   8
ENDBRANCH  11  16
TORSDOF 7
ENDMDL
