MODEL 1
REMARK VINA RESULT:      -6.6      0.000      0.000
REMARK  Name = 75536608
REMARK  8 active torsions:
REMARK  status: ('A' for Active; 'I' for Inactive)
REMARK    1  A    between atoms: O_3  and  C_10
REMARK    2  A    between atoms: N_5  and  C_9
REMARK    3  A    between atoms: N_5  and  C_14
REMARK    4  A    between atoms: N_6  and  C_13
REMARK    5  A    between atoms: N_7  and  C_18
REMARK    6  A    between atoms: C_11  and  C_13
REMARK    7  A    between atoms: C_14  and  C_15
REMARK    8  A    between atoms: C_16  and  C_20
REMARK                            x       y       z     vdW  Elec       q    Type
REMARK                         _______ _______ _______ _____ _____    ______ ____
ROOT
ATOM      2  O   UNL     1      12.846   6.694  21.008  0.00  0.00    -0.371 OA
ATOM      9  C   UNL     1      10.874   7.986  21.297  0.00  0.00    +0.111 C 
ATOM     10  C   UNL     1      11.508   8.342  19.966  0.00  0.00    +0.164 C 
ATOM     11  C   UNL     1      12.377   7.116  19.717  0.00  0.00    +0.165 C 
ATOM     12  C   UNL     1      12.037   7.324  22.017  0.00  0.00    +0.181 C 
ENDROOT
BRANCH  10   3
ATOM      3  O   UNL     1      10.553   8.529  18.939  0.00  0.00    -0.388 OA
ATOM     25  H   UNL     1       9.712   8.140  19.230  0.00  0.00    +0.210 HD
ENDBRANCH  10   3
BRANCH   9   5
ATOM      5  N   UNL     1      10.342   9.132  22.017  0.00  0.00    -0.302 NA
ATOM     24  H   UNL     1      10.224   8.883  22.999  0.00  0.00    +0.123 HD
BRANCH   5  14
ATOM     14  C   UNL     1      11.240  10.275  21.922  0.00  0.00    +0.156 C 
BRANCH  14  15
ATOM      7  N   UNL     1      12.665  11.285  23.733  0.00  0.00    -0.336 N 
ATOM      8  N   UNL     1      10.474  11.289  24.092  0.00  0.00    -0.239 NA
ATOM     15  C   UNL     1      11.429  10.951  23.255  0.00  0.00    +0.123 A 
ATOM     17  C   UNL     1      12.487  11.875  24.952  0.00  0.00    +0.106 A 
ATOM     18  C   UNL     1      13.936  11.064  23.083  0.00  0.00    +0.150 C 
ATOM     19  C   UNL     1      11.127  11.866  25.153  0.00  0.00    +0.130 A 
ENDBRANCH  14  15
ENDBRANCH   5  14
ENDBRANCH   9   5
BRANCH  11  13
ATOM     13  C   UNL     1      13.560   7.394  18.807  0.00  0.00    +0.138 C 
BRANCH  13   6
ATOM      4  O   UNL     1      16.026   5.948  18.538  0.00  0.00    -0.270 OA
ATOM      6  N   UNL     1      14.762   7.601  19.563  0.00  0.00    -0.308 N 
ATOM     16  C   UNL     1      15.916   6.850  19.365  0.00  0.00    +0.251 C 
ATOM     26  H   UNL     1      14.738   8.322  20.276  0.00  0.00    +0.149 HD
BRANCH  16  20
ATOM      1  S   UNL     1      17.077   8.654  21.101  0.00  0.00    -0.092 S 
ATOM     20  C   UNL     1      17.067   7.169  20.247  0.00  0.00    +0.074 A 
ATOM     21  C   UNL     1      18.193   6.418  20.503  0.00  0.00    +0.021 A 
ATOM     22  C   UNL     1      19.076   7.069  21.413  0.00  0.00    +0.008 A 
ATOM     23  C   UNL     1      18.591   8.294  21.816  0.00  0.00    +0.046 A 
ENDBRANCH  16  20
ENDBRANCH  13   6
ENDBRANCH  11  13
TORSDOF 7
ENDMDL
MODEL 2
REMARK VINA RESULT:      -6.5      2.684      7.339
REMARK  Name = 75536608
REMARK  8 active torsions:
REMARK  status: ('A' for Active; 'I' for Inactive)
REMARK    1  A    between atoms: O_3  and  C_10
REMARK    2  A    between atoms: N_5  and  C_9
REMARK    3  A    between atoms: N_5  and  C_14
REMARK    4  A    between atoms: N_6  and  C_13
REMARK    5  A    between atoms: N_7  and  C_18
REMARK    6  A    between atoms: C_11  and  C_13
REMARK    7  A    between atoms: C_14  and  C_15
REMARK    8  A    between atoms: C_16  and  C_20
REMARK                            x       y       z     vdW  Elec       q    Type
REMARK                         _______ _______ _______ _____ _____    ______ ____
ROOT
ATOM      2  O   UNL     1      11.334   9.239  20.513  0.00  0.00    -0.371 OA
ATOM      9  C   UNL     1      12.268   7.137  19.921  0.00  0.00    +0.111 C 
ATOM     10  C   UNL     1      11.924   7.128  21.398  0.00  0.00    +0.164 C 
ATOM     11  C   UNL     1      10.905   8.257  21.470  0.00  0.00    +0.165 C 
ATOM     12  C   UNL     1      12.288   8.628  19.626  0.00  0.00    +0.181 C 
ENDROOT
BRANCH  10   3
ATOM      3  O   UNL     1      11.375   5.895  21.823  0.00  0.00    -0.388 OA
ATOM     25  H   UNL     1      10.640   6.081  22.430  0.00  0.00    +0.210 HD
ENDBRANCH  10   3
BRANCH   9   5
ATOM      5  N   UNL     1      13.528   6.481  19.610  0.00  0.00    -0.302 NA
ATOM     24  H   UNL     1      13.389   5.851  18.819  0.00  0.00    +0.123 HD
BRANCH   5  14
ATOM     14  C   UNL     1      14.556   7.455  19.265  0.00  0.00    +0.156 C 
BRANCH  14  15
ATOM      7  N   UNL     1      16.792   7.366  20.414  0.00  0.00    -0.336 N 
ATOM      8  N   UNL     1      16.487   5.931  18.747  0.00  0.00    -0.239 NA
ATOM     15  C   UNL     1      15.942   6.897  19.452  0.00  0.00    +0.123 A 
ATOM     17  C   UNL     1      17.954   6.654  20.317  0.00  0.00    +0.106 A 
ATOM     18  C   UNL     1      16.528   8.419  21.366  0.00  0.00    +0.150 C 
ATOM     19  C   UNL     1      17.742   5.775  19.281  0.00  0.00    +0.130 A 
ENDBRANCH  14  15
ENDBRANCH   5  14
ENDBRANCH   9   5
BRANCH  11  13
ATOM     13  C   UNL     1      10.808   8.890  22.847  0.00  0.00    +0.138 C 
BRANCH  13   6
ATOM      4  O   UNL     1      11.133  10.790  24.975  0.00  0.00    -0.270 OA
ATOM      6  N   UNL     1      10.655  10.315  22.755  0.00  0.00    -0.308 N 
ATOM     16  C   UNL     1      10.833  11.163  23.844  0.00  0.00    +0.251 C 
ATOM     26  H   UNL     1      10.393  10.692  21.851  0.00  0.00    +0.149 HD
BRANCH  16  20
ATOM      1  S   UNL     1      10.905  13.237  22.025  0.00  0.00    -0.092 S 
ATOM     20  C   UNL     1      10.613  12.610  23.591  0.00  0.00    +0.074 A 
ATOM     21  C   UNL     1      10.184  13.584  24.467  0.00  0.00    +0.021 A 
ATOM     22  C   UNL     1      10.096  14.862  23.843  0.00  0.00    +0.008 A 
ATOM     23  C   UNL     1      10.460  14.816  22.516  0.00  0.00    +0.046 A 
ENDBRANCH  16  20
ENDBRANCH  13   6
ENDBRANCH  11  13
TORSDOF 7
ENDMDL
MODEL 3
REMARK VINA RESULT:      -6.4      3.154      3.655
REMARK  Name = 75536608
REMARK  8 active torsions:
REMARK  status: ('A' for Active; 'I' for Inactive)
REMARK    1  A    between atoms: O_3  and  C_10
REMARK    2  A    between atoms: N_5  and  C_9
REMARK    3  A    between atoms: N_5  and  C_14
REMARK    4  A    between atoms: N_6  and  C_13
REMARK    5  A    between atoms: N_7  and  C_18
REMARK    6  A    between atoms: C_11  and  C_13
REMARK    7  A    between atoms: C_14  and  C_15
REMARK    8  A    between atoms: C_16  and  C_20
REMARK                            x       y       z     vdW  Elec       q    Type
REMARK                         _______ _______ _______ _____ _____    ______ ____
ROOT
ATOM      2  O   UNL     1      13.307   8.134  21.505  0.00  0.00    -0.371 OA
ATOM      9  C   UNL     1      11.329   8.886  22.584  0.00  0.00    +0.111 C 
ATOM     10  C   UNL     1      10.949   7.981  21.427  0.00  0.00    +0.164 C 
ATOM     11  C   UNL     1      12.245   7.209  21.219  0.00  0.00    +0.165 C 
ATOM     12  C   UNL     1      12.757   9.255  22.219  0.00  0.00    +0.181 C 
ENDROOT
BRANCH  10   3
ATOM      3  O   UNL     1       9.868   7.123  21.738  0.00  0.00    -0.388 OA
ATOM     25  H   UNL     1       9.204   7.200  21.034  0.00  0.00    +0.210 HD
ENDBRANCH  10   3
BRANCH   9   5
ATOM      5  N   UNL     1      10.464  10.046  22.728  0.00  0.00    -0.302 NA
ATOM     24  H   UNL     1      10.036  10.030  23.654  0.00  0.00    +0.123 HD
BRANCH   5  14
ATOM     14  C   UNL     1      11.216  11.285  22.575  0.00  0.00    +0.156 C 
BRANCH  14  15
ATOM      7  N   UNL     1      12.359  12.540  24.432  0.00  0.00    -0.336 N 
ATOM      8  N   UNL     1      10.141  12.490  24.502  0.00  0.00    -0.239 NA
ATOM     15  C   UNL     1      11.208  12.105  23.838  0.00  0.00    +0.123 A 
ATOM     17  C   UNL     1      12.005  13.247  25.545  0.00  0.00    +0.106 A 
ATOM     18  C   UNL     1      13.711  12.304  23.979  0.00  0.00    +0.150 C 
ATOM     19  C   UNL     1      10.631  13.203  25.568  0.00  0.00    +0.130 A 
ENDBRANCH  14  15
ENDBRANCH   5  14
ENDBRANCH   9   5
BRANCH  11  13
ATOM     13  C   UNL     1      12.401   6.668  19.809  0.00  0.00    +0.138 C 
BRANCH  13   6
ATOM      4  O   UNL     1      11.499   7.597  17.246  0.00  0.00    -0.270 OA
ATOM      6  N   UNL     1      13.065   7.614  18.958  0.00  0.00    -0.308 N 
ATOM     16  C   UNL     1      12.552   8.009  17.727  0.00  0.00    +0.251 C 
ATOM     26  H   UNL     1      13.949   7.986  19.286  0.00  0.00    +0.149 HD
BRANCH  16  20
ATOM      1  S   UNL     1      13.608  10.554  17.577  0.00  0.00    -0.092 S 
ATOM     20  C   UNL     1      13.372   8.976  16.954  0.00  0.00    +0.074 A 
ATOM     21  C   UNL     1      14.011   8.796  15.746  0.00  0.00    +0.021 A 
ATOM     22  C   UNL     1      14.703   9.969  15.327  0.00  0.00    +0.008 A 
ATOM     23  C   UNL     1      14.567  11.000  16.230  0.00  0.00    +0.046 A 
ENDBRANCH  16  20
ENDBRANCH  13   6
ENDBRANCH  11  13
TORSDOF 7
ENDMDL
MODEL 4
REMARK VINA RESULT:      -6.2      3.187      7.753
REMARK  Name = 75536608
REMARK  8 active torsions:
REMARK  status: ('A' for Active; 'I' for Inactive)
REMARK    1  A    between atoms: O_3  and  C_10
REMARK    2  A    between atoms: N_5  and  C_9
REMARK    3  A    between atoms: N_5  and  C_14
REMARK    4  A    between atoms: N_6  and  C_13
REMARK    5  A    between atoms: N_7  and  C_18
REMARK    6  A    between atoms: C_11  and  C_13
REMARK    7  A    between atoms: C_14  and  C_15
REMARK    8  A    between atoms: C_16  and  C_20
REMARK                            x       y       z     vdW  Elec       q    Type
REMARK                         _______ _______ _______ _____ _____    ______ ____
ROOT
ATOM      2  O   UNL     1      16.319   6.057  19.040  0.00  0.00    -0.371 OA
ATOM      9  C   UNL     1      17.247   6.393  21.200  0.00  0.00    +0.111 C 
ATOM     10  C   UNL     1      15.910   7.105  21.119  0.00  0.00    +0.164 C 
ATOM     11  C   UNL     1      15.257   6.373  19.955  0.00  0.00    +0.165 C 
ATOM     12  C   UNL     1      17.574   6.200  19.729  0.00  0.00    +0.181 C 
ENDROOT
BRANCH  10   3
ATOM      3  O   UNL     1      15.153   6.983  22.309  0.00  0.00    -0.388 OA
ATOM     25  H   UNL     1      15.698   7.295  23.050  0.00  0.00    +0.210 HD
ENDBRANCH  10   3
BRANCH   9   5
ATOM      5  N   UNL     1      18.267   7.145  21.913  0.00  0.00    -0.302 NA
ATOM     24  H   UNL     1      18.331   6.796  22.870  0.00  0.00    +0.123 HD
BRANCH   5  14
ATOM     14  C   UNL     1      19.567   7.006  21.270  0.00  0.00    +0.156 C 
BRANCH  14  15
ATOM      7  N   UNL     1      21.638   5.659  21.751  0.00  0.00    -0.336 N 
ATOM      8  N   UNL     1      20.613   6.546  23.510  0.00  0.00    -0.239 NA
ATOM     15  C   UNL     1      20.593   6.416  22.202  0.00  0.00    +0.123 A 
ATOM     17  C   UNL     1      22.372   5.284  22.839  0.00  0.00    +0.106 A 
ATOM     18  C   UNL     1      21.928   5.312  20.379  0.00  0.00    +0.150 C 
ATOM     19  C   UNL     1      21.721   5.842  23.913  0.00  0.00    +0.130 A 
ENDBRANCH  14  15
ENDBRANCH   5  14
ENDBRANCH   9   5
BRANCH  11  13
ATOM     13  C   UNL     1      14.197   7.197  19.246  0.00  0.00    +0.138 C 
BRANCH  13   6
ATOM      4  O   UNL     1      11.398   7.788  19.492  0.00  0.00    -0.270 OA
ATOM      6  N   UNL     1      13.597   8.151  20.136  0.00  0.00    -0.308 N 
ATOM     16  C   UNL     1      12.225   8.372  20.188  0.00  0.00    +0.251 C 
ATOM     26  H   UNL     1      14.223   8.682  20.731  0.00  0.00    +0.149 HD
BRANCH  16  20
ATOM      1  S   UNL     1      10.989   8.926  22.593  0.00  0.00    -0.092 S 
ATOM     20  C   UNL     1      11.763   9.411  21.144  0.00  0.00    +0.074 A 
ATOM     21  C   UNL     1      11.866  10.781  21.046  0.00  0.00    +0.021 A 
ATOM     22  C   UNL     1      11.301  11.442  22.175  0.00  0.00    +0.008 A 
ATOM     23  C   UNL     1      10.788  10.552  23.092  0.00  0.00    +0.046 A 
ENDBRANCH  16  20
ENDBRANCH  13   6
ENDBRANCH  11  13
TORSDOF 7
ENDMDL
MODEL 5
REMARK VINA RESULT:      -6.0      3.310      5.431
REMARK  Name = 75536608
REMARK  8 active torsions:
REMARK  status: ('A' for Active; 'I' for Inactive)
REMARK    1  A    between atoms: O_3  and  C_10
REMARK    2  A    between atoms: N_5  and  C_9
REMARK    3  A    between atoms: N_5  and  C_14
REMARK    4  A    between atoms: N_6  and  C_13
REMARK    5  A    between atoms: N_7  and  C_18
REMARK    6  A    between atoms: C_11  and  C_13
REMARK    7  A    between atoms: C_14  and  C_15
REMARK    8  A    between atoms: C_16  and  C_20
REMARK                            x       y       z     vdW  Elec       q    Type
REMARK                         _______ _______ _______ _____ _____    ______ ____
ROOT
ATOM      2  O   UNL     1      17.950   6.177  19.322  0.00  0.00    -0.371 OA
ATOM      9  C   UNL     1      15.823   6.876  20.114  0.00  0.00    +0.111 C 
ATOM     10  C   UNL     1      16.816   6.919  21.260  0.00  0.00    +0.164 C 
ATOM     11  C   UNL     1      18.137   6.975  20.503  0.00  0.00    +0.165 C 
ATOM     12  C   UNL     1      16.540   5.968  19.129  0.00  0.00    +0.181 C 
ENDROOT
BRANCH  10   3
ATOM      3  O   UNL     1      16.639   8.048  22.094  0.00  0.00    -0.388 OA
ATOM     25  H   UNL     1      16.116   7.778  22.866  0.00  0.00    +0.210 HD
ENDBRANCH  10   3
BRANCH   9   5
ATOM      5  N   UNL     1      14.513   6.375  20.495  0.00  0.00    -0.302 NA
ATOM     24  H   UNL     1      14.427   6.403  21.512  0.00  0.00    +0.123 HD
BRANCH   5  14
ATOM     14  C   UNL     1      13.450   7.181  19.908  0.00  0.00    +0.156 C 
BRANCH  14  15
ATOM      7  N   UNL     1      12.244   8.419  21.736  0.00  0.00    -0.336 N 
ATOM      8  N   UNL     1      11.249   6.588  20.970  0.00  0.00    -0.239 NA
ATOM     15  C   UNL     1      12.299   7.371  20.861  0.00  0.00    +0.123 A 
ATOM     17  C   UNL     1      11.085   8.299  22.448  0.00  0.00    +0.106 A 
ATOM     18  C   UNL     1      13.222   9.471  21.893  0.00  0.00    +0.150 C 
ATOM     19  C   UNL     1      10.487   7.161  21.957  0.00  0.00    +0.130 A 
ENDBRANCH  14  15
ENDBRANCH   5  14
ENDBRANCH   9   5
BRANCH  11  13
ATOM     13  C   UNL     1      19.311   6.441  21.304  0.00  0.00    +0.138 C 
BRANCH  13   6
ATOM      4  O   UNL     1      21.088   5.781  23.461  0.00  0.00    -0.270 OA
ATOM      6  N   UNL     1      19.480   7.170  22.529  0.00  0.00    -0.308 N 
ATOM     16  C   UNL     1      20.369   6.775  23.523  0.00  0.00    +0.251 C 
ATOM     26  H   UNL     1      18.905   7.996  22.656  0.00  0.00    +0.149 HD
BRANCH  16  20
ATOM      1  S   UNL     1      20.623   9.313  24.578  0.00  0.00    -0.092 S 
ATOM     20  C   UNL     1      20.408   7.622  24.743  0.00  0.00    +0.074 A 
ATOM     21  C   UNL     1      20.290   7.242  26.062  0.00  0.00    +0.021 A 
ATOM     22  C   UNL     1      20.378   8.354  26.949  0.00  0.00    +0.008 A 
ATOM     23  C   UNL     1      20.560   9.541  26.274  0.00  0.00    +0.046 A 
ENDBRANCH  16  20
ENDBRANCH  13   6
ENDBRANCH  11  13
TORSDOF 7
ENDMDL
MODEL 6
REMARK VINA RESULT:      -5.9     29.529     30.838
REMARK  Name = 75536608
REMARK  8 active torsions:
REMARK  status: ('A' for Active; 'I' for Inactive)
REMARK    1  A    between atoms: O_3  and  C_10
REMARK    2  A    between atoms: N_5  and  C_9
REMARK    3  A    between atoms: N_5  and  C_14
REMARK    4  A    between atoms: N_6  and  C_13
REMARK    5  A    between atoms: N_7  and  C_18
REMARK    6  A    between atoms: C_11  and  C_13
REMARK    7  A    between atoms: C_14  and  C_15
REMARK    8  A    between atoms: C_16  and  C_20
REMARK                            x       y       z     vdW  Elec       q    Type
REMARK                         _______ _______ _______ _____ _____    ______ ____
ROOT
ATOM      2  O   UNL     1     -15.209   0.054  29.083  0.00  0.00    -0.371 OA
ATOM      9  C   UNL     1     -14.319   1.983  30.145  0.00  0.00    +0.111 C 
ATOM     10  C   UNL     1     -15.202   2.416  28.990  0.00  0.00    +0.164 C 
ATOM     11  C   UNL     1     -16.061   1.174  28.794  0.00  0.00    +0.165 C 
ATOM     12  C   UNL     1     -14.049   0.531  29.789  0.00  0.00    +0.181 C 
ENDROOT
BRANCH  10   3
ATOM      3  O   UNL     1     -15.984   3.554  29.298  0.00  0.00    -0.388 OA
ATOM     25  H   UNL     1     -15.392   4.321  29.375  0.00  0.00    +0.210 HD
ENDBRANCH  10   3
BRANCH   9   5
ATOM      5  N   UNL     1     -13.103   2.768  30.278  0.00  0.00    -0.302 NA
ATOM     24  H   UNL     1     -13.156   3.574  29.654  0.00  0.00    +0.123 HD
BRANCH   5  14
ATOM     14  C   UNL     1     -12.929   3.240  31.646  0.00  0.00    +0.156 C 
BRANCH  14  15
ATOM      7  N   UNL     1     -14.949   3.229  33.146  0.00  0.00    -0.336 N 
ATOM      8  N   UNL     1     -14.706   5.008  31.840  0.00  0.00    -0.239 NA
ATOM     15  C   UNL     1     -14.192   3.851  32.193  0.00  0.00    +0.123 A 
ATOM     17  C   UNL     1     -16.013   4.040  33.419  0.00  0.00    +0.106 A 
ATOM     18  C   UNL     1     -14.686   1.949  33.763  0.00  0.00    +0.150 C 
ATOM     19  C   UNL     1     -15.842   5.133  32.601  0.00  0.00    +0.130 A 
ENDBRANCH  14  15
ENDBRANCH   5  14
ENDBRANCH   9   5
BRANCH  11  13
ATOM     13  C   UNL     1     -16.619   1.046  27.388  0.00  0.00    +0.138 C 
BRANCH  13   6
ATOM      4  O   UNL     1     -16.771   1.336  24.535  0.00  0.00    -0.270 OA
ATOM      6  N   UNL     1     -16.420   2.254  26.637  0.00  0.00    -0.308 N 
ATOM     16  C   UNL     1     -16.514   2.302  25.250  0.00  0.00    +0.251 C 
ATOM     26  H   UNL     1     -16.190   3.089  27.162  0.00  0.00    +0.149 HD
BRANCH  16  20
ATOM      1  S   UNL     1     -17.539   4.747  24.484  0.00  0.00    -0.092 S 
ATOM     20  C   UNL     1     -16.255   3.621  24.620  0.00  0.00    +0.074 A 
ATOM     21  C   UNL     1     -15.079   4.114  24.098  0.00  0.00    +0.021 A 
ATOM     22  C   UNL     1     -15.233   5.432  23.580  0.00  0.00    +0.008 A 
ATOM     23  C   UNL     1     -16.522   5.897  23.725  0.00  0.00    +0.046 A 
ENDBRANCH  16  20
ENDBRANCH  13   6
ENDBRANCH  11  13
TORSDOF 7
ENDMDL
MODEL 7
REMARK VINA RESULT:      -5.8     26.520     27.971
REMARK  Name = 75536608
REMARK  8 active torsions:
REMARK  status: ('A' for Active; 'I' for Inactive)
REMARK    1  A    between atoms: O_3  and  C_10
REMARK    2  A    between atoms: N_5  and  C_9
REMARK    3  A    between atoms: N_5  and  C_14
REMARK    4  A    between atoms: N_6  and  C_13
REMARK    5  A    between atoms: N_7  and  C_18
REMARK    6  A    between atoms: C_11  and  C_13
REMARK    7  A    between atoms: C_14  and  C_15
REMARK    8  A    between atoms: C_16  and  C_20
REMARK                            x       y       z     vdW  Elec       q    Type
REMARK                         _______ _______ _______ _____ _____    ______ ____
ROOT
ATOM      2  O   UNL     1      -3.930 -11.856  18.474  0.00  0.00    -0.371 OA
ATOM      9  C   UNL     1      -6.176 -11.099  18.328  0.00  0.00    +0.111 C 
ATOM     10  C   UNL     1      -5.368 -10.470  17.209  0.00  0.00    +0.164 C 
ATOM     11  C   UNL     1      -4.185 -11.426  17.127  0.00  0.00    +0.165 C 
ATOM     12  C   UNL     1      -5.078 -11.539  19.281  0.00  0.00    +0.181 C 
ENDROOT
BRANCH  10   3
ATOM      3  O   UNL     1      -6.081 -10.408  15.989  0.00  0.00    -0.388 OA
ATOM     25  H   UNL     1      -5.510 -10.755  15.283  0.00  0.00    +0.210 HD
ENDBRANCH  10   3
BRANCH   9   5
ATOM      5  N   UNL     1      -7.128 -10.190  18.943  0.00  0.00    -0.302 NA
ATOM     24  H   UNL     1      -6.952  -9.243  18.605  0.00  0.00    +0.123 HD
BRANCH   5  14
ATOM     14  C   UNL     1      -8.499 -10.562  18.615  0.00  0.00    +0.156 C 
BRANCH  14  15
ATOM      7  N   UNL     1     -10.498  -9.198  17.928  0.00  0.00    -0.336 N 
ATOM      8  N   UNL     1      -8.613  -8.800  16.824  0.00  0.00    -0.239 NA
ATOM     15  C   UNL     1      -9.177  -9.513  17.773  0.00  0.00    +0.123 A 
ATOM     17  C   UNL     1     -10.796  -8.221  17.021  0.00  0.00    +0.106 A 
ATOM     18  C   UNL     1     -11.424  -9.779  18.872  0.00  0.00    +0.150 C 
ATOM     19  C   UNL     1      -9.617  -7.992  16.351  0.00  0.00    +0.130 A 
ENDBRANCH  14  15
ENDBRANCH   5  14
ENDBRANCH   9   5
BRANCH  11  13
ATOM     13  C   UNL     1      -2.936 -10.787  16.546  0.00  0.00    +0.138 C 
BRANCH  13   6
ATOM      4  O   UNL     1      -2.109 -12.182  14.176  0.00  0.00    -0.270 OA
ATOM      6  N   UNL     1      -3.147 -10.371  15.188  0.00  0.00    -0.308 N 
ATOM     16  C   UNL     1      -2.710 -11.114  14.097  0.00  0.00    +0.251 C 
ATOM     26  H   UNL     1      -3.625  -9.488  15.047  0.00  0.00    +0.149 HD
BRANCH  16  20
ATOM      1  S   UNL     1      -4.605 -10.271  12.276  0.00  0.00    -0.092 S 
ATOM     20  C   UNL     1      -2.982 -10.534  12.757  0.00  0.00    +0.074 A 
ATOM     21  C   UNL     1      -2.086 -10.150  11.783  0.00  0.00    +0.021 A 
ATOM     22  C   UNL     1      -2.740  -9.634  10.627  0.00  0.00    +0.008 A 
ATOM     23  C   UNL     1      -4.111  -9.643  10.761  0.00  0.00    +0.046 A 
ENDBRANCH  16  20
ENDBRANCH  13   6
ENDBRANCH  11  13
TORSDOF 7
ENDMDL
MODEL 8
REMARK VINA RESULT:      -5.7     25.995     27.754
REMARK  Name = 75536608
REMARK  8 active torsions:
REMARK  status: ('A' for Active; 'I' for Inactive)
REMARK    1  A    between atoms: O_3  and  C_10
REMARK    2  A    between atoms: N_5  and  C_9
REMARK    3  A    between atoms: N_5  and  C_14
REMARK    4  A    between atoms: N_6  and  C_13
REMARK    5  A    between atoms: N_7  and  C_18
REMARK    6  A    between atoms: C_11  and  C_13
REMARK    7  A    between atoms: C_14  and  C_15
REMARK    8  A    between atoms: C_16  and  C_20
REMARK                            x       y       z     vdW  Elec       q    Type
REMARK                         _______ _______ _______ _____ _____    ______ ____
ROOT
ATOM      2  O   UNL     1      -1.216 -11.440  14.842  0.00  0.00    -0.371 OA
ATOM      9  C   UNL     1      -3.290 -10.922  15.876  0.00  0.00    +0.111 C 
ATOM     10  C   UNL     1      -3.467 -10.893  14.369  0.00  0.00    +0.164 C 
ATOM     11  C   UNL     1      -2.277 -11.730  13.918  0.00  0.00    +0.165 C 
ATOM     12  C   UNL     1      -1.780 -10.807  16.003  0.00  0.00    +0.181 C 
ENDROOT
BRANCH  10   3
ATOM      3  O   UNL     1      -4.696 -11.457  13.953  0.00  0.00    -0.388 OA
ATOM     25  H   UNL     1      -4.505 -12.221  13.385  0.00  0.00    +0.210 HD
ENDBRANCH  10   3
BRANCH   9   5
ATOM      5  N   UNL     1      -3.999  -9.858  16.568  0.00  0.00    -0.302 NA
ATOM     24  H   UNL     1      -4.476  -9.273  15.881  0.00  0.00    +0.123 HD
BRANCH   5  14
ATOM     14  C   UNL     1      -4.986 -10.400  17.494  0.00  0.00    +0.156 C 
BRANCH  14  15
ATOM      7  N   UNL     1      -7.483 -10.385  17.802  0.00  0.00    -0.336 N 
ATOM      8  N   UNL     1      -6.738  -9.793  15.796  0.00  0.00    -0.239 NA
ATOM     15  C   UNL     1      -6.393 -10.184  17.002  0.00  0.00    +0.123 A 
ATOM     17  C   UNL     1      -8.594 -10.104  17.060  0.00  0.00    +0.106 A 
ATOM     18  C   UNL     1      -7.479 -10.815  19.181  0.00  0.00    +0.150 C 
ATOM     19  C   UNL     1      -8.110  -9.741  15.825  0.00  0.00    +0.130 A 
ENDBRANCH  14  15
ENDBRANCH   5  14
ENDBRANCH   9   5
BRANCH  11  13
ATOM     13  C   UNL     1      -1.826 -11.416  12.502  0.00  0.00    +0.138 C 
BRANCH  13   6
ATOM      4  O   UNL     1      -1.806  -9.157  10.729  0.00  0.00    -0.270 OA
ATOM      6  N   UNL     1      -2.920 -10.947  11.699  0.00  0.00    -0.308 N 
ATOM     16  C   UNL     1      -2.820  -9.838  10.864  0.00  0.00    +0.251 C 
ATOM     26  H   UNL     1      -3.795 -11.454  11.772  0.00  0.00    +0.149 HD
BRANCH  16  20
ATOM      1  S   UNL     1      -4.635 -10.514   8.898  0.00  0.00    -0.092 S 
ATOM     20  C   UNL     1      -4.049  -9.465  10.119  0.00  0.00    +0.074 A 
ATOM     21  C   UNL     1      -4.839  -8.346  10.261  0.00  0.00    +0.021 A 
ATOM     22  C   UNL     1      -5.940  -8.349   9.357  0.00  0.00    +0.008 A 
ATOM     23  C   UNL     1      -5.949  -9.470   8.557  0.00  0.00    +0.046 A 
ENDBRANCH  16  20
ENDBRANCH  13   6
ENDBRANCH  11  13
TORSDOF 7
ENDMDL
MODEL 9
REMARK VINA RESULT:      -5.6     28.391     30.081
REMARK  Name = 75536608
REMARK  8 active torsions:
REMARK  status: ('A' for Active; 'I' for Inactive)
REMARK    1  A    between atoms: O_3  and  C_10
REMARK    2  A    between atoms: N_5  and  C_9
REMARK    3  A    between atoms: N_5  and  C_14
REMARK    4  A    between atoms: N_6  and  C_13
REMARK    5  A    between atoms: N_7  and  C_18
REMARK    6  A    between atoms: C_11  and  C_13
REMARK    7  A    between atoms: C_14  and  C_15
REMARK    8  A    between atoms: C_16  and  C_20
REMARK                            x       y       z     vdW  Elec       q    Type
REMARK                         _______ _______ _______ _____ _____    ______ ____
ROOT
ATOM      2  O   UNL     1     -12.375  -8.713  16.807  0.00  0.00    -0.371 OA
ATOM      9  C   UNL     1     -11.403  -7.144  15.312  0.00  0.00    +0.111 C 
ATOM     10  C   UNL     1     -10.368  -7.552  16.343  0.00  0.00    +0.164 C 
ATOM     11  C   UNL     1     -10.947  -8.872  16.835  0.00  0.00    +0.165 C 
ATOM     12  C   UNL     1     -12.693  -7.568  15.996  0.00  0.00    +0.181 C 
ENDROOT
BRANCH  10   3
ATOM      3  O   UNL     1      -9.079  -7.717  15.786  0.00  0.00    -0.388 OA
ATOM     25  H   UNL     1      -8.517  -8.164  16.441  0.00  0.00    +0.210 HD
ENDBRANCH  10   3
BRANCH   9   5
ATOM      5  N   UNL     1     -11.376  -5.728  14.984  0.00  0.00    -0.302 NA
ATOM     24  H   UNL     1     -10.618  -5.553  14.323  0.00  0.00    +0.123 HD
BRANCH   5  14
ATOM     14  C   UNL     1     -12.634  -5.303  14.384  0.00  0.00    +0.156 C 
BRANCH  14  15
ATOM      7  N   UNL     1     -12.406  -5.514  11.888  0.00  0.00    -0.336 N 
ATOM      8  N   UNL     1     -12.264  -3.459  12.715  0.00  0.00    -0.239 NA
ATOM     15  C   UNL     1     -12.433  -4.730  13.006  0.00  0.00    +0.123 A 
ATOM     17  C   UNL     1     -12.208  -4.693  10.815  0.00  0.00    +0.106 A 
ATOM     18  C   UNL     1     -12.558  -6.950  11.831  0.00  0.00    +0.150 C 
ATOM     19  C   UNL     1     -12.123  -3.429  11.350  0.00  0.00    +0.130 A 
ENDBRANCH  14  15
ENDBRANCH   5  14
ENDBRANCH   9   5
BRANCH  11  13
ATOM     13  C   UNL     1     -10.498  -9.238  18.238  0.00  0.00    +0.138 C 
BRANCH  13   6
ATOM      4  O   UNL     1      -9.435 -11.047  20.199  0.00  0.00    -0.270 OA
ATOM      6  N   UNL     1      -9.198  -9.846  18.228  0.00  0.00    -0.308 N 
ATOM     16  C   UNL     1      -8.765 -10.715  19.224  0.00  0.00    +0.251 C 
ATOM     26  H   UNL     1      -8.584  -9.605  17.458  0.00  0.00    +0.149 HD
BRANCH  16  20
ATOM      1  S   UNL     1      -7.112 -12.621  18.106  0.00  0.00    -0.092 S 
ATOM     20  C   UNL     1      -7.383 -11.240  19.082  0.00  0.00    +0.074 A 
ATOM     21  C   UNL     1      -6.217 -10.765  19.641  0.00  0.00    +0.021 A 
ATOM     22  C   UNL     1      -5.085 -11.545  19.264  0.00  0.00    +0.008 A 
ATOM     23  C   UNL     1      -5.431 -12.587  18.431  0.00  0.00    +0.046 A 
ENDBRANCH  16  20
ENDBRANCH  13   6
ENDBRANCH  11  13
TORSDOF 7
ENDMDL
MODEL 10
REMARK VINA RESULT:      -5.6     26.588     29.260
REMARK  Name = 75536608
REMARK  8 active torsions:
REMARK  status: ('A' for Active; 'I' for Inactive)
REMARK    1  A    between atoms: O_3  and  C_10
REMARK    2  A    between atoms: N_5  and  C_9
REMARK    3  A    between atoms: N_5  and  C_14
REMARK    4  A    between atoms: N_6  and  C_13
REMARK    5  A    between atoms: N_7  and  C_18
REMARK    6  A    between atoms: C_11  and  C_13
REMARK    7  A    between atoms: C_14  and  C_15
REMARK    8  A    between atoms: C_16  and  C_20
REMARK                            x       y       z     vdW  Elec       q    Type
REMARK                         _______ _______ _______ _____ _____    ______ ____
ROOT
ATOM      2  O   UNL     1      -7.475 -13.001  18.634  0.00  0.00    -0.371 OA
ATOM      9  C   UNL     1      -5.669 -11.469  18.457  0.00  0.00    +0.111 C 
ATOM     10  C   UNL     1      -6.849 -10.771  19.107  0.00  0.00    +0.164 C 
ATOM     11  C   UNL     1      -7.654 -11.962  19.610  0.00  0.00    +0.165 C 
ATOM     12  C   UNL     1      -6.348 -12.664  17.807  0.00  0.00    +0.181 C 
ENDROOT
BRANCH  10   3
ATOM      3  O   UNL     1      -6.461  -9.914  20.163  0.00  0.00    -0.388 OA
ATOM     25  H   UNL     1      -7.227  -9.371  20.414  0.00  0.00    +0.210 HD
ENDBRANCH  10   3
BRANCH   9   5
ATOM      5  N   UNL     1      -4.951 -10.639  17.504  0.00  0.00    -0.302 NA
ATOM     24  H   UNL     1      -4.120 -10.255  17.955  0.00  0.00    +0.123 HD
BRANCH   5  14
ATOM     14  C   UNL     1      -4.543 -11.411  16.337  0.00  0.00    +0.156 C 
BRANCH  14  15
ATOM      7  N   UNL     1      -3.032 -10.635  14.481  0.00  0.00    -0.336 N 
ATOM      8  N   UNL     1      -2.108 -10.800  16.493  0.00  0.00    -0.239 NA
ATOM     15  C   UNL     1      -3.214 -10.950  15.798  0.00  0.00    +0.123 A 
ATOM     17  C   UNL     1      -1.728 -10.259  14.325  0.00  0.00    +0.106 A 
ATOM     18  C   UNL     1      -4.024 -10.684  13.432  0.00  0.00    +0.150 C 
ATOM     19  C   UNL     1      -1.178 -10.369  15.580  0.00  0.00    +0.130 A 
ENDBRANCH  14  15
ENDBRANCH   5  14
ENDBRANCH   9   5
BRANCH  11  13
ATOM     13  C   UNL     1      -9.133 -11.659  19.773  0.00  0.00    +0.138 C 
BRANCH  13   6
ATOM      4  O   UNL     1     -10.819 -11.528  17.452  0.00  0.00    -0.270 OA
ATOM      6  N   UNL     1      -9.506 -10.477  19.049  0.00  0.00    -0.308 N 
ATOM     16  C   UNL     1     -10.332 -10.507  17.930  0.00  0.00    +0.251 C 
ATOM     26  H   UNL     1      -9.126  -9.597  19.380  0.00  0.00    +0.149 HD
BRANCH  16  20
ATOM      1  S   UNL     1      -9.294  -8.310  16.622  0.00  0.00    -0.092 S 
ATOM     20  C   UNL     1     -10.602  -9.201  17.278  0.00  0.00    +0.074 A 
ATOM     21  C   UNL     1     -11.806  -8.554  17.105  0.00  0.00    +0.021 A 
ATOM     22  C   UNL     1     -11.654  -7.311  16.426  0.00  0.00    +0.008 A 
ATOM     23  C   UNL     1     -10.339  -7.055  16.106  0.00  0.00    +0.046 A 
ENDBRANCH  16  20
ENDBRANCH  13   6
ENDBRANCH  11  13
TORSDOF 7
ENDMDL
