MODEL 1
REMARK VINA RESULT:      -6.5      0.000      0.000
REMARK  Name = 71693262
REMARK  7 active torsions:
REMARK  status: ('A' for Active; 'I' for Inactive)
REMARK    1  A    between atoms: O_2  and  C_9
REMARK    2  A    between atoms: N_5  and  C_11
REMARK    3  A    between atoms: N_6  and  C_19
REMARK    4  A    between atoms: C_7  and  C_9
REMARK    5  A    between atoms: C_8  and  C_10
REMARK    6  A    between atoms: C_11  and  C_14
REMARK    7  A    between atoms: C_25  and  C_26
REMARK                            x       y       z     vdW  Elec       q    Type
REMARK                         _______ _______ _______ _____ _____    ______ ____
ROOT
ATOM      1  O   UNL     1      12.843   6.403  21.109  0.00  0.00    -0.361 OA
ATOM      3  O   UNL     1      10.428   8.467  22.381  0.00  0.00    -0.273 OA
ATOM      5  N   UNL     1      11.972   8.933  20.695  0.00  0.00    -0.287 N 
ATOM      7  C   UNL     1      12.754   8.382  19.584  0.00  0.00    +0.135 C 
ATOM      8  C   UNL     1      13.420   7.033  19.960  0.00  0.00    +0.171 C 
ATOM     12  C   UNL     1      11.221   8.098  21.518  0.00  0.00    +0.242 C 
ATOM     13  C   UNL     1      11.456   6.631  21.245  0.00  0.00    +0.256 C 
ENDROOT
BRANCH   8  10
ATOM     10  C   UNL     1      14.899   7.213  20.246  0.00  0.00    -0.017 A 
ATOM     15  C   UNL     1      15.841   6.435  19.572  0.00  0.00    +0.008 A 
ATOM     16  C   UNL     1      15.319   8.157  21.184  0.00  0.00    +0.008 A 
ATOM     17  C   UNL     1      17.200   6.600  19.835  0.00  0.00    +0.023 A 
ATOM     18  C   UNL     1      16.678   8.323  21.447  0.00  0.00    +0.023 A 
ATOM     19  C   UNL     1      17.619   7.545  20.772  0.00  0.00    +0.033 A 
BRANCH  19   6
ATOM      4  O   UNL     1      19.398   6.195  22.791  0.00  0.00    -0.276 OA
ATOM      6  N   UNL     1      18.980   7.710  21.035  0.00  0.00    -0.286 N 
ATOM     25  C   UNL     1      19.762   7.054  21.994  0.00  0.00    +0.214 C 
ATOM     26  C   UNL     1      21.196   7.519  21.959  0.00  0.00    +0.109 C 
ATOM     28  H   UNL     1      19.453   8.397  20.451  0.00  0.00    +0.155 HD
ENDBRANCH  19   6
ENDBRANCH   8  10
BRANCH   7   9
ATOM      9  C   UNL     1      11.883   8.238  18.327  0.00  0.00    +0.181 C 
BRANCH   9   2
ATOM      2  O   UNL     1      12.120   6.961  17.770  0.00  0.00    -0.393 OA
ATOM     27  H   UNL     1      12.446   6.390  18.487  0.00  0.00    +0.209 HD
ENDBRANCH   9   2
ENDBRANCH   7   9
BRANCH   5  11
ATOM     11  C   UNL     1      11.896  10.380  20.827  0.00  0.00    +0.143 C 
BRANCH  11  14
ATOM     14  C   UNL     1      13.149  10.957  21.418  0.00  0.00    -0.030 A 
ATOM     20  C   UNL     1      14.069  11.612  20.600  0.00  0.00    +0.005 A 
ATOM     21  C   UNL     1      13.395  10.835  22.786  0.00  0.00    +0.005 A 
ATOM     22  C   UNL     1      15.234  12.148  21.150  0.00  0.00    +0.000 A 
ATOM     23  C   UNL     1      14.559  11.371  23.335  0.00  0.00    +0.000 A 
ATOM     24  C   UNL     1      15.479  12.027  22.518  0.00  0.00    +0.000 A 
ENDBRANCH  11  14
ENDBRANCH   5  11
TORSDOF 6
ENDMDL
MODEL 2
REMARK VINA RESULT:      -6.3     14.393     17.076
REMARK  Name = 71693262
REMARK  7 active torsions:
REMARK  status: ('A' for Active; 'I' for Inactive)
REMARK    1  A    between atoms: O_2  and  C_9
REMARK    2  A    between atoms: N_5  and  C_11
REMARK    3  A    between atoms: N_6  and  C_19
REMARK    4  A    between atoms: C_7  and  C_9
REMARK    5  A    between atoms: C_8  and  C_10
REMARK    6  A    between atoms: C_11  and  C_14
REMARK    7  A    between atoms: C_25  and  C_26
REMARK                            x       y       z     vdW  Elec       q    Type
REMARK                         _______ _______ _______ _____ _____    ______ ____
ROOT
ATOM      1  O   UNL     1      10.087   4.363   5.901  0.00  0.00    -0.361 OA
ATOM      3  O   UNL     1      10.767   5.696   8.979  0.00  0.00    -0.273 OA
ATOM      5  N   UNL     1      10.602   6.812   6.936  0.00  0.00    -0.287 N 
ATOM      7  C   UNL     1       9.949   6.844   5.624  0.00  0.00    +0.135 C 
ATOM      8  C   UNL     1       9.887   5.437   4.975  0.00  0.00    +0.171 C 
ATOM     12  C   UNL     1      10.384   5.752   7.813  0.00  0.00    +0.242 C 
ATOM     13  C   UNL     1       9.586   4.628   7.195  0.00  0.00    +0.256 C 
ENDROOT
BRANCH   8  10
ATOM     10  C   UNL     1      10.933   5.288   3.886  0.00  0.00    -0.017 A 
ATOM     15  C   UNL     1      10.997   4.114   3.135  0.00  0.00    +0.008 A 
ATOM     16  C   UNL     1      11.830   6.326   3.635  0.00  0.00    +0.008 A 
ATOM     17  C   UNL     1      11.958   3.978   2.135  0.00  0.00    +0.023 A 
ATOM     18  C   UNL     1      12.791   6.190   2.634  0.00  0.00    +0.023 A 
ATOM     19  C   UNL     1      12.856   5.016   1.883  0.00  0.00    +0.033 A 
BRANCH  19   6
ATOM      4  O   UNL     1      15.254   3.204   1.710  0.00  0.00    -0.276 OA
ATOM      6  N   UNL     1      13.817   4.879   0.882  0.00  0.00    -0.286 N 
ATOM     25  C   UNL     1      14.921   4.016   0.853  0.00  0.00    +0.214 C 
ATOM     26  C   UNL     1      15.722   4.174  -0.414  0.00  0.00    +0.109 C 
ATOM     28  H   UNL     1      13.692   5.487   0.075  0.00  0.00    +0.155 HD
ENDBRANCH  19   6
ENDBRANCH   8  10
BRANCH   7   9
ATOM      9  C   UNL     1       8.549   7.467   5.731  0.00  0.00    +0.181 C 
BRANCH   9   2
ATOM      2  O   UNL     1       7.600   6.484   5.372  0.00  0.00    -0.393 OA
ATOM     27  H   UNL     1       6.742   6.933   5.278  0.00  0.00    +0.209 HD
ENDBRANCH   9   2
ENDBRANCH   7   9
BRANCH   5  11
ATOM     11  C   UNL     1      11.373   7.976   7.347  0.00  0.00    +0.143 C 
BRANCH  11  14
ATOM     14  C   UNL     1      12.660   8.095   6.584  0.00  0.00    -0.030 A 
ATOM     20  C   UNL     1      12.847   9.149   5.691  0.00  0.00    +0.005 A 
ATOM     21  C   UNL     1      13.669   7.149   6.769  0.00  0.00    +0.005 A 
ATOM     22  C   UNL     1      14.045   9.260   4.983  0.00  0.00    +0.000 A 
ATOM     23  C   UNL     1      14.865   7.259   6.061  0.00  0.00    +0.000 A 
ATOM     24  C   UNL     1      15.053   8.314   5.168  0.00  0.00    +0.000 A 
ENDBRANCH  11  14
ENDBRANCH   5  11
TORSDOF 6
ENDMDL
MODEL 3
REMARK VINA RESULT:      -6.1     30.981     32.987
REMARK  Name = 71693262
REMARK  7 active torsions:
REMARK  status: ('A' for Active; 'I' for Inactive)
REMARK    1  A    between atoms: O_2  and  C_9
REMARK    2  A    between atoms: N_5  and  C_11
REMARK    3  A    between atoms: N_6  and  C_19
REMARK    4  A    between atoms: C_7  and  C_9
REMARK    5  A    between atoms: C_8  and  C_10
REMARK    6  A    between atoms: C_11  and  C_14
REMARK    7  A    between atoms: C_25  and  C_26
REMARK                            x       y       z     vdW  Elec       q    Type
REMARK                         _______ _______ _______ _____ _____    ______ ____
ROOT
ATOM      1  O   UNL     1     -14.540   6.133  33.309  0.00  0.00    -0.361 OA
ATOM      3  O   UNL     1     -16.459   8.645  32.000  0.00  0.00    -0.273 OA
ATOM      5  N   UNL     1     -17.067   6.425  32.383  0.00  0.00    -0.287 N 
ATOM      7  C   UNL     1     -16.877   5.248  33.237  0.00  0.00    +0.135 C 
ATOM      8  C   UNL     1     -15.379   4.997  33.548  0.00  0.00    +0.171 C 
ATOM     12  C   UNL     1     -16.288   7.566  32.562  0.00  0.00    +0.242 C 
ATOM     13  C   UNL     1     -15.173   7.370  33.561  0.00  0.00    +0.256 C 
ENDROOT
BRANCH   8  10
ATOM     10  C   UNL     1     -14.829   3.854  32.716  0.00  0.00    -0.017 A 
ATOM     15  C   UNL     1     -14.649   2.595  33.290  0.00  0.00    +0.008 A 
ATOM     16  C   UNL     1     -14.505   4.061  31.375  0.00  0.00    +0.008 A 
ATOM     17  C   UNL     1     -14.143   1.545  32.525  0.00  0.00    +0.023 A 
ATOM     18  C   UNL     1     -14.000   3.011  30.609  0.00  0.00    +0.023 A 
ATOM     19  C   UNL     1     -13.819   1.752  31.184  0.00  0.00    +0.033 A 
BRANCH  19   6
ATOM      4  O   UNL     1     -15.213  -0.618  29.957  0.00  0.00    -0.276 OA
ATOM      6  N   UNL     1     -13.314   0.700  30.418  0.00  0.00    -0.286 N 
ATOM     25  C   UNL     1     -14.012  -0.384  29.871  0.00  0.00    +0.214 C 
ATOM     26  C   UNL     1     -13.098  -1.308  29.105  0.00  0.00    +0.109 C 
ATOM     28  H   UNL     1     -12.312   0.735  30.241  0.00  0.00    +0.155 HD
ENDBRANCH  19   6
ENDBRANCH   8  10
BRANCH   7   9
ATOM      9  C   UNL     1     -17.698   5.377  34.528  0.00  0.00    +0.181 C 
BRANCH   9   2
ATOM      2  O   UNL     1     -16.896   4.938  35.605  0.00  0.00    -0.393 OA
ATOM     27  H   UNL     1     -15.985   4.858  35.273  0.00  0.00    +0.209 HD
ENDBRANCH   9   2
ENDBRANCH   7   9
BRANCH   5  11
ATOM     11  C   UNL     1     -18.176   6.416  31.441  0.00  0.00    +0.143 C 
BRANCH  11  14
ATOM     14  C   UNL     1     -17.967   5.420  30.337  0.00  0.00    -0.030 A 
ATOM     20  C   UNL     1     -18.668   4.216  30.342  0.00  0.00    +0.005 A 
ATOM     21  C   UNL     1     -17.068   5.701  29.307  0.00  0.00    +0.005 A 
ATOM     22  C   UNL     1     -18.474   3.291  29.315  0.00  0.00    +0.000 A 
ATOM     23  C   UNL     1     -16.874   4.776  28.281  0.00  0.00    +0.000 A 
ATOM     24  C   UNL     1     -17.576   3.571  28.285  0.00  0.00    +0.000 A 
ENDBRANCH  11  14
ENDBRANCH   5  11
TORSDOF 6
ENDMDL
MODEL 4
REMARK VINA RESULT:      -6.0     14.384     16.420
REMARK  Name = 71693262
REMARK  7 active torsions:
REMARK  status: ('A' for Active; 'I' for Inactive)
REMARK    1  A    between atoms: O_2  and  C_9
REMARK    2  A    between atoms: N_5  and  C_11
REMARK    3  A    between atoms: N_6  and  C_19
REMARK    4  A    between atoms: C_7  and  C_9
REMARK    5  A    between atoms: C_8  and  C_10
REMARK    6  A    between atoms: C_11  and  C_14
REMARK    7  A    between atoms: C_25  and  C_26
REMARK                            x       y       z     vdW  Elec       q    Type
REMARK                         _______ _______ _______ _____ _____    ______ ____
ROOT
ATOM      1  O   UNL     1      10.117   8.442   6.837  0.00  0.00    -0.361 OA
ATOM      3  O   UNL     1       7.858   6.980   4.723  0.00  0.00    -0.273 OA
ATOM      5  N   UNL     1       9.681   5.985   5.787  0.00  0.00    -0.287 N 
ATOM      7  C   UNL     1      10.531   5.981   6.983  0.00  0.00    +0.135 C 
ATOM      8  C   UNL     1      10.938   7.416   7.406  0.00  0.00    +0.171 C 
ATOM     12  C   UNL     1       8.708   6.966   5.610  0.00  0.00    +0.242 C 
ATOM     13  C   UNL     1       8.771   8.056   6.654  0.00  0.00    +0.256 C 
ENDROOT
BRANCH   8  10
ATOM     10  C   UNL     1      12.371   7.720   7.008  0.00  0.00    -0.017 A 
ATOM     15  C   UNL     1      12.727   9.009   6.613  0.00  0.00    +0.008 A 
ATOM     16  C   UNL     1      13.332   6.709   7.037  0.00  0.00    +0.008 A 
ATOM     17  C   UNL     1      14.044   9.288   6.248  0.00  0.00    +0.023 A 
ATOM     18  C   UNL     1      14.648   6.987   6.672  0.00  0.00    +0.023 A 
ATOM     19  C   UNL     1      15.005   8.277   6.277  0.00  0.00    +0.033 A 
BRANCH  19   6
ATOM      4  O   UNL     1      16.454   7.810   3.680  0.00  0.00    -0.276 OA
ATOM      6  N   UNL     1      16.322   8.557   5.912  0.00  0.00    -0.286 N 
ATOM     25  C   UNL     1      16.949   8.315   4.683  0.00  0.00    +0.214 C 
ATOM     26  C   UNL     1      18.389   8.765   4.691  0.00  0.00    +0.109 C 
ATOM     28  H   UNL     1      16.891   8.990   6.637  0.00  0.00    +0.155 HD
ENDBRANCH  19   6
ENDBRANCH   8  10
BRANCH   7   9
ATOM      9  C   UNL     1       9.840   5.238   8.136  0.00  0.00    +0.181 C 
BRANCH   9   2
ATOM      2  O   UNL     1      10.479   3.988   8.300  0.00  0.00    -0.393 OA
ATOM     27  H   UNL     1      11.364   4.063   7.904  0.00  0.00    +0.209 HD
ENDBRANCH   9   2
ENDBRANCH   7   9
BRANCH   5  11
ATOM     11  C   UNL     1       9.791   4.865   4.864  0.00  0.00    +0.143 C 
BRANCH  11  14
ATOM     14  C   UNL     1      10.870   5.083   3.844  0.00  0.00    -0.030 A 
ATOM     20  C   UNL     1      11.192   4.069   2.942  0.00  0.00    +0.005 A 
ATOM     21  C   UNL     1      11.551   6.299   3.798  0.00  0.00    +0.005 A 
ATOM     22  C   UNL     1      12.195   4.272   1.993  0.00  0.00    +0.000 A 
ATOM     23  C   UNL     1      12.553   6.502   2.850  0.00  0.00    +0.000 A 
ATOM     24  C   UNL     1      12.876   5.489   1.948  0.00  0.00    +0.000 A 
ENDBRANCH  11  14
ENDBRANCH   5  11
TORSDOF 6
ENDMDL
MODEL 5
REMARK VINA RESULT:      -5.9      1.516      1.947
REMARK  Name = 71693262
REMARK  7 active torsions:
REMARK  status: ('A' for Active; 'I' for Inactive)
REMARK    1  A    between atoms: O_2  and  C_9
REMARK    2  A    between atoms: N_5  and  C_11
REMARK    3  A    between atoms: N_6  and  C_19
REMARK    4  A    between atoms: C_7  and  C_9
REMARK    5  A    between atoms: C_8  and  C_10
REMARK    6  A    between atoms: C_11  and  C_14
REMARK    7  A    between atoms: C_25  and  C_26
REMARK                            x       y       z     vdW  Elec       q    Type
REMARK                         _______ _______ _______ _____ _____    ______ ____
ROOT
ATOM      1  O   UNL     1      13.220   6.774  20.920  0.00  0.00    -0.361 OA
ATOM      3  O   UNL     1      11.733   9.788  21.568  0.00  0.00    -0.273 OA
ATOM      5  N   UNL     1      13.138   9.232  19.789  0.00  0.00    -0.287 N 
ATOM      7  C   UNL     1      13.574   8.170  18.877  0.00  0.00    +0.135 C 
ATOM      8  C   UNL     1      13.826   6.835  19.625  0.00  0.00    +0.171 C 
ATOM     12  C   UNL     1      12.266   8.954  20.839  0.00  0.00    +0.242 C 
ATOM     13  C   UNL     1      11.998   7.477  21.010  0.00  0.00    +0.256 C 
ENDROOT
BRANCH   8  10
ATOM     10  C   UNL     1      15.310   6.584  19.815  0.00  0.00    -0.017 A 
ATOM     15  C   UNL     1      15.889   6.738  21.075  0.00  0.00    +0.008 A 
ATOM     16  C   UNL     1      16.097   6.199  18.729  0.00  0.00    +0.008 A 
ATOM     17  C   UNL     1      17.253   6.507  21.249  0.00  0.00    +0.023 A 
ATOM     18  C   UNL     1      17.461   5.968  18.903  0.00  0.00    +0.023 A 
ATOM     19  C   UNL     1      18.040   6.122  20.163  0.00  0.00    +0.033 A 
BRANCH  19   6
ATOM      4  O   UNL     1      20.242   7.982  21.030  0.00  0.00    -0.276 OA
ATOM      6  N   UNL     1      19.405   5.890  20.338  0.00  0.00    -0.286 N 
ATOM     25  C   UNL     1      20.391   6.799  20.744  0.00  0.00    +0.214 C 
ATOM     26  C   UNL     1      21.752   6.153  20.811  0.00  0.00    +0.109 C 
ATOM     28  H   UNL     1      19.712   4.939  20.144  0.00  0.00    +0.155 HD
ENDBRANCH  19   6
ENDBRANCH   8  10
BRANCH   7   9
ATOM      9  C   UNL     1      12.561   7.984  17.737  0.00  0.00    +0.181 C 
BRANCH   9   2
ATOM      2  O   UNL     1      13.249   8.117  16.511  0.00  0.00    -0.393 OA
ATOM     27  H   UNL     1      14.160   7.809  16.656  0.00  0.00    +0.209 HD
ENDBRANCH   9   2
ENDBRANCH   7   9
BRANCH   5  11
ATOM     11  C   UNL     1      13.533  10.600  19.486  0.00  0.00    +0.143 C 
BRANCH  11  14
ATOM     14  C   UNL     1      14.768  11.007  20.235  0.00  0.00    -0.030 A 
ATOM     20  C   UNL     1      15.961  10.310  20.043  0.00  0.00    +0.005 A 
ATOM     21  C   UNL     1      14.722  12.081  21.123  0.00  0.00    +0.005 A 
ATOM     22  C   UNL     1      17.110  10.689  20.738  0.00  0.00    +0.000 A 
ATOM     23  C   UNL     1      15.871  12.459  21.819  0.00  0.00    +0.000 A 
ATOM     24  C   UNL     1      17.064  11.763  21.627  0.00  0.00    +0.000 A 
ENDBRANCH  11  14
ENDBRANCH   5  11
TORSDOF 6
ENDMDL
MODEL 6
REMARK VINA RESULT:      -5.9     26.517     28.978
REMARK  Name = 71693262
REMARK  7 active torsions:
REMARK  status: ('A' for Active; 'I' for Inactive)
REMARK    1  A    between atoms: O_2  and  C_9
REMARK    2  A    between atoms: N_5  and  C_11
REMARK    3  A    between atoms: N_6  and  C_19
REMARK    4  A    between atoms: C_7  and  C_9
REMARK    5  A    between atoms: C_8  and  C_10
REMARK    6  A    between atoms: C_11  and  C_14
REMARK    7  A    between atoms: C_25  and  C_26
REMARK                            x       y       z     vdW  Elec       q    Type
REMARK                         _______ _______ _______ _____ _____    ______ ____
ROOT
ATOM      1  O   UNL     1      -4.228 -13.202  14.661  0.00  0.00    -0.361 OA
ATOM      3  O   UNL     1      -2.626 -13.324  11.639  0.00  0.00    -0.273 OA
ATOM      5  N   UNL     1      -2.621 -11.587  13.198  0.00  0.00    -0.287 N 
ATOM      7  C   UNL     1      -2.682 -11.237  14.621  0.00  0.00    +0.135 C 
ATOM      8  C   UNL     1      -3.784 -12.036  15.364  0.00  0.00    +0.171 C 
ATOM     12  C   UNL     1      -2.796 -12.905  12.782  0.00  0.00    +0.242 C 
ATOM     13  C   UNL     1      -3.215 -13.828  13.902  0.00  0.00    +0.256 C 
ENDROOT
BRANCH   8  10
ATOM     10  C   UNL     1      -5.007 -11.177  15.620  0.00  0.00    -0.017 A 
ATOM     15  C   UNL     1      -4.916 -10.063  16.455  0.00  0.00    +0.008 A 
ATOM     16  C   UNL     1      -6.224 -11.499  15.019  0.00  0.00    +0.008 A 
ATOM     17  C   UNL     1      -6.041  -9.273  16.690  0.00  0.00    +0.023 A 
ATOM     18  C   UNL     1      -7.349 -10.710  15.253  0.00  0.00    +0.023 A 
ATOM     19  C   UNL     1      -7.258  -9.596  16.089  0.00  0.00    +0.033 A 
BRANCH  19   6
ATOM      4  O   UNL     1      -9.438  -9.861  18.148  0.00  0.00    -0.276 OA
ATOM      6  N   UNL     1      -8.383  -8.805  16.324  0.00  0.00    -0.286 N 
ATOM     25  C   UNL     1      -9.373  -8.976  17.300  0.00  0.00    +0.214 C 
ATOM     26  C   UNL     1     -10.427  -7.901  17.223  0.00  0.00    +0.109 C 
ATOM     28  H   UNL     1      -8.489  -8.006  15.701  0.00  0.00    +0.155 HD
ENDBRANCH  19   6
ENDBRANCH   8  10
BRANCH   7   9
ATOM      9  C   UNL     1      -1.312 -11.431  15.286  0.00  0.00    +0.181 C 
BRANCH   9   2
ATOM      2  O   UNL     1      -1.424 -11.055  16.643  0.00  0.00    -0.393 OA
ATOM     27  H   UNL     1      -0.743 -10.381  16.812  0.00  0.00    +0.209 HD
ENDBRANCH   9   2
ENDBRANCH   7   9
BRANCH   5  11
ATOM     11  C   UNL     1      -2.240 -10.548  12.253  0.00  0.00    +0.143 C 
BRANCH  11  14
ATOM     14  C   UNL     1      -3.427  -9.989  11.524  0.00  0.00    -0.030 A 
ATOM     20  C   UNL     1      -3.276  -9.469  10.239  0.00  0.00    +0.005 A 
ATOM     21  C   UNL     1      -4.682  -9.989  12.134  0.00  0.00    +0.005 A 
ATOM     22  C   UNL     1      -4.380  -8.950   9.562  0.00  0.00    +0.000 A 
ATOM     23  C   UNL     1      -5.785  -9.469  11.457  0.00  0.00    +0.000 A 
ATOM     24  C   UNL     1      -5.635  -8.950  10.172  0.00  0.00    +0.000 A 
ENDBRANCH  11  14
ENDBRANCH   5  11
TORSDOF 6
ENDMDL
MODEL 7
REMARK VINA RESULT:      -5.7     26.322     28.832
REMARK  Name = 71693262
REMARK  7 active torsions:
REMARK  status: ('A' for Active; 'I' for Inactive)
REMARK    1  A    between atoms: O_2  and  C_9
REMARK    2  A    between atoms: N_5  and  C_11
REMARK    3  A    between atoms: N_6  and  C_19
REMARK    4  A    between atoms: C_7  and  C_9
REMARK    5  A    between atoms: C_8  and  C_10
REMARK    6  A    between atoms: C_11  and  C_14
REMARK    7  A    between atoms: C_25  and  C_26
REMARK                            x       y       z     vdW  Elec       q    Type
REMARK                         _______ _______ _______ _____ _____    ______ ____
ROOT
ATOM      1  O   UNL     1     -14.555   8.250  19.137  0.00  0.00    -0.361 OA
ATOM      3  O   UNL     1     -14.013  11.629  19.154  0.00  0.00    -0.273 OA
ATOM      5  N   UNL     1     -12.697   9.959  20.116  0.00  0.00    -0.287 N 
ATOM      7  C   UNL     1     -12.235   8.571  20.011  0.00  0.00    +0.135 C 
ATOM      8  C   UNL     1     -13.395   7.600  19.670  0.00  0.00    +0.171 C 
ATOM     12  C   UNL     1     -13.662  10.454  19.242  0.00  0.00    +0.242 C 
ATOM     13  C   UNL     1     -14.260   9.388  18.355  0.00  0.00    +0.256 C 
ENDROOT
BRANCH   8  10
ATOM     10  C   UNL     1     -13.841   6.826  20.896  0.00  0.00    -0.017 A 
ATOM     15  C   UNL     1     -12.967   5.931  21.513  0.00  0.00    +0.008 A 
ATOM     16  C   UNL     1     -15.126   7.010  21.408  0.00  0.00    +0.008 A 
ATOM     17  C   UNL     1     -13.378   5.219  22.639  0.00  0.00    +0.023 A 
ATOM     18  C   UNL     1     -15.537   6.299  22.534  0.00  0.00    +0.023 A 
ATOM     19  C   UNL     1     -14.663   5.403  23.151  0.00  0.00    +0.033 A 
BRANCH  19   6
ATOM      4  O   UNL     1     -16.146   2.793  23.382  0.00  0.00    -0.276 OA
ATOM      6  N   UNL     1     -15.073   4.691  24.279  0.00  0.00    -0.286 N 
ATOM     25  C   UNL     1     -15.766   3.475  24.330  0.00  0.00    +0.214 C 
ATOM     26  C   UNL     1     -16.022   3.036  25.749  0.00  0.00    +0.109 C 
ATOM     28  H   UNL     1     -14.833   5.118  25.172  0.00  0.00    +0.155 HD
ENDBRANCH  19   6
ENDBRANCH   8  10
BRANCH   7   9
ATOM      9  C   UNL     1     -11.096   8.455  18.987  0.00  0.00    +0.181 C 
BRANCH   9   2
ATOM      2  O   UNL     1     -11.332   7.311  18.193  0.00  0.00    -0.393 OA
ATOM     27  H   UNL     1     -11.076   7.535  17.282  0.00  0.00    +0.209 HD
ENDBRANCH   9   2
ENDBRANCH   7   9
BRANCH   5  11
ATOM     11  C   UNL     1     -12.025  10.834  21.065  0.00  0.00    +0.143 C 
BRANCH  11  14
ATOM     14  C   UNL     1     -12.556  10.664  22.459  0.00  0.00    -0.030 A 
ATOM     20  C   UNL     1     -13.755   9.984  22.670  0.00  0.00    +0.005 A 
ATOM     21  C   UNL     1     -11.850  11.188  23.542  0.00  0.00    +0.005 A 
ATOM     22  C   UNL     1     -14.247   9.825  23.966  0.00  0.00    +0.000 A 
ATOM     23  C   UNL     1     -12.343  11.029  24.837  0.00  0.00    +0.000 A 
ATOM     24  C   UNL     1     -13.541  10.348  25.049  0.00  0.00    +0.000 A 
ENDBRANCH  11  14
ENDBRANCH   5  11
TORSDOF 6
ENDMDL
MODEL 8
REMARK VINA RESULT:      -5.6      2.669      6.858
REMARK  Name = 71693262
REMARK  7 active torsions:
REMARK  status: ('A' for Active; 'I' for Inactive)
REMARK    1  A    between atoms: O_2  and  C_9
REMARK    2  A    between atoms: N_5  and  C_11
REMARK    3  A    between atoms: N_6  and  C_19
REMARK    4  A    between atoms: C_7  and  C_9
REMARK    5  A    between atoms: C_8  and  C_10
REMARK    6  A    between atoms: C_11  and  C_14
REMARK    7  A    between atoms: C_25  and  C_26
REMARK                            x       y       z     vdW  Elec       q    Type
REMARK                         _______ _______ _______ _____ _____    ______ ____
ROOT
ATOM      1  O   UNL     1      20.490   6.952  20.392  0.00  0.00    -0.361 OA
ATOM      3  O   UNL     1      22.521   9.701  20.557  0.00  0.00    -0.273 OA
ATOM      5  N   UNL     1      20.601   9.258  21.806  0.00  0.00    -0.287 N 
ATOM      7  C   UNL     1      19.771   8.218  22.425  0.00  0.00    +0.135 C 
ATOM      8  C   UNL     1      19.553   7.013  21.474  0.00  0.00    +0.171 C 
ATOM     12  C   UNL     1      21.687   8.917  21.004  0.00  0.00    +0.242 C 
ATOM     13  C   UNL     1      21.774   7.435  20.726  0.00  0.00    +0.256 C 
ENDROOT
BRANCH   8  10
ATOM     10  C   UNL     1      18.166   7.043  20.860  0.00  0.00    -0.017 A 
ATOM     15  C   UNL     1      17.850   6.186  19.805  0.00  0.00    +0.008 A 
ATOM     16  C   UNL     1      17.204   7.926  21.352  0.00  0.00    +0.008 A 
ATOM     17  C   UNL     1      16.575   6.214  19.242  0.00  0.00    +0.023 A 
ATOM     18  C   UNL     1      15.929   7.953  20.790  0.00  0.00    +0.023 A 
ATOM     19  C   UNL     1      15.613   7.097  19.734  0.00  0.00    +0.033 A 
BRANCH  19   6
ATOM      4  O   UNL     1      14.447   8.897  17.622  0.00  0.00    -0.276 OA
ATOM      6  N   UNL     1      14.337   7.123  19.170  0.00  0.00    -0.286 N 
ATOM     25  C   UNL     1      13.844   7.990  18.186  0.00  0.00    +0.214 C 
ATOM     26  C   UNL     1      12.406   7.689  17.847  0.00  0.00    +0.109 C 
ATOM     28  H   UNL     1      13.691   6.421  19.526  0.00  0.00    +0.155 HD
ENDBRANCH  19   6
ENDBRANCH   8  10
BRANCH   7   9
ATOM      9  C   UNL     1      20.377   7.767  23.762  0.00  0.00    +0.181 C 
BRANCH   9   2
ATOM      2  O   UNL     1      19.892   6.471  24.050  0.00  0.00    -0.393 OA
ATOM     27  H   UNL     1      19.494   6.503  24.937  0.00  0.00    +0.209 HD
ENDBRANCH   9   2
ENDBRANCH   7   9
BRANCH   5  11
ATOM     11  C   UNL     1      20.339  10.645  22.163  0.00  0.00    +0.143 C 
BRANCH  11  14
ATOM     14  C   UNL     1      18.963  11.080  21.751  0.00  0.00    -0.030 A 
ATOM     20  C   UNL     1      18.650  11.216  20.399  0.00  0.00    +0.005 A 
ATOM     21  C   UNL     1      17.998  11.349  22.721  0.00  0.00    +0.005 A 
ATOM     22  C   UNL     1      17.370  11.620  20.016  0.00  0.00    +0.000 A 
ATOM     23  C   UNL     1      16.719  11.754  22.338  0.00  0.00    +0.000 A 
ATOM     24  C   UNL     1      16.405  11.890  20.987  0.00  0.00    +0.000 A 
ENDBRANCH  11  14
ENDBRANCH   5  11
TORSDOF 6
ENDMDL
MODEL 9
REMARK VINA RESULT:      -5.5     25.704     29.090
REMARK  Name = 71693262
REMARK  7 active torsions:
REMARK  status: ('A' for Active; 'I' for Inactive)
REMARK    1  A    between atoms: O_2  and  C_9
REMARK    2  A    between atoms: N_5  and  C_11
REMARK    3  A    between atoms: N_6  and  C_19
REMARK    4  A    between atoms: C_7  and  C_9
REMARK    5  A    between atoms: C_8  and  C_10
REMARK    6  A    between atoms: C_11  and  C_14
REMARK    7  A    between atoms: C_25  and  C_26
REMARK                            x       y       z     vdW  Elec       q    Type
REMARK                         _______ _______ _______ _____ _____    ______ ____
ROOT
ATOM      1  O   UNL     1     -13.198  10.649  16.475  0.00  0.00    -0.361 OA
ATOM      3  O   UNL     1     -10.826  11.891  18.606  0.00  0.00    -0.273 OA
ATOM      5  N   UNL     1     -11.253   9.659  18.077  0.00  0.00    -0.287 N 
ATOM      7  C   UNL     1     -11.704   8.726  17.039  0.00  0.00    +0.135 C 
ATOM      8  C   UNL     1     -12.966   9.246  16.304  0.00  0.00    +0.171 C 
ATOM     12  C   UNL     1     -11.304  11.035  17.866  0.00  0.00    +0.242 C 
ATOM     13  C   UNL     1     -12.013  11.411  16.587  0.00  0.00    +0.256 C 
ENDROOT
BRANCH   8  10
ATOM     10  C   UNL     1     -14.214   8.528  16.781  0.00  0.00    -0.017 A 
ATOM     15  C   UNL     1     -14.508   8.466  18.143  0.00  0.00    +0.008 A 
ATOM     16  C   UNL     1     -15.070   7.929  15.856  0.00  0.00    +0.008 A 
ATOM     17  C   UNL     1     -15.655   7.805  18.580  0.00  0.00    +0.023 A 
ATOM     18  C   UNL     1     -16.218   7.268  16.292  0.00  0.00    +0.023 A 
ATOM     19  C   UNL     1     -16.511   7.207  17.655  0.00  0.00    +0.033 A 
BRANCH  19   6
ATOM      4  O   UNL     1     -16.820   4.658  19.227  0.00  0.00    -0.276 OA
ATOM      6  N   UNL     1     -17.660   6.546  18.093  0.00  0.00    -0.286 N 
ATOM     25  C   UNL     1     -17.747   5.354  18.824  0.00  0.00    +0.214 C 
ATOM     26  C   UNL     1     -19.179   4.971  19.101  0.00  0.00    +0.109 C 
ATOM     28  H   UNL     1     -18.539   6.995  17.845  0.00  0.00    +0.155 HD
ENDBRANCH  19   6
ENDBRANCH   8  10
BRANCH   7   9
ATOM      9  C   UNL     1     -10.569   8.427  16.049  0.00  0.00    +0.181 C 
BRANCH   9   2
ATOM      2  O   UNL     1     -10.092   7.122  16.306  0.00  0.00    -0.393 OA
ATOM     27  H   UNL     1     -10.046   7.017  17.272  0.00  0.00    +0.209 HD
ENDBRANCH   9   2
ENDBRANCH   7   9
BRANCH   5  11
ATOM     11  C   UNL     1     -10.628   9.107  19.270  0.00  0.00    +0.143 C 
BRANCH  11  14
ATOM     14  C   UNL     1     -11.630   8.457  20.179  0.00  0.00    -0.030 A 
ATOM     20  C   UNL     1     -12.513   9.243  20.918  0.00  0.00    +0.005 A 
ATOM     21  C   UNL     1     -11.676   7.067  20.284  0.00  0.00    +0.005 A 
ATOM     22  C   UNL     1     -13.446   8.638  21.763  0.00  0.00    +0.000 A 
ATOM     23  C   UNL     1     -12.608   6.463  21.128  0.00  0.00    +0.000 A 
ATOM     24  C   UNL     1     -13.492   7.248  21.868  0.00  0.00    +0.000 A 
ENDBRANCH  11  14
ENDBRANCH   5  11
TORSDOF 6
ENDMDL
MODEL 10
REMARK VINA RESULT:      -5.5     11.337     14.037
REMARK  Name = 71693262
REMARK  7 active torsions:
REMARK  status: ('A' for Active; 'I' for Inactive)
REMARK    1  A    between atoms: O_2  and  C_9
REMARK    2  A    between atoms: N_5  and  C_11
REMARK    3  A    between atoms: N_6  and  C_19
REMARK    4  A    between atoms: C_7  and  C_9
REMARK    5  A    between atoms: C_8  and  C_10
REMARK    6  A    between atoms: C_11  and  C_14
REMARK    7  A    between atoms: C_25  and  C_26
REMARK                            x       y       z     vdW  Elec       q    Type
REMARK                         _______ _______ _______ _____ _____    ______ ____
ROOT
ATOM      1  O   UNL     1      20.165  -6.240  25.744  0.00  0.00    -0.361 OA
ATOM      3  O   UNL     1      16.936  -7.142  25.058  0.00  0.00    -0.273 OA
ATOM      5  N   UNL     1      18.352  -5.795  23.783  0.00  0.00    -0.287 N 
ATOM      7  C   UNL     1      19.738  -5.532  23.384  0.00  0.00    +0.135 C 
ATOM      8  C   UNL     1      20.706  -5.576  24.595  0.00  0.00    +0.171 C 
ATOM     12  C   UNL     1      18.061  -6.749  24.754  0.00  0.00    +0.242 C 
ATOM     13  C   UNL     1      19.294  -7.305  25.426  0.00  0.00    +0.256 C 
ENDROOT
BRANCH   8  10
ATOM     10  C   UNL     1      21.101  -4.179  25.033  0.00  0.00    -0.017 A 
ATOM     15  C   UNL     1      20.216  -3.115  24.856  0.00  0.00    +0.008 A 
ATOM     16  C   UNL     1      22.350  -3.957  25.614  0.00  0.00    +0.008 A 
ATOM     17  C   UNL     1      20.580  -1.830  25.259  0.00  0.00    +0.023 A 
ATOM     18  C   UNL     1      22.714  -2.673  26.017  0.00  0.00    +0.023 A 
ATOM     19  C   UNL     1      21.829  -1.609  25.840  0.00  0.00    +0.033 A 
BRANCH  19   6
ATOM      4  O   UNL     1      23.327   0.550  24.371  0.00  0.00    -0.276 OA
ATOM      6  N   UNL     1      22.192  -0.323  26.243  0.00  0.00    -0.286 N 
ATOM     25  C   UNL     1      22.895   0.646  25.515  0.00  0.00    +0.214 C 
ATOM     26  C   UNL     1      23.088   1.912  26.311  0.00  0.00    +0.109 C 
ATOM     28  H   UNL     1      21.906  -0.068  27.186  0.00  0.00    +0.155 HD
ENDBRANCH  19   6
ENDBRANCH   8  10
BRANCH   7   9
ATOM      9  C   UNL     1      20.180  -6.511  22.286  0.00  0.00    +0.181 C 
BRANCH   9   2
ATOM      2  O   UNL     1      20.111  -5.840  21.044  0.00  0.00    -0.393 OA
ATOM     27  H   UNL     1      20.952  -5.365  20.926  0.00  0.00    +0.209 HD
ENDBRANCH   9   2
ENDBRANCH   7   9
BRANCH   5  11
ATOM     11  C   UNL     1      17.289  -5.130  23.044  0.00  0.00    +0.143 C 
BRANCH  11  14
ATOM     14  C   UNL     1      17.185  -3.674  23.396  0.00  0.00    -0.030 A 
ATOM     20  C   UNL     1      16.683  -3.292  24.639  0.00  0.00    +0.005 A 
ATOM     21  C   UNL     1      17.591  -2.705  22.478  0.00  0.00    +0.005 A 
ATOM     22  C   UNL     1      16.588  -1.938  24.966  0.00  0.00    +0.000 A 
ATOM     23  C   UNL     1      17.496  -1.353  22.806  0.00  0.00    +0.000 A 
ATOM     24  C   UNL     1      16.994  -0.969  24.049  0.00  0.00    +0.000 A 
ENDBRANCH  11  14
ENDBRANCH   5  11
TORSDOF 6
ENDMDL
