MODEL 1
REMARK VINA RESULT:      -7.7      0.000      0.000
REMARK  Name = 11882867
REMARK  9 active torsions:
REMARK  status: ('A' for Active; 'I' for Inactive)
REMARK    1  A    between atoms: O_3  and  C_15
REMARK    2  A    between atoms: O_4  and  C_20
REMARK    3  A    between atoms: N_8  and  C_26
REMARK    4  A    between atoms: C_10  and  C_18
REMARK    5  A    between atoms: C_12  and  C_20
REMARK    6  A    between atoms: C_12  and  C_21
REMARK    7  A    between atoms: C_13  and  C_23
REMARK    8  A    between atoms: C_23  and  C_24
REMARK    9  A    between atoms: C_27  and  C_30
REMARK                            x       y       z     vdW  Elec       q    Type
REMARK                         _______ _______ _______ _____ _____    ______ ____
ROOT
ATOM      1  S   UNL     1      11.222   3.670   2.407  0.00  0.00    -0.057 S 
ATOM      6  O   UNL     1       9.207   7.073   4.862  0.00  0.00    -0.270 OA
ATOM      7  N   UNL     1      10.126   6.008   2.261  0.00  0.00    -0.229 NA
ATOM      9  N   UNL     1      10.264   5.007   4.448  0.00  0.00    -0.261 N 
ATOM     10  C   UNL     1      11.119   6.096  -1.465  0.00  0.00    -0.019 C 
ATOM     11  C   UNL     1      10.994   4.516  -1.616  0.00  0.00    +0.011 C 
ATOM     12  C   UNL     1      11.423   3.894  -3.001  0.00  0.00    +0.021 C 
ATOM     13  C   UNL     1      10.245   6.541  -0.202  0.00  0.00    +0.054 C 
ATOM     14  C   UNL     1      10.536   6.783  -2.728  0.00  0.00    +0.010 C 
ATOM     15  C   UNL     1      10.793   4.726  -4.154  0.00  0.00    +0.123 C 
ATOM     16  C   UNL     1      11.595   3.778  -0.384  0.00  0.00    +0.049 C 
ATOM     17  C   UNL     1      11.072   6.221  -4.037  0.00  0.00    +0.032 C 
ATOM     18  C   UNL     1      12.580   6.570  -1.271  0.00  0.00    +0.012 C 
ATOM     19  C   UNL     1      10.511   5.648   0.982  0.00  0.00    +0.058 A 
ATOM     21  C   UNL     1      10.853   2.451  -3.107  0.00  0.00    +0.016 C 
ATOM     22  C   UNL     1      11.101   4.405   0.876  0.00  0.00    +0.015 A 
ATOM     25  C   UNL     1      10.458   5.046   3.093  0.00  0.00    +0.165 A 
ATOM     27  C   UNL     1       9.663   5.999   5.240  0.00  0.00    +0.250 C 
ATOM     42  H   UNL     1      10.563   4.135   4.873  0.00  0.00    +0.157 HD
ENDROOT
BRANCH  27  30
ATOM      2  F   UNL     1       9.260   4.798  10.678  0.00  0.00    -0.205 F 
ATOM     30  C   UNL     1       9.554   5.679   6.688  0.00  0.00    +0.037 A 
ATOM     33  C   UNL     1       9.861   4.403   7.111  0.00  0.00    +0.016 A 
ATOM     34  C   UNL     1       9.152   6.669   7.560  0.00  0.00    +0.016 A 
ATOM     36  C   UNL     1       9.761   4.104   8.470  0.00  0.00    +0.039 A 
ATOM     37  C   UNL     1       9.052   6.369   8.919  0.00  0.00    +0.039 A 
ATOM     38  C   UNL     1       9.356   5.086   9.374  0.00  0.00    +0.123 A 
ENDBRANCH  27  30
BRANCH  15   3
ATOM      3  O   UNL     1      11.265   4.268  -5.420  0.00  0.00    -0.391 OA
ATOM     39  H   UNL     1      11.159   4.989  -6.060  0.00  0.00    +0.210 HD
ENDBRANCH  15   3
BRANCH  12  20
ATOM     20  C   UNL     1      12.950   3.753  -3.194  0.00  0.00    +0.165 C 
BRANCH  20   4
ATOM      4  O   UNL     1      13.176   2.647  -4.040  0.00  0.00    -0.394 OA
ATOM     40  H   UNL     1      12.553   2.704  -4.784  0.00  0.00    +0.209 HD
ENDBRANCH  20   4
ENDBRANCH  12  20
BRANCH  13  23
ATOM     23  C   UNL     1      10.372   8.024   0.172  0.00  0.00    +0.106 C 
BRANCH  23  24
ATOM      5  O   UNL     1       8.457   9.160  -0.747  0.00  0.00    -0.275 OA
ATOM      8  N   UNL     1       8.577   8.742   1.562  0.00  0.00    -0.285 N 
ATOM     24  C   UNL     1       9.025   8.712   0.245  0.00  0.00    +0.218 C 
ATOM     41  H   UNL     1       9.174   8.333   2.276  0.00  0.00    +0.155 HD
BRANCH   8  26
ATOM     26  C   UNL     1       7.369   9.296   2.050  0.00  0.00    +0.033 A 
ATOM     28  C   UNL     1       6.327   9.532   1.168  0.00  0.00    +0.023 A 
ATOM     29  C   UNL     1       7.255   9.591   3.399  0.00  0.00    +0.023 A 
ATOM     31  C   UNL     1       5.137  10.078   1.649  0.00  0.00    +0.002 A 
ATOM     32  C   UNL     1       6.064  10.137   3.879  0.00  0.00    +0.002 A 
ATOM     35  C   UNL     1       5.006  10.381   3.004  0.00  0.00    +0.000 A 
ENDBRANCH   8  26
ENDBRANCH  23  24
ENDBRANCH  13  23
TORSDOF 7
ENDMDL
MODEL 2
REMARK VINA RESULT:      -7.2     27.976     32.262
REMARK  Name = 11882867
REMARK  9 active torsions:
REMARK  status: ('A' for Active; 'I' for Inactive)
REMARK    1  A    between atoms: O_3  and  C_15
REMARK    2  A    between atoms: O_4  and  C_20
REMARK    3  A    between atoms: N_8  and  C_26
REMARK    4  A    between atoms: C_10  and  C_18
REMARK    5  A    between atoms: C_12  and  C_20
REMARK    6  A    between atoms: C_12  and  C_21
REMARK    7  A    between atoms: C_13  and  C_23
REMARK    8  A    between atoms: C_23  and  C_24
REMARK    9  A    between atoms: C_27  and  C_30
REMARK                            x       y       z     vdW  Elec       q    Type
REMARK                         _______ _______ _______ _____ _____    ______ ____
ROOT
ATOM      1  S   UNL     1     -15.330  -8.147  16.941  0.00  0.00    -0.057 S 
ATOM      6  O   UNL     1     -11.702  -6.414  14.593  0.00  0.00    -0.270 OA
ATOM      7  N   UNL     1     -12.764  -8.266  16.641  0.00  0.00    -0.229 NA
ATOM      9  N   UNL     1     -13.949  -6.695  15.250  0.00  0.00    -0.261 N 
ATOM     10  C   UNL     1     -12.657 -10.685  19.642  0.00  0.00    -0.019 C 
ATOM     11  C   UNL     1     -14.100 -11.274  19.319  0.00  0.00    +0.011 C 
ATOM     12  C   UNL     1     -14.698 -12.307  20.351  0.00  0.00    +0.021 C 
ATOM     13  C   UNL     1     -12.077 -10.037  18.301  0.00  0.00    +0.054 C 
ATOM     14  C   UNL     1     -11.714 -11.838  20.075  0.00  0.00    +0.010 C 
ATOM     15  C   UNL     1     -13.612 -13.360  20.709  0.00  0.00    +0.123 C 
ATOM     16  C   UNL     1     -15.095 -10.150  18.909  0.00  0.00    +0.049 C 
ATOM     17  C   UNL     1     -12.295 -12.737  21.157  0.00  0.00    +0.032 C 
ATOM     18  C   UNL     1     -12.680  -9.615  20.762  0.00  0.00    +0.012 C 
ATOM     19  C   UNL     1     -13.110  -9.171  17.627  0.00  0.00    +0.058 A 
ATOM     21  C   UNL     1     -15.877 -13.068  19.680  0.00  0.00    +0.016 C 
ATOM     22  C   UNL     1     -14.460  -9.251  17.901  0.00  0.00    +0.015 A 
ATOM     25  C   UNL     1     -13.852  -7.663  16.213  0.00  0.00    +0.165 A 
ATOM     27  C   UNL     1     -12.894  -6.136  14.510  0.00  0.00    +0.250 C 
ATOM     42  H   UNL     1     -14.905  -6.414  15.057  0.00  0.00    +0.157 HD
ENDROOT
BRANCH  27  30
ATOM      2  F   UNL     1     -14.388  -2.316  10.723  0.00  0.00    -0.205 F 
ATOM     30  C   UNL     1     -13.292  -5.118  13.503  0.00  0.00    +0.037 A 
ATOM     33  C   UNL     1     -12.306  -4.413  12.845  0.00  0.00    +0.016 A 
ATOM     34  C   UNL     1     -14.633  -4.913  13.258  0.00  0.00    +0.016 A 
ATOM     36  C   UNL     1     -12.680  -3.459  11.898  0.00  0.00    +0.039 A 
ATOM     37  C   UNL     1     -15.007  -3.959  12.311  0.00  0.00    +0.039 A 
ATOM     38  C   UNL     1     -14.030  -3.232  11.631  0.00  0.00    +0.123 A 
ENDBRANCH  27  30
BRANCH  15   3
ATOM      3  O   UNL     1     -14.080 -14.234  21.737  0.00  0.00    -0.391 OA
ATOM     39  H   UNL     1     -15.006 -14.453  21.548  0.00  0.00    +0.210 HD
ENDBRANCH  15   3
BRANCH  12  20
ATOM     20  C   UNL     1     -15.289 -11.668  21.627  0.00  0.00    +0.165 C 
BRANCH  20   4
ATOM      4  O   UNL     1     -16.393 -12.449  22.028  0.00  0.00    -0.394 OA
ATOM     40  H   UNL     1     -17.202 -11.936  21.860  0.00  0.00    +0.209 HD
ENDBRANCH  20   4
ENDBRANCH  12  20
BRANCH  13  23
ATOM     23  C   UNL     1     -10.746  -9.292  18.475  0.00  0.00    +0.106 C 
BRANCH  23  24
ATOM      5  O   UNL     1      -9.753 -10.989  17.084  0.00  0.00    -0.275 OA
ATOM      8  N   UNL     1      -8.384  -9.454  18.221  0.00  0.00    -0.285 N 
ATOM     24  C   UNL     1      -9.590 -10.029  17.832  0.00  0.00    +0.218 C 
ATOM     41  H   UNL     1      -8.419  -8.663  18.859  0.00  0.00    +0.155 HD
BRANCH   8  26
ATOM     26  C   UNL     1      -7.079  -9.849  17.841  0.00  0.00    +0.033 A 
ATOM     28  C   UNL     1      -6.599  -9.491  16.592  0.00  0.00    +0.023 A 
ATOM     29  C   UNL     1      -6.309 -10.584  18.727  0.00  0.00    +0.023 A 
ATOM     31  C   UNL     1      -5.312  -9.879  16.219  0.00  0.00    +0.002 A 
ATOM     32  C   UNL     1      -5.022 -10.973  18.353  0.00  0.00    +0.002 A 
ATOM     35  C   UNL     1      -4.524 -10.621  17.098  0.00  0.00    +0.000 A 
ENDBRANCH   8  26
ENDBRANCH  23  24
ENDBRANCH  13  23
TORSDOF 7
ENDMDL
MODEL 3
REMARK VINA RESULT:      -7.2      2.939      6.312
REMARK  Name = 11882867
REMARK  9 active torsions:
REMARK  status: ('A' for Active; 'I' for Inactive)
REMARK    1  A    between atoms: O_3  and  C_15
REMARK    2  A    between atoms: O_4  and  C_20
REMARK    3  A    between atoms: N_8  and  C_26
REMARK    4  A    between atoms: C_10  and  C_18
REMARK    5  A    between atoms: C_12  and  C_20
REMARK    6  A    between atoms: C_12  and  C_21
REMARK    7  A    between atoms: C_13  and  C_23
REMARK    8  A    between atoms: C_23  and  C_24
REMARK    9  A    between atoms: C_27  and  C_30
REMARK                            x       y       z     vdW  Elec       q    Type
REMARK                         _______ _______ _______ _____ _____    ______ ____
ROOT
ATOM      1  S   UNL     1       9.796   8.288  -0.001  0.00  0.00    -0.057 S 
ATOM      6  O   UNL     1       7.702   8.283   4.157  0.00  0.00    -0.270 OA
ATOM      7  N   UNL     1       9.841   7.277   2.380  0.00  0.00    -0.229 NA
ATOM      9  N   UNL     1       8.100   8.876   1.910  0.00  0.00    -0.261 N 
ATOM     10  C   UNL     1      12.665   4.936   1.189  0.00  0.00    -0.019 C 
ATOM     11  C   UNL     1      13.219   6.005   0.147  0.00  0.00    +0.011 C 
ATOM     12  C   UNL     1      14.396   5.542  -0.796  0.00  0.00    +0.021 C 
ATOM     13  C   UNL     1      11.824   5.721   2.300  0.00  0.00    +0.054 C 
ATOM     14  C   UNL     1      13.858   4.231   1.887  0.00  0.00    +0.010 C 
ATOM     15  C   UNL     1      15.477   4.817   0.054  0.00  0.00    +0.123 C 
ATOM     16  C   UNL     1      12.058   6.720  -0.604  0.00  0.00    +0.049 C 
ATOM     17  C   UNL     1      14.909   3.700   0.923  0.00  0.00    +0.032 C 
ATOM     18  C   UNL     1      11.768   3.860   0.530  0.00  0.00    +0.012 C 
ATOM     19  C   UNL     1      10.882   6.712   1.667  0.00  0.00    +0.058 A 
ATOM     21  C   UNL     1      15.066   6.797  -1.424  0.00  0.00    +0.016 C 
ATOM     22  C   UNL     1      11.016   7.161   0.369  0.00  0.00    +0.015 A 
ATOM     25  C   UNL     1       9.196   8.116   1.599  0.00  0.00    +0.165 A 
ATOM     27  C   UNL     1       7.429   8.917   3.144  0.00  0.00    +0.250 C 
ATOM     42  H   UNL     1       7.806   9.486   1.155  0.00  0.00    +0.157 HD
ENDROOT
BRANCH  27  30
ATOM      2  F   UNL     1       3.121  12.459   3.401  0.00  0.00    -0.205 F 
ATOM     30  C   UNL     1       6.281   9.859   3.213  0.00  0.00    +0.037 A 
ATOM     33  C   UNL     1       6.168  10.691   4.307  0.00  0.00    +0.016 A 
ATOM     34  C   UNL     1       5.368   9.873   2.179  0.00  0.00    +0.016 A 
ATOM     36  C   UNL     1       5.092  11.576   4.371  0.00  0.00    +0.039 A 
ATOM     37  C   UNL     1       4.292  10.758   2.243  0.00  0.00    +0.039 A 
ATOM     38  C   UNL     1       4.154  11.610   3.339  0.00  0.00    +0.123 A 
ENDBRANCH  27  30
BRANCH  15   3
ATOM      3  O   UNL     1      16.494   4.272  -0.787  0.00  0.00    -0.391 OA
ATOM     39  H   UNL     1      17.227   3.980  -0.222  0.00  0.00    +0.210 HD
ENDBRANCH  15   3
BRANCH  12  20
ATOM     20  C   UNL     1      13.954   4.666  -1.989  0.00  0.00    +0.165 C 
BRANCH  20   4
ATOM      4  O   UNL     1      14.841   4.913  -3.057  0.00  0.00    -0.394 OA
ATOM     40  H   UNL     1      14.540   5.712  -3.521  0.00  0.00    +0.209 HD
ENDBRANCH  20   4
ENDBRANCH  12  20
BRANCH  13  23
ATOM     23  C   UNL     1      11.098   4.818   3.306  0.00  0.00    +0.106 C 
BRANCH  23  24
ATOM      5  O   UNL     1      11.731   6.393   5.015  0.00  0.00    -0.275 OA
ATOM      8  N   UNL     1      10.110   4.754   5.472  0.00  0.00    -0.285 N 
ATOM     24  C   UNL     1      11.038   5.433   4.688  0.00  0.00    +0.218 C 
ATOM     41  H   UNL     1       9.620   3.967   5.053  0.00  0.00    +0.155 HD
BRANCH   8  26
ATOM     26  C   UNL     1       9.761   5.017   6.819  0.00  0.00    +0.033 A 
ATOM     28  C   UNL     1       9.334   6.286   7.172  0.00  0.00    +0.023 A 
ATOM     29  C   UNL     1       9.855   4.000   7.754  0.00  0.00    +0.023 A 
ATOM     31  C   UNL     1       8.990   6.545   8.499  0.00  0.00    +0.002 A 
ATOM     32  C   UNL     1       9.511   4.260   9.081  0.00  0.00    +0.002 A 
ATOM     35  C   UNL     1       9.079   5.533   9.453  0.00  0.00    +0.000 A 
ENDBRANCH   8  26
ENDBRANCH  23  24
ENDBRANCH  13  23
TORSDOF 7
ENDMDL
MODEL 4
REMARK VINA RESULT:      -7.2     42.444     44.878
REMARK  Name = 11882867
REMARK  9 active torsions:
REMARK  status: ('A' for Active; 'I' for Inactive)
REMARK    1  A    between atoms: O_3  and  C_15
REMARK    2  A    between atoms: O_4  and  C_20
REMARK    3  A    between atoms: N_8  and  C_26
REMARK    4  A    between atoms: C_10  and  C_18
REMARK    5  A    between atoms: C_12  and  C_20
REMARK    6  A    between atoms: C_12  and  C_21
REMARK    7  A    between atoms: C_13  and  C_23
REMARK    8  A    between atoms: C_23  and  C_24
REMARK    9  A    between atoms: C_27  and  C_30
REMARK                            x       y       z     vdW  Elec       q    Type
REMARK                         _______ _______ _______ _____ _____    ______ ____
ROOT
ATOM      1  S   UNL     1      -6.119  -7.648  39.302  0.00  0.00    -0.057 S 
ATOM      6  O   UNL     1      -7.275 -12.008  38.150  0.00  0.00    -0.270 OA
ATOM      7  N   UNL     1      -8.085  -9.311  39.053  0.00  0.00    -0.229 NA
ATOM      9  N   UNL     1      -5.884 -10.144  38.534  0.00  0.00    -0.261 N 
ATOM     10  C   UNL     1     -10.388  -6.611  40.562  0.00  0.00    -0.019 C 
ATOM     11  C   UNL     1      -9.519  -5.421  39.959  0.00  0.00    +0.011 C 
ATOM     12  C   UNL     1      -9.935  -3.954  40.366  0.00  0.00    +0.021 C 
ATOM     13  C   UNL     1     -10.090  -7.924  39.701  0.00  0.00    +0.054 C 
ATOM     14  C   UNL     1     -11.894  -6.269  40.427  0.00  0.00    +0.010 C 
ATOM     15  C   UNL     1     -11.474  -3.798  40.216  0.00  0.00    +0.123 C 
ATOM     16  C   UNL     1      -7.994  -5.702  40.100  0.00  0.00    +0.049 C 
ATOM     17  C   UNL     1     -12.261  -4.884  40.941  0.00  0.00    +0.032 C 
ATOM     18  C   UNL     1     -10.074  -6.891  42.052  0.00  0.00    +0.012 C 
ATOM     19  C   UNL     1      -8.610  -8.107  39.487  0.00  0.00    +0.058 A 
ATOM     21  C   UNL     1      -9.270  -2.948  39.383  0.00  0.00    +0.016 C 
ATOM     22  C   UNL     1      -7.690  -7.092  39.653  0.00  0.00    +0.015 A 
ATOM     25  C   UNL     1      -6.781  -9.188  38.929  0.00  0.00    +0.165 A 
ATOM     27  C   UNL     1      -6.173 -11.471  38.174  0.00  0.00    +0.250 C 
ATOM     42  H   UNL     1      -4.932  -9.799  38.469  0.00  0.00    +0.157 HD
ENDROOT
BRANCH  27  30
ATOM      2  F   UNL     1      -1.775 -14.528  36.597  0.00  0.00    -0.205 F 
ATOM     30  C   UNL     1      -5.003 -12.286  37.754  0.00  0.00    +0.037 A 
ATOM     33  C   UNL     1      -4.796 -12.508  36.409  0.00  0.00    +0.016 A 
ATOM     34  C   UNL     1      -4.162 -12.791  38.723  0.00  0.00    +0.016 A 
ATOM     36  C   UNL     1      -3.696 -13.272  36.015  0.00  0.00    +0.039 A 
ATOM     37  C   UNL     1      -3.062 -13.554  38.329  0.00  0.00    +0.039 A 
ATOM     38  C   UNL     1      -2.830 -13.795  36.975  0.00  0.00    +0.123 A 
ENDBRANCH  27  30
BRANCH  15   3
ATOM      3  O   UNL     1     -11.899  -2.524  40.698  0.00  0.00    -0.391 OA
ATOM     39  H   UNL     1     -12.268  -2.027  39.951  0.00  0.00    +0.210 HD
ENDBRANCH  15   3
BRANCH  12  20
ATOM     20  C   UNL     1      -9.472  -3.525  41.776  0.00  0.00    +0.165 C 
BRANCH  20   4
ATOM      4  O   UNL     1      -8.946  -2.220  41.678  0.00  0.00    -0.394 OA
ATOM     40  H   UNL     1      -9.259  -1.710  42.444  0.00  0.00    +0.209 HD
ENDBRANCH  20   4
ENDBRANCH  12  20
BRANCH  13  23
ATOM     23  C   UNL     1     -10.742  -9.204  40.242  0.00  0.00    +0.106 C 
BRANCH  23  24
ATOM      5  O   UNL     1     -12.911  -9.797  39.380  0.00  0.00    -0.275 OA
ATOM      8  N   UNL     1     -10.973 -10.408  38.201  0.00  0.00    -0.285 N 
ATOM     24  C   UNL     1     -11.692  -9.828  39.242  0.00  0.00    +0.218 C 
ATOM     41  H   UNL     1      -9.958 -10.356  38.238  0.00  0.00    +0.155 HD
BRANCH   8  26
ATOM     26  C   UNL     1     -11.488 -11.091  37.073  0.00  0.00    +0.033 A 
ATOM     28  C   UNL     1     -12.567 -10.555  36.391  0.00  0.00    +0.023 A 
ATOM     29  C   UNL     1     -10.901 -12.282  36.676  0.00  0.00    +0.023 A 
ATOM     31  C   UNL     1     -13.075 -11.229  35.279  0.00  0.00    +0.002 A 
ATOM     32  C   UNL     1     -11.409 -12.954  35.564  0.00  0.00    +0.002 A 
ATOM     35  C   UNL     1     -12.496 -12.428  34.866  0.00  0.00    +0.000 A 
ENDBRANCH   8  26
ENDBRANCH  23  24
ENDBRANCH  13  23
TORSDOF 7
ENDMDL
MODEL 5
REMARK VINA RESULT:      -7.1     23.773     26.635
REMARK  Name = 11882867
REMARK  9 active torsions:
REMARK  status: ('A' for Active; 'I' for Inactive)
REMARK    1  A    between atoms: O_3  and  C_15
REMARK    2  A    between atoms: O_4  and  C_20
REMARK    3  A    between atoms: N_8  and  C_26
REMARK    4  A    between atoms: C_10  and  C_18
REMARK    5  A    between atoms: C_12  and  C_20
REMARK    6  A    between atoms: C_12  and  C_21
REMARK    7  A    between atoms: C_13  and  C_23
REMARK    8  A    between atoms: C_23  and  C_24
REMARK    9  A    between atoms: C_27  and  C_30
REMARK                            x       y       z     vdW  Elec       q    Type
REMARK                         _______ _______ _______ _____ _____    ______ ____
ROOT
ATOM      1  S   UNL     1      -5.202  -9.642  10.166  0.00  0.00    -0.057 S 
ATOM      6  O   UNL     1      -9.648  -8.261  10.163  0.00  0.00    -0.270 OA
ATOM      7  N   UNL     1      -7.303  -9.300  11.636  0.00  0.00    -0.229 NA
ATOM      9  N   UNL     1      -7.508  -8.746   9.300  0.00  0.00    -0.261 N 
ATOM     10  C   UNL     1      -5.374 -10.942  14.544  0.00  0.00    -0.019 C 
ATOM     11  C   UNL     1      -3.970 -10.404  14.020  0.00  0.00    +0.011 C 
ATOM     12  C   UNL     1      -2.684 -10.885  14.797  0.00  0.00    +0.021 C 
ATOM     13  C   UNL     1      -6.519 -10.014  13.925  0.00  0.00    +0.054 C 
ATOM     14  C   UNL     1      -5.428 -10.819  16.089  0.00  0.00    +0.010 C 
ATOM     15  C   UNL     1      -2.926 -10.739  16.326  0.00  0.00    +0.123 C 
ATOM     16  C   UNL     1      -3.853 -10.535  12.473  0.00  0.00    +0.049 C 
ATOM     17  C   UNL     1      -4.214 -11.404  16.797  0.00  0.00    +0.032 C 
ATOM     18  C   UNL     1      -5.639 -12.416  14.153  0.00  0.00    +0.012 C 
ATOM     19  C   UNL     1      -6.301  -9.795  12.450  0.00  0.00    +0.058 A 
ATOM     21  C   UNL     1      -1.491  -9.958  14.426  0.00  0.00    +0.016 C 
ATOM     22  C   UNL     1      -5.092 -10.017  11.823  0.00  0.00    +0.015 A 
ATOM     25  C   UNL     1      -6.840  -9.188  10.410  0.00  0.00    +0.165 A 
ATOM     27  C   UNL     1      -8.845  -8.317   9.239  0.00  0.00    +0.250 C 
ATOM     42  H   UNL     1      -6.926  -8.702   8.470  0.00  0.00    +0.157 HD
ENDROOT
BRANCH  27  30
ATOM      2  F   UNL     1     -10.575  -6.593   4.218  0.00  0.00    -0.205 F 
ATOM     30  C   UNL     1      -9.306  -7.859   7.901  0.00  0.00    +0.037 A 
ATOM     33  C   UNL     1     -10.629  -7.509   7.738  0.00  0.00    +0.016 A 
ATOM     34  C   UNL     1      -8.394  -7.797   6.869  0.00  0.00    +0.016 A 
ATOM     36  C   UNL     1     -11.061  -7.078   6.484  0.00  0.00    +0.039 A 
ATOM     37  C   UNL     1      -8.826  -7.365   5.614  0.00  0.00    +0.039 A 
ATOM     38  C   UNL     1     -10.160  -7.006   5.422  0.00  0.00    +0.123 A 
ENDBRANCH  27  30
BRANCH  15   3
ATOM      3  O   UNL     1      -1.831 -11.285  17.062  0.00  0.00    -0.391 OA
ATOM     39  H   UNL     1      -2.189 -11.895  17.727  0.00  0.00    +0.210 HD
ENDBRANCH  15   3
BRANCH  12  20
ATOM     20  C   UNL     1      -2.222 -12.317  14.447  0.00  0.00    +0.165 C 
BRANCH  20   4
ATOM      4  O   UNL     1      -0.812 -12.330  14.462  0.00  0.00    -0.394 OA
ATOM     40  H   UNL     1      -0.515 -13.203  14.152  0.00  0.00    +0.209 HD
ENDBRANCH  20   4
ENDBRANCH  12  20
BRANCH  13  23
ATOM     23  C   UNL     1      -7.950 -10.486  14.217  0.00  0.00    +0.106 C 
BRANCH  23  24
ATOM      5  O   UNL     1      -8.334  -9.250  16.248  0.00  0.00    -0.275 OA
ATOM      8  N   UNL     1      -9.813  -9.019  14.437  0.00  0.00    -0.285 N 
ATOM     24  C   UNL     1      -8.700  -9.518  15.108  0.00  0.00    +0.218 C 
ATOM     41  H   UNL     1      -9.985  -9.350  13.491  0.00  0.00    +0.155 HD
BRANCH   8  26
ATOM     26  C   UNL     1     -10.769  -8.094  14.921  0.00  0.00    +0.033 A 
ATOM     28  C   UNL     1     -12.117  -8.368  14.764  0.00  0.00    +0.023 A 
ATOM     29  C   UNL     1     -10.335  -6.933  15.540  0.00  0.00    +0.023 A 
ATOM     31  C   UNL     1     -13.059  -7.457  15.241  0.00  0.00    +0.002 A 
ATOM     32  C   UNL     1     -11.278  -6.022  16.017  0.00  0.00    +0.002 A 
ATOM     35  C   UNL     1     -12.640  -6.283  15.866  0.00  0.00    +0.000 A 
ENDBRANCH   8  26
ENDBRANCH  23  24
ENDBRANCH  13  23
TORSDOF 7
ENDMDL
MODEL 6
REMARK VINA RESULT:      -7.1     27.770     31.032
REMARK  Name = 11882867
REMARK  9 active torsions:
REMARK  status: ('A' for Active; 'I' for Inactive)
REMARK    1  A    between atoms: O_3  and  C_15
REMARK    2  A    between atoms: O_4  and  C_20
REMARK    3  A    between atoms: N_8  and  C_26
REMARK    4  A    between atoms: C_10  and  C_18
REMARK    5  A    between atoms: C_12  and  C_20
REMARK    6  A    between atoms: C_12  and  C_21
REMARK    7  A    between atoms: C_13  and  C_23
REMARK    8  A    between atoms: C_23  and  C_24
REMARK    9  A    between atoms: C_27  and  C_30
REMARK                            x       y       z     vdW  Elec       q    Type
REMARK                         _______ _______ _______ _____ _____    ______ ____
ROOT
ATOM      1  S   UNL     1     -10.050 -12.468  20.178  0.00  0.00    -0.057 S 
ATOM      6  O   UNL     1     -13.215  -9.189  19.226  0.00  0.00    -0.270 OA
ATOM      7  N   UNL     1     -10.582 -10.424  18.686  0.00  0.00    -0.229 NA
ATOM      9  N   UNL     1     -12.256 -11.057  20.299  0.00  0.00    -0.261 N 
ATOM     10  C   UNL     1      -7.000 -10.686  17.279  0.00  0.00    -0.019 C 
ATOM     11  C   UNL     1      -6.958 -12.266  17.468  0.00  0.00    +0.011 C 
ATOM     12  C   UNL     1      -5.592 -12.988  17.147  0.00  0.00    +0.021 C 
ATOM     13  C   UNL     1      -8.534 -10.237  17.225  0.00  0.00    +0.054 C 
ATOM     14  C   UNL     1      -6.334 -10.309  15.930  0.00  0.00    +0.010 C 
ATOM     15  C   UNL     1      -5.042 -12.463  15.790  0.00  0.00    +0.123 C 
ATOM     16  C   UNL     1      -7.589 -12.694  18.825  0.00  0.00    +0.049 C 
ATOM     17  C   UNL     1      -4.965 -10.942  15.721  0.00  0.00    +0.032 C 
ATOM     18  C   UNL     1      -6.282  -9.922  18.419  0.00  0.00    +0.012 C 
ATOM     19  C   UNL     1      -9.327 -10.884  18.330  0.00  0.00    +0.058 A 
ATOM     21  C   UNL     1      -5.852 -14.513  16.982  0.00  0.00    +0.016 C 
ATOM     22  C   UNL     1      -8.893 -11.996  19.022  0.00  0.00    +0.015 A 
ATOM     25  C   UNL     1     -11.054 -11.177  19.655  0.00  0.00    +0.165 A 
ATOM     27  C   UNL     1     -13.248 -10.092  20.054  0.00  0.00    +0.250 C 
ATOM     42  H   UNL     1     -12.421 -11.787  20.984  0.00  0.00    +0.157 HD
ENDROOT
BRANCH  27  30
ATOM      2  F   UNL     1     -17.858 -10.559  23.170  0.00  0.00    -0.205 F 
ATOM     30  C   UNL     1     -14.475 -10.216  20.885  0.00  0.00    +0.037 A 
ATOM     33  C   UNL     1     -15.384  -9.180  20.885  0.00  0.00    +0.016 A 
ATOM     34  C   UNL     1     -14.664 -11.364  21.626  0.00  0.00    +0.016 A 
ATOM     36  C   UNL     1     -16.537  -9.297  21.664  0.00  0.00    +0.039 A 
ATOM     37  C   UNL     1     -15.816 -11.481  22.404  0.00  0.00    +0.039 A 
ATOM     38  C   UNL     1     -16.752 -10.447  22.423  0.00  0.00    +0.123 A 
ENDBRANCH  27  30
BRANCH  15   3
ATOM      3  O   UNL     1      -3.746 -13.001  15.532  0.00  0.00    -0.391 OA
ATOM     39  H   UNL     1      -3.091 -12.433  15.968  0.00  0.00    +0.210 HD
ENDBRANCH  15   3
BRANCH  12  20
ATOM     20  C   UNL     1      -4.526 -12.866  18.258  0.00  0.00    +0.165 C 
BRANCH  20   4
ATOM      4  O   UNL     1      -4.019 -14.157  18.512  0.00  0.00    -0.394 OA
ATOM     40  H   UNL     1      -3.981 -14.282  19.475  0.00  0.00    +0.209 HD
ENDBRANCH  20   4
ENDBRANCH  12  20
BRANCH  13  23
ATOM     23  C   UNL     1      -8.754  -8.718  17.189  0.00  0.00    +0.106 C 
BRANCH  23  24
ATOM      5  O   UNL     1      -9.471  -8.545  14.897  0.00  0.00    -0.275 OA
ATOM      8  N   UNL     1     -10.796  -7.637  16.612  0.00  0.00    -0.285 N 
ATOM     24  C   UNL     1      -9.696  -8.303  16.079  0.00  0.00    +0.218 C 
ATOM     41  H   UNL     1     -10.829  -7.508  17.621  0.00  0.00    +0.155 HD
BRANCH   8  26
ATOM     26  C   UNL     1     -11.897  -7.090  15.911  0.00  0.00    +0.033 A 
ATOM     28  C   UNL     1     -11.706  -5.973  15.115  0.00  0.00    +0.023 A 
ATOM     29  C   UNL     1     -13.142  -7.684  16.035  0.00  0.00    +0.023 A 
ATOM     31  C   UNL     1     -12.791  -5.435  14.423  0.00  0.00    +0.002 A 
ATOM     32  C   UNL     1     -14.227  -7.145  15.343  0.00  0.00    +0.002 A 
ATOM     35  C   UNL     1     -14.051  -6.020  14.538  0.00  0.00    +0.000 A 
ENDBRANCH   8  26
ENDBRANCH  23  24
ENDBRANCH  13  23
TORSDOF 7
ENDMDL
MODEL 7
REMARK VINA RESULT:      -7.0     23.841     27.858
REMARK  Name = 11882867
REMARK  9 active torsions:
REMARK  status: ('A' for Active; 'I' for Inactive)
REMARK    1  A    between atoms: O_3  and  C_15
REMARK    2  A    between atoms: O_4  and  C_20
REMARK    3  A    between atoms: N_8  and  C_26
REMARK    4  A    between atoms: C_10  and  C_18
REMARK    5  A    between atoms: C_12  and  C_20
REMARK    6  A    between atoms: C_12  and  C_21
REMARK    7  A    between atoms: C_13  and  C_23
REMARK    8  A    between atoms: C_23  and  C_24
REMARK    9  A    between atoms: C_27  and  C_30
REMARK                            x       y       z     vdW  Elec       q    Type
REMARK                         _______ _______ _______ _____ _____    ______ ____
ROOT
ATOM      1  S   UNL     1      -7.933 -10.077  12.856  0.00  0.00    -0.057 S 
ATOM      6  O   UNL     1      -4.408 -10.599   9.861  0.00  0.00    -0.270 OA
ATOM      7  N   UNL     1      -5.432 -10.695  12.634  0.00  0.00    -0.229 NA
ATOM      9  N   UNL     1      -6.596 -10.127  10.602  0.00  0.00    -0.261 N 
ATOM     10  C   UNL     1      -5.257 -10.825  16.484  0.00  0.00    -0.019 C 
ATOM     11  C   UNL     1      -6.774 -11.291  16.615  0.00  0.00    +0.011 C 
ATOM     12  C   UNL     1      -7.362 -11.409  18.075  0.00  0.00    +0.021 C 
ATOM     13  C   UNL     1      -4.754 -11.193  15.012  0.00  0.00    +0.054 C 
ATOM     14  C   UNL     1      -4.388 -11.604  17.506  0.00  0.00    +0.010 C 
ATOM     15  C   UNL     1      -6.349 -12.172  18.975  0.00  0.00    +0.123 C 
ATOM     16  C   UNL     1      -7.695 -10.514  15.630  0.00  0.00    +0.049 C 
ATOM     17  C   UNL     1      -4.942 -11.589  18.924  0.00  0.00    +0.032 C 
ATOM     18  C   UNL     1      -5.069  -9.307  16.727  0.00  0.00    +0.012 C 
ATOM     19  C   UNL     1      -5.762 -10.773  13.974  0.00  0.00    +0.058 A 
ATOM     21  C   UNL     1      -8.667 -12.253  18.028  0.00  0.00    +0.016 C 
ATOM     22  C   UNL     1      -7.080 -10.491  14.270  0.00  0.00    +0.015 A 
ATOM     25  C   UNL     1      -6.495 -10.329  11.952  0.00  0.00    +0.165 A 
ATOM     27  C   UNL     1      -5.570 -10.270   9.652  0.00  0.00    +0.250 C 
ATOM     42  H   UNL     1      -7.535  -9.892  10.299  0.00  0.00    +0.157 HD
ENDROOT
BRANCH  27  30
ATOM      2  F   UNL     1      -7.069  -9.315   4.359  0.00  0.00    -0.205 F 
ATOM     30  C   UNL     1      -5.969 -10.014   8.243  0.00  0.00    +0.037 A 
ATOM     33  C   UNL     1      -5.311 -10.687   7.234  0.00  0.00    +0.016 A 
ATOM     34  C   UNL     1      -6.984  -9.116   7.990  0.00  0.00    +0.016 A 
ATOM     36  C   UNL     1      -5.686 -10.449   5.911  0.00  0.00    +0.039 A 
ATOM     37  C   UNL     1      -7.359  -8.878   6.667  0.00  0.00    +0.039 A 
ATOM     38  C   UNL     1      -6.709  -9.544   5.628  0.00  0.00    +0.123 A 
ENDBRANCH  27  30
BRANCH  15   3
ATOM      3  O   UNL     1      -6.793 -12.184  20.331  0.00  0.00    -0.391 OA
ATOM     39  H   UNL     1      -6.016 -12.082  20.903  0.00  0.00    +0.210 HD
ENDBRANCH  15   3
BRANCH  12  20
ATOM     20  C   UNL     1      -7.762 -10.061  18.716  0.00  0.00    +0.165 C 
BRANCH  20   4
ATOM      4  O   UNL     1      -8.694 -10.330  19.738  0.00  0.00    -0.394 OA
ATOM     40  H   UNL     1      -8.856  -9.504  20.224  0.00  0.00    +0.209 HD
ENDBRANCH  20   4
ENDBRANCH  12  20
BRANCH  13  23
ATOM     23  C   UNL     1      -3.349 -10.680  14.671  0.00  0.00    +0.106 C 
BRANCH  23  24
ATOM      5  O   UNL     1      -1.183 -11.590  15.203  0.00  0.00    -0.275 OA
ATOM      8  N   UNL     1      -2.823 -12.959  14.226  0.00  0.00    -0.285 N 
ATOM     24  C   UNL     1      -2.306 -11.775  14.743  0.00  0.00    +0.218 C 
ATOM     41  H   UNL     1      -3.777 -12.946  13.872  0.00  0.00    +0.155 HD
BRANCH   8  26
ATOM     26  C   UNL     1      -2.170 -14.210  14.113  0.00  0.00    +0.033 A 
ATOM     28  C   UNL     1      -2.689 -15.307  14.778  0.00  0.00    +0.023 A 
ATOM     29  C   UNL     1      -1.025 -14.308  13.339  0.00  0.00    +0.023 A 
ATOM     31  C   UNL     1      -2.044 -16.540  14.667  0.00  0.00    +0.002 A 
ATOM     32  C   UNL     1      -0.381 -15.541  13.229  0.00  0.00    +0.002 A 
ATOM     35  C   UNL     1      -0.890 -16.657  13.893  0.00  0.00    +0.000 A 
ENDBRANCH   8  26
ENDBRANCH  23  24
ENDBRANCH  13  23
TORSDOF 7
ENDMDL
MODEL 8
REMARK VINA RESULT:      -6.9     22.774     24.426
REMARK  Name = 11882867
REMARK  9 active torsions:
REMARK  status: ('A' for Active; 'I' for Inactive)
REMARK    1  A    between atoms: O_3  and  C_15
REMARK    2  A    between atoms: O_4  and  C_20
REMARK    3  A    between atoms: N_8  and  C_26
REMARK    4  A    between atoms: C_10  and  C_18
REMARK    5  A    between atoms: C_12  and  C_20
REMARK    6  A    between atoms: C_12  and  C_21
REMARK    7  A    between atoms: C_13  and  C_23
REMARK    8  A    between atoms: C_23  and  C_24
REMARK    9  A    between atoms: C_27  and  C_30
REMARK                            x       y       z     vdW  Elec       q    Type
REMARK                         _______ _______ _______ _____ _____    ______ ____
ROOT
ATOM      1  S   UNL     1      -7.841  -7.718   6.319  0.00  0.00    -0.057 S 
ATOM      6  O   UNL     1      -5.041 -11.409   6.777  0.00  0.00    -0.270 OA
ATOM      7  N   UNL     1      -7.046  -9.911   5.201  0.00  0.00    -0.229 NA
ATOM      9  N   UNL     1      -6.081  -9.370   7.342  0.00  0.00    -0.261 N 
ATOM     10  C   UNL     1      -9.700  -9.323   2.464  0.00  0.00    -0.019 C 
ATOM     11  C   UNL     1      -9.597  -7.740   2.595  0.00  0.00    +0.011 C 
ATOM     12  C   UNL     1     -10.609  -6.885   1.738  0.00  0.00    +0.021 C 
ATOM     13  C   UNL     1      -8.348  -9.954   3.041  0.00  0.00    +0.054 C 
ATOM     14  C   UNL     1      -9.819  -9.711   0.967  0.00  0.00    +0.010 C 
ATOM     15  C   UNL     1     -10.641  -7.434   0.284  0.00  0.00    +0.123 C 
ATOM     16  C   UNL     1      -9.505  -7.297   4.084  0.00  0.00    +0.049 C 
ATOM     17  C   UNL     1     -10.892  -8.936   0.214  0.00  0.00    +0.032 C 
ATOM     18  C   UNL     1     -10.909  -9.914   3.229  0.00  0.00    +0.012 C 
ATOM     19  C   UNL     1      -7.980  -9.330   4.362  0.00  0.00    +0.058 A 
ATOM     21  C   UNL     1     -10.099  -5.417   1.668  0.00  0.00    +0.016 C 
ATOM     22  C   UNL     1      -8.496  -8.129   4.802  0.00  0.00    +0.015 A 
ATOM     25  C   UNL     1      -6.900  -9.153   6.266  0.00  0.00    +0.165 A 
ATOM     27  C   UNL     1      -5.217 -10.461   7.534  0.00  0.00    +0.250 C 
ATOM     42  H   UNL     1      -6.105  -8.618   8.023  0.00  0.00    +0.157 HD
ENDROOT
BRANCH  27  30
ATOM      2  F   UNL     1      -2.210 -10.332  12.236  0.00  0.00    -0.205 F 
ATOM     30  C   UNL     1      -4.417 -10.426   8.786  0.00  0.00    +0.037 A 
ATOM     33  C   UNL     1      -4.181 -11.607   9.457  0.00  0.00    +0.016 A 
ATOM     34  C   UNL     1      -3.936  -9.214   9.236  0.00  0.00    +0.016 A 
ATOM     36  C   UNL     1      -3.429 -11.575  10.632  0.00  0.00    +0.039 A 
ATOM     37  C   UNL     1      -3.184  -9.182  10.410  0.00  0.00    +0.039 A 
ATOM     38  C   UNL     1      -2.931 -10.363  11.108  0.00  0.00    +0.123 A 
ENDBRANCH  27  30
BRANCH  15   3
ATOM      3  O   UNL     1     -11.641  -6.765  -0.484  0.00  0.00    -0.391 OA
ATOM     39  H   UNL     1     -12.509  -7.028  -0.142  0.00  0.00    +0.210 HD
ENDBRANCH  15   3
BRANCH  12  20
ATOM     20  C   UNL     1     -12.035  -6.801   2.327  0.00  0.00    +0.165 C 
BRANCH  20   4
ATOM      4  O   UNL     1     -12.537  -5.511   2.057  0.00  0.00    -0.394 OA
ATOM     40  H   UNL     1     -12.923  -5.518   1.165  0.00  0.00    +0.209 HD
ENDBRANCH  20   4
ENDBRANCH  12  20
BRANCH  13  23
ATOM     23  C   UNL     1      -8.343 -11.487   3.121  0.00  0.00    +0.106 C 
BRANCH  23  24
ATOM      5  O   UNL     1      -6.740 -12.145   1.448  0.00  0.00    -0.275 OA
ATOM      8  N   UNL     1      -6.279 -12.512   3.723  0.00  0.00    -0.285 N 
ATOM     24  C   UNL     1      -7.036 -12.080   2.638  0.00  0.00    +0.218 C 
ATOM     41  H   UNL     1      -6.673 -12.394   4.653  0.00  0.00    +0.155 HD
BRANCH   8  26
ATOM     26  C   UNL     1      -5.002 -13.122   3.695  0.00  0.00    +0.033 A 
ATOM     28  C   UNL     1      -3.875 -12.329   3.565  0.00  0.00    +0.023 A 
ATOM     29  C   UNL     1      -4.908 -14.500   3.799  0.00  0.00    +0.023 A 
ATOM     31  C   UNL     1      -2.617 -12.930   3.538  0.00  0.00    +0.002 A 
ATOM     32  C   UNL     1      -3.649 -15.101   3.772  0.00  0.00    +0.002 A 
ATOM     35  C   UNL     1      -2.504 -14.316   3.641  0.00  0.00    +0.000 A 
ENDBRANCH   8  26
ENDBRANCH  23  24
ENDBRANCH  13  23
TORSDOF 7
ENDMDL
MODEL 9
REMARK VINA RESULT:      -6.9     27.792     31.537
REMARK  Name = 11882867
REMARK  9 active torsions:
REMARK  status: ('A' for Active; 'I' for Inactive)
REMARK    1  A    between atoms: O_3  and  C_15
REMARK    2  A    between atoms: O_4  and  C_20
REMARK    3  A    between atoms: N_8  and  C_26
REMARK    4  A    between atoms: C_10  and  C_18
REMARK    5  A    between atoms: C_12  and  C_20
REMARK    6  A    between atoms: C_12  and  C_21
REMARK    7  A    between atoms: C_13  and  C_23
REMARK    8  A    between atoms: C_23  and  C_24
REMARK    9  A    between atoms: C_27  and  C_30
REMARK                            x       y       z     vdW  Elec       q    Type
REMARK                         _______ _______ _______ _____ _____    ______ ____
ROOT
ATOM      1  S   UNL     1     -11.455 -10.822  19.832  0.00  0.00    -0.057 S 
ATOM      6  O   UNL     1      -8.188  -9.197  16.940  0.00  0.00    -0.270 OA
ATOM      7  N   UNL     1     -11.017  -9.283  17.799  0.00  0.00    -0.229 NA
ATOM      9  N   UNL     1      -9.111 -10.434  18.722  0.00  0.00    -0.261 N 
ATOM     10  C   UNL     1     -14.830  -8.774  17.530  0.00  0.00    -0.019 C 
ATOM     11  C   UNL     1     -15.042  -8.938  19.099  0.00  0.00    +0.011 C 
ATOM     12  C   UNL     1     -16.530  -8.941  19.624  0.00  0.00    +0.021 C 
ATOM     13  C   UNL     1     -13.306  -8.361  17.279  0.00  0.00    +0.054 C 
ATOM     14  C   UNL     1     -15.738  -7.632  17.004  0.00  0.00    +0.010 C 
ATOM     15  C   UNL     1     -17.307  -7.767  18.965  0.00  0.00    +0.123 C 
ATOM     16  C   UNL     1     -14.173 -10.096  19.672  0.00  0.00    +0.049 C 
ATOM     17  C   UNL     1     -17.191  -7.747  17.445  0.00  0.00    +0.032 C 
ATOM     18  C   UNL     1     -15.149 -10.067  16.740  0.00  0.00    +0.012 C 
ATOM     19  C   UNL     1     -12.370  -9.231  18.077  0.00  0.00    +0.058 A 
ATOM     21  C   UNL     1     -16.526  -8.691  21.159  0.00  0.00    +0.016 C 
ATOM     22  C   UNL     1     -12.776  -9.986  19.158  0.00  0.00    +0.015 A 
ATOM     25  C   UNL     1     -10.437 -10.097  18.654  0.00  0.00    +0.165 A 
ATOM     27  C   UNL     1      -8.083  -9.977  17.881  0.00  0.00    +0.250 C 
ATOM     42  H   UNL     1      -8.891 -11.046  19.501  0.00  0.00    +0.157 HD
ENDROOT
BRANCH  27  30
ATOM      2  F   UNL     1      -2.980 -11.893  19.087  0.00  0.00    -0.205 F 
ATOM     30  C   UNL     1      -6.724 -10.486  18.202  0.00  0.00    +0.037 A 
ATOM     33  C   UNL     1      -6.506 -11.065  19.434  0.00  0.00    +0.016 A 
ATOM     34  C   UNL     1      -5.727 -10.364  17.257  0.00  0.00    +0.016 A 
ATOM     36  C   UNL     1      -5.230 -11.544  19.735  0.00  0.00    +0.039 A 
ATOM     37  C   UNL     1      -4.452 -10.843  17.558  0.00  0.00    +0.039 A 
ATOM     38  C   UNL     1      -4.204 -11.433  18.797  0.00  0.00    +0.123 A 
ENDBRANCH  27  30
BRANCH  15   3
ATOM      3  O   UNL     1     -18.689  -7.818  19.319  0.00  0.00    -0.391 OA
ATOM     39  H   UNL     1     -18.751  -8.058  20.257  0.00  0.00    +0.210 HD
ENDBRANCH  15   3
BRANCH  12  20
ATOM     20  C   UNL     1     -17.277 -10.278  19.423  0.00  0.00    +0.165 C 
BRANCH  20   4
ATOM      4  O   UNL     1     -18.134 -10.463  20.527  0.00  0.00    -0.394 OA
ATOM     40  H   UNL     1     -18.345  -9.588  20.895  0.00  0.00    +0.209 HD
ENDBRANCH  20   4
ENDBRANCH  12  20
BRANCH  13  23
ATOM     23  C   UNL     1     -12.896  -8.302  15.801  0.00  0.00    +0.106 C 
BRANCH  23  24
ATOM      5  O   UNL     1     -12.043  -6.053  15.930  0.00  0.00    -0.275 OA
ATOM      8  N   UNL     1     -13.393  -6.693  14.117  0.00  0.00    -0.285 N 
ATOM     24  C   UNL     1     -12.710  -6.880  15.315  0.00  0.00    +0.218 C 
ATOM     41  H   UNL     1     -13.912  -7.482  13.738  0.00  0.00    +0.155 HD
BRANCH   8  26
ATOM     26  C   UNL     1     -13.471  -5.510  13.343  0.00  0.00    +0.033 A 
ATOM     28  C   UNL     1     -14.654  -4.792  13.322  0.00  0.00    +0.023 A 
ATOM     29  C   UNL     1     -12.361  -5.097  12.624  0.00  0.00    +0.023 A 
ATOM     31  C   UNL     1     -14.731  -3.626  12.560  0.00  0.00    +0.002 A 
ATOM     32  C   UNL     1     -12.439  -3.931  11.862  0.00  0.00    +0.002 A 
ATOM     35  C   UNL     1     -13.624  -3.196  11.829  0.00  0.00    +0.000 A 
ENDBRANCH   8  26
ENDBRANCH  23  24
ENDBRANCH  13  23
TORSDOF 7
ENDMDL
MODEL 10
REMARK VINA RESULT:      -6.9     32.594     37.207
REMARK  Name = 11882867
REMARK  9 active torsions:
REMARK  status: ('A' for Active; 'I' for Inactive)
REMARK    1  A    between atoms: O_3  and  C_15
REMARK    2  A    between atoms: O_4  and  C_20
REMARK    3  A    between atoms: N_8  and  C_26
REMARK    4  A    between atoms: C_10  and  C_18
REMARK    5  A    between atoms: C_12  and  C_20
REMARK    6  A    between atoms: C_12  and  C_21
REMARK    7  A    between atoms: C_13  and  C_23
REMARK    8  A    between atoms: C_23  and  C_24
REMARK    9  A    between atoms: C_27  and  C_30
REMARK                            x       y       z     vdW  Elec       q    Type
REMARK                         _______ _______ _______ _____ _____    ______ ____
ROOT
ATOM      1  S   UNL     1       9.826  -4.238  36.383  0.00  0.00    -0.057 S 
ATOM      6  O   UNL     1      10.079  -7.410  32.984  0.00  0.00    -0.270 OA
ATOM      7  N   UNL     1       8.718  -6.354  35.388  0.00  0.00    -0.229 NA
ATOM      9  N   UNL     1      10.680  -5.522  34.263  0.00  0.00    -0.261 N 
ATOM     10  C   UNL     1       6.341  -6.376  38.425  0.00  0.00    -0.019 C 
ATOM     11  C   UNL     1       6.379  -4.791  38.566  0.00  0.00    +0.011 C 
ATOM     12  C   UNL     1       5.627  -4.165  39.803  0.00  0.00    +0.021 C 
ATOM     13  C   UNL     1       6.759  -6.748  36.927  0.00  0.00    +0.054 C 
ATOM     14  C   UNL     1       4.895  -6.881  38.668  0.00  0.00    +0.010 C 
ATOM     15  C   UNL     1       4.219  -4.812  39.928  0.00  0.00    +0.123 C 
ATOM     16  C   UNL     1       7.819  -4.236  38.361  0.00  0.00    +0.049 C 
ATOM     17  C   UNL     1       4.257  -6.336  39.938  0.00  0.00    +0.032 C 
ATOM     18  C   UNL     1       7.291  -7.093  39.416  0.00  0.00    +0.012 C 
ATOM     19  C   UNL     1       7.986  -5.985  36.502  0.00  0.00    +0.058 A 
ATOM     21  C   UNL     1       5.417  -2.644  39.552  0.00  0.00    +0.016 C 
ATOM     22  C   UNL     1       8.433  -4.850  37.148  0.00  0.00    +0.015 A 
ATOM     25  C   UNL     1       9.716  -5.511  35.235  0.00  0.00    +0.165 A 
ATOM     27  C   UNL     1      10.806  -6.450  33.215  0.00  0.00    +0.250 C 
ATOM     42  H   UNL     1      11.321  -4.738  34.322  0.00  0.00    +0.157 HD
ENDROOT
BRANCH  27  30
ATOM      2  F   UNL     1      15.052  -5.531  29.708  0.00  0.00    -0.205 F 
ATOM     30  C   UNL     1      11.936  -6.205  32.280  0.00  0.00    +0.037 A 
ATOM     33  C   UNL     1      12.838  -5.205  32.577  0.00  0.00    +0.016 A 
ATOM     34  C   UNL     1      12.045  -6.986  31.149  0.00  0.00    +0.016 A 
ATOM     36  C   UNL     1      13.900  -4.976  31.700  0.00  0.00    +0.039 A 
ATOM     37  C   UNL     1      13.107  -6.757  30.273  0.00  0.00    +0.039 A 
ATOM     38  C   UNL     1      14.034  -5.751  30.549  0.00  0.00    +0.123 A 
ENDBRANCH  27  30
BRANCH  15   3
ATOM      3  O   UNL     1       3.562  -4.361  41.112  0.00  0.00    -0.391 OA
ATOM     39  H   UNL     1       4.188  -4.434  41.850  0.00  0.00    +0.210 HD
ENDBRANCH  15   3
BRANCH  12  20
ATOM     20  C   UNL     1       6.399  -4.262  41.139  0.00  0.00    +0.165 C 
BRANCH  20   4
ATOM      4  O   UNL     1       6.113  -3.102  41.887  0.00  0.00    -0.394 OA
ATOM     40  H   UNL     1       6.953  -2.743  42.220  0.00  0.00    +0.209 HD
ENDBRANCH  20   4
ENDBRANCH  12  20
BRANCH  13  23
ATOM     23  C   UNL     1       6.913  -8.252  36.662  0.00  0.00    +0.106 C 
BRANCH  23  24
ATOM      5  O   UNL     1       5.076  -8.885  35.239  0.00  0.00    -0.275 OA
ATOM      8  N   UNL     1       7.252  -8.758  34.360  0.00  0.00    -0.285 N 
ATOM     24  C   UNL     1       6.279  -8.670  35.352  0.00  0.00    +0.218 C 
ATOM     41  H   UNL     1       8.214  -8.554  34.619  0.00  0.00    +0.155 HD
BRANCH   8  26
ATOM     26  C   UNL     1       7.070  -9.117  33.003  0.00  0.00    +0.033 A 
ATOM     28  C   UNL     1       7.170 -10.449  32.636  0.00  0.00    +0.023 A 
ATOM     29  C   UNL     1       6.796  -8.129  32.071  0.00  0.00    +0.023 A 
ATOM     31  C   UNL     1       6.991 -10.803  31.298  0.00  0.00    +0.002 A 
ATOM     32  C   UNL     1       6.617  -8.484  30.734  0.00  0.00    +0.002 A 
ATOM     35  C   UNL     1       6.715  -9.821  30.348  0.00  0.00    +0.000 A 
ENDBRANCH   8  26
ENDBRANCH  23  24
ENDBRANCH  13  23
TORSDOF 7
ENDMDL
