MODEL 1
REMARK VINA RESULT:      -6.6      0.000      0.000
REMARK  Name = 11912841
REMARK  7 active torsions:
REMARK  status: ('A' for Active; 'I' for Inactive)
REMARK    1  A    between atoms: O_4  and  C_13
REMARK    2  A    between atoms: O_4  and  C_17
REMARK    3  A    between atoms: O_5  and  C_18
REMARK    4  A    between atoms: O_5  and  C_25
REMARK    5  A    between atoms: N_7  and  C_12
REMARK    6  A    between atoms: C_17  and  C_18
REMARK    7  A    between atoms: C_19  and  C_22
REMARK                            x       y       z     vdW  Elec       q    Type
REMARK                         _______ _______ _______ _____ _____    ______ ____
ROOT
ATOM      7  N   UNL     1      -3.211 -10.666  12.346  0.00  0.00    -0.306 N 
ATOM      8  N   UNL     1      -3.998 -10.546  14.553  0.00  0.00    -0.214 NA
ATOM      9  N   UNL     1      -1.646 -10.792  14.091  0.00  0.00    -0.223 NA
ATOM     16  C   UNL     1      -2.944 -10.669  13.704  0.00  0.00    +0.216 A 
ATOM     19  C   UNL     1      -3.702 -10.551  15.869  0.00  0.00    +0.076 A 
ATOM     20  C   UNL     1      -1.422 -10.789  15.421  0.00  0.00    +0.116 A 
ATOM     21  C   UNL     1      -2.421 -10.672  16.366  0.00  0.00    +0.048 A 
ATOM     29  H   UNL     1      -2.424 -10.810  11.724  0.00  0.00    +0.149 HD
ENDROOT
BRANCH   7  12
ATOM      2  O   UNL     1      -4.328  -9.184   9.853  0.00  0.00    -0.369 OA
ATOM      3  O   UNL     1      -6.077 -11.665  10.293  0.00  0.00    -0.369 OA
ATOM     10  C   UNL     1      -4.682 -11.417  10.567  0.00  0.00    +0.172 C 
ATOM     11  C   UNL     1      -4.162 -10.550   9.438  0.00  0.00    +0.180 C 
ATOM     12  C   UNL     1      -4.542 -10.545  11.792  0.00  0.00    +0.130 C 
ATOM     13  C   UNL     1      -5.086 -10.905   8.298  0.00  0.00    +0.176 C 
ATOM     14  C   UNL     1      -4.751  -9.152  11.224  0.00  0.00    +0.185 C 
ATOM     15  C   UNL     1      -6.404 -11.111   9.011  0.00  0.00    +0.194 C 
BRANCH  13   4
ATOM      4  O   UNL     1      -5.170  -9.905   7.308  0.00  0.00    -0.360 OA
BRANCH   4  17
ATOM     17  C   UNL     1      -6.520  -9.545   7.026  0.00  0.00    +0.280 C 
BRANCH  17  18
ATOM      6  O   UNL     1      -6.605 -10.470   4.788  0.00  0.00    -0.248 OA
ATOM     18  C   UNL     1      -6.711  -9.506   5.533  0.00  0.00    +0.333 C 
BRANCH  18   5
ATOM      5  O   UNL     1      -7.022  -8.231   5.159  0.00  0.00    -0.466 OA
ATOM     25  C   UNL     1      -8.188  -7.675   5.776  0.00  0.00    +0.280 C 
ENDBRANCH  18   5
ENDBRANCH  17  18
ENDBRANCH   4  17
ENDBRANCH  13   4
ENDBRANCH   7  12
BRANCH  19  22
ATOM      1  F   UNL     1      -5.799 -11.280  20.159  0.00  0.00    -0.205 F 
ATOM     22  C   UNL     1      -4.836 -10.422  16.753  0.00  0.00    +0.003 A 
ATOM     23  C   UNL     1      -4.770 -10.923  18.056  0.00  0.00    +0.048 A 
ATOM     24  C   UNL     1      -6.003  -9.796  16.311  0.00  0.00    +0.010 A 
ATOM     26  C   UNL     1      -5.866 -10.798  18.910  0.00  0.00    +0.124 A 
ATOM     27  C   UNL     1      -7.098  -9.671  17.165  0.00  0.00    +0.003 A 
ATOM     28  C   UNL     1      -7.030 -10.172  18.465  0.00  0.00    +0.038 A 
ENDBRANCH  19  22
TORSDOF 6
ENDMDL
MODEL 2
REMARK VINA RESULT:      -6.6     23.652     26.076
REMARK  Name = 11912841
REMARK  7 active torsions:
REMARK  status: ('A' for Active; 'I' for Inactive)
REMARK    1  A    between atoms: O_4  and  C_13
REMARK    2  A    between atoms: O_4  and  C_17
REMARK    3  A    between atoms: O_5  and  C_18
REMARK    4  A    between atoms: O_5  and  C_25
REMARK    5  A    between atoms: N_7  and  C_12
REMARK    6  A    between atoms: C_17  and  C_18
REMARK    7  A    between atoms: C_19  and  C_22
REMARK                            x       y       z     vdW  Elec       q    Type
REMARK                         _______ _______ _______ _____ _____    ______ ____
ROOT
ATOM      7  N   UNL     1      12.762   5.346   2.654  0.00  0.00    -0.306 N 
ATOM      8  N   UNL     1      12.847   4.517   0.460  0.00  0.00    -0.214 NA
ATOM      9  N   UNL     1      14.859   4.786   1.759  0.00  0.00    -0.223 NA
ATOM     16  C   UNL     1      13.512   4.869   1.592  0.00  0.00    +0.216 A 
ATOM     19  C   UNL     1      13.608   4.056  -0.554  0.00  0.00    +0.076 A 
ATOM     20  C   UNL     1      15.558   4.316   0.705  0.00  0.00    +0.116 A 
ATOM     21  C   UNL     1      14.981   3.933  -0.488  0.00  0.00    +0.048 A 
ATOM     29  H   UNL     1      13.272   5.654   3.473  0.00  0.00    +0.149 HD
ENDROOT
BRANCH   7  12
ATOM      2  O   UNL     1      10.545   4.904   4.786  0.00  0.00    -0.369 OA
ATOM      3  O   UNL     1       9.578   7.140   2.921  0.00  0.00    -0.369 OA
ATOM     10  C   UNL     1      10.902   6.748   3.339  0.00  0.00    +0.172 C 
ATOM     11  C   UNL     1      10.796   6.319   4.789  0.00  0.00    +0.180 C 
ATOM     12  C   UNL     1      11.323   5.490   2.616  0.00  0.00    +0.130 C 
ATOM     13  C   UNL     1       9.597   7.099   5.274  0.00  0.00    +0.176 C 
ATOM     14  C   UNL     1      10.663   4.403   3.446  0.00  0.00    +0.185 C 
ATOM     15  C   UNL     1       8.701   7.096   4.056  0.00  0.00    +0.194 C 
BRANCH  13   4
ATOM      4  O   UNL     1       8.968   6.524   6.397  0.00  0.00    -0.360 OA
BRANCH   4  17
ATOM     17  C   UNL     1       9.510   7.014   7.621  0.00  0.00    +0.280 C 
BRANCH  17  18
ATOM      6  O   UNL     1      11.243   5.543   8.460  0.00  0.00    -0.248 OA
ATOM     18  C   UNL     1      10.061   5.854   8.407  0.00  0.00    +0.333 C 
BRANCH  18   5
ATOM      5  O   UNL     1       9.033   5.221   9.043  0.00  0.00    -0.466 OA
ATOM     25  C   UNL     1       9.372   4.586  10.280  0.00  0.00    +0.280 C 
ENDBRANCH  18   5
ENDBRANCH  17  18
ENDBRANCH   4  17
ENDBRANCH  13   4
ENDBRANCH   7  12
BRANCH  19  22
ATOM      1  F   UNL     1      10.168   1.489  -2.768  0.00  0.00    -0.205 F 
ATOM     22  C   UNL     1      12.884   3.689  -1.747  0.00  0.00    +0.003 A 
ATOM     23  C   UNL     1      11.854   2.747  -1.681  0.00  0.00    +0.048 A 
ATOM     24  C   UNL     1      13.208   4.275  -2.973  0.00  0.00    +0.010 A 
ATOM     26  C   UNL     1      11.154   2.392  -2.835  0.00  0.00    +0.124 A 
ATOM     27  C   UNL     1      12.508   3.920  -4.126  0.00  0.00    +0.003 A 
ATOM     28  C   UNL     1      11.482   2.979  -4.057  0.00  0.00    +0.038 A 
ENDBRANCH  19  22
TORSDOF 6
ENDMDL
MODEL 3
REMARK VINA RESULT:      -6.6      1.558      1.995
REMARK  Name = 11912841
REMARK  7 active torsions:
REMARK  status: ('A' for Active; 'I' for Inactive)
REMARK    1  A    between atoms: O_4  and  C_13
REMARK    2  A    between atoms: O_4  and  C_17
REMARK    3  A    between atoms: O_5  and  C_18
REMARK    4  A    between atoms: O_5  and  C_25
REMARK    5  A    between atoms: N_7  and  C_12
REMARK    6  A    between atoms: C_17  and  C_18
REMARK    7  A    between atoms: C_19  and  C_22
REMARK                            x       y       z     vdW  Elec       q    Type
REMARK                         _______ _______ _______ _____ _____    ______ ____
ROOT
ATOM      7  N   UNL     1      -3.776 -10.490  12.409  0.00  0.00    -0.306 N 
ATOM      8  N   UNL     1      -4.227 -10.564  14.710  0.00  0.00    -0.214 NA
ATOM      9  N   UNL     1      -1.962 -10.645  13.891  0.00  0.00    -0.223 NA
ATOM     16  C   UNL     1      -3.307 -10.569  13.709  0.00  0.00    +0.216 A 
ATOM     19  C   UNL     1      -3.736 -10.642  15.965  0.00  0.00    +0.076 A 
ATOM     20  C   UNL     1      -1.541 -10.720  15.171  0.00  0.00    +0.116 A 
ATOM     21  C   UNL     1      -2.390 -10.723  16.258  0.00  0.00    +0.048 A 
ATOM     29  H   UNL     1      -3.085 -10.547  11.669  0.00  0.00    +0.149 HD
ENDROOT
BRANCH   7  12
ATOM      2  O   UNL     1      -5.370  -8.628  10.498  0.00  0.00    -0.369 OA
ATOM      3  O   UNL     1      -6.813 -11.336  10.542  0.00  0.00    -0.369 OA
ATOM     10  C   UNL     1      -5.420 -10.991  10.695  0.00  0.00    +0.172 C 
ATOM     11  C   UNL     1      -5.149  -9.836   9.752  0.00  0.00    +0.180 C 
ATOM     12  C   UNL     1      -5.179 -10.407  12.067  0.00  0.00    +0.130 C 
ATOM     13  C   UNL     1      -6.196 -10.034   8.682  0.00  0.00    +0.176 C 
ATOM     14  C   UNL     1      -5.589  -8.956  11.879  0.00  0.00    +0.185 C 
ATOM     15  C   UNL     1      -7.372 -10.550   9.480  0.00  0.00    +0.194 C 
BRANCH  13   4
ATOM      4  O   UNL     1      -6.510  -8.854   7.977  0.00  0.00    -0.360 OA
BRANCH   4  17
ATOM     17  C   UNL     1      -7.910  -8.582   7.991  0.00  0.00    +0.280 C 
BRANCH  17  18
ATOM      6  O   UNL     1      -8.409  -7.169   6.086  0.00  0.00    -0.248 OA
ATOM     18  C   UNL     1      -8.159  -7.280   7.278  0.00  0.00    +0.333 C 
BRANCH  18   5
ATOM      5  O   UNL     1      -8.063  -6.257   8.177  0.00  0.00    -0.466 OA
ATOM     25  C   UNL     1      -9.267  -5.515   8.398  0.00  0.00    +0.280 C 
ENDBRANCH  18   5
ENDBRANCH  17  18
ENDBRANCH   4  17
ENDBRANCH  13   4
ENDBRANCH   7  12
BRANCH  19  22
ATOM      1  F   UNL     1      -8.073  -9.344  17.649  0.00  0.00    -0.205 F 
ATOM     22  C   UNL     1      -4.728 -10.637  17.013  0.00  0.00    +0.003 A 
ATOM     23  C   UNL     1      -5.947  -9.979  16.822  0.00  0.00    +0.048 A 
ATOM     24  C   UNL     1      -4.475 -11.287  18.222  0.00  0.00    +0.010 A 
ATOM     26  C   UNL     1      -6.906  -9.974  17.835  0.00  0.00    +0.124 A 
ATOM     27  C   UNL     1      -5.434 -11.282  19.235  0.00  0.00    +0.003 A 
ATOM     28  C   UNL     1      -6.649 -10.625  19.042  0.00  0.00    +0.038 A 
ENDBRANCH  19  22
TORSDOF 6
ENDMDL
MODEL 4
REMARK VINA RESULT:      -6.6     23.017     24.432
REMARK  Name = 11912841
REMARK  7 active torsions:
REMARK  status: ('A' for Active; 'I' for Inactive)
REMARK    1  A    between atoms: O_4  and  C_13
REMARK    2  A    between atoms: O_4  and  C_17
REMARK    3  A    between atoms: O_5  and  C_18
REMARK    4  A    between atoms: O_5  and  C_25
REMARK    5  A    between atoms: N_7  and  C_12
REMARK    6  A    between atoms: C_17  and  C_18
REMARK    7  A    between atoms: C_19  and  C_22
REMARK                            x       y       z     vdW  Elec       q    Type
REMARK                         _______ _______ _______ _____ _____    ______ ____
ROOT
ATOM      7  N   UNL     1      10.214   6.594   1.326  0.00  0.00    -0.306 N 
ATOM      8  N   UNL     1       9.581   6.797   3.576  0.00  0.00    -0.214 NA
ATOM      9  N   UNL     1       8.624   8.226   1.889  0.00  0.00    -0.223 NA
ATOM     16  C   UNL     1       9.450   7.225   2.293  0.00  0.00    +0.216 A 
ATOM     19  C   UNL     1       8.821   7.433   4.492  0.00  0.00    +0.076 A 
ATOM     20  C   UNL     1       7.894   8.819   2.857  0.00  0.00    +0.116 A 
ATOM     21  C   UNL     1       7.953   8.461   4.188  0.00  0.00    +0.048 A 
ATOM     29  H   UNL     1      10.148   6.955   0.381  0.00  0.00    +0.149 HD
ENDROOT
BRANCH   7  12
ATOM      2  O   UNL     1      10.562   3.747   0.128  0.00  0.00    -0.369 OA
ATOM      3  O   UNL     1      13.337   4.702   1.020  0.00  0.00    -0.369 OA
ATOM     10  C   UNL     1      12.188   5.425   0.531  0.00  0.00    +0.172 C 
ATOM     11  C   UNL     1      11.545   4.559  -0.534  0.00  0.00    +0.180 C 
ATOM     12  C   UNL     1      11.135   5.516   1.612  0.00  0.00    +0.130 C 
ATOM     13  C   UNL     1      12.708   3.734  -1.031  0.00  0.00    +0.176 C 
ATOM     14  C   UNL     1      10.431   4.175   1.492  0.00  0.00    +0.185 C 
ATOM     15  C   UNL     1      13.506   3.513   0.235  0.00  0.00    +0.194 C 
BRANCH  13   4
ATOM      4  O   UNL     1      12.321   2.519  -1.633  0.00  0.00    -0.360 OA
BRANCH   4  17
ATOM     17  C   UNL     1      12.090   2.667  -3.031  0.00  0.00    +0.280 C 
BRANCH  17  18
ATOM      6  O   UNL     1       9.899   1.653  -2.821  0.00  0.00    -0.248 OA
ATOM     18  C   UNL     1      10.615   2.522  -3.298  0.00  0.00    +0.333 C 
BRANCH  18   5
ATOM      5  O   UNL     1      10.218   3.513  -4.149  0.00  0.00    -0.466 OA
ATOM     25  C   UNL     1       9.126   4.318  -3.691  0.00  0.00    +0.280 C 
ENDBRANCH  18   5
ENDBRANCH  17  18
ENDBRANCH   4  17
ENDBRANCH  13   4
ENDBRANCH   7  12
BRANCH  19  22
ATOM      1  F   UNL     1       9.979   3.956   7.639  0.00  0.00    -0.205 F 
ATOM     22  C   UNL     1       8.976   6.964   5.849  0.00  0.00    +0.003 A 
ATOM     23  C   UNL     1       9.412   5.660   6.095  0.00  0.00    +0.048 A 
ATOM     24  C   UNL     1       8.690   7.812   6.921  0.00  0.00    +0.010 A 
ATOM     26  C   UNL     1       9.561   5.207   7.406  0.00  0.00    +0.124 A 
ATOM     27  C   UNL     1       8.839   7.360   8.232  0.00  0.00    +0.003 A 
ATOM     28  C   UNL     1       9.274   6.057   8.474  0.00  0.00    +0.038 A 
ENDBRANCH  19  22
TORSDOF 6
ENDMDL
MODEL 5
REMARK VINA RESULT:      -6.5      6.035      8.320
REMARK  Name = 11912841
REMARK  7 active torsions:
REMARK  status: ('A' for Active; 'I' for Inactive)
REMARK    1  A    between atoms: O_4  and  C_13
REMARK    2  A    between atoms: O_4  and  C_17
REMARK    3  A    between atoms: O_5  and  C_18
REMARK    4  A    between atoms: O_5  and  C_25
REMARK    5  A    between atoms: N_7  and  C_12
REMARK    6  A    between atoms: C_17  and  C_18
REMARK    7  A    between atoms: C_19  and  C_22
REMARK                            x       y       z     vdW  Elec       q    Type
REMARK                         _______ _______ _______ _____ _____    ______ ____
ROOT
ATOM      7  N   UNL     1      -8.366  -9.731  18.215  0.00  0.00    -0.306 N 
ATOM      8  N   UNL     1      -6.245 -10.258  17.360  0.00  0.00    -0.214 NA
ATOM      9  N   UNL     1      -6.833 -10.805  19.632  0.00  0.00    -0.223 NA
ATOM     16  C   UNL     1      -7.110 -10.281  18.408  0.00  0.00    +0.216 A 
ATOM     19  C   UNL     1      -5.032 -10.803  17.582  0.00  0.00    +0.076 A 
ATOM     20  C   UNL     1      -5.601 -11.333  19.784  0.00  0.00    +0.116 A 
ATOM     21  C   UNL     1      -4.650 -11.360  18.786  0.00  0.00    +0.048 A 
ATOM     29  H   UNL     1      -8.984  -9.707  19.018  0.00  0.00    +0.149 HD
ENDROOT
BRANCH   7  12
ATOM      2  O   UNL     1     -11.011  -9.923  16.594  0.00  0.00    -0.369 OA
ATOM      3  O   UNL     1      -9.833  -7.136  16.084  0.00  0.00    -0.369 OA
ATOM     10  C   UNL     1      -9.766  -8.008  17.232  0.00  0.00    +0.172 C 
ATOM     11  C   UNL     1     -11.111  -8.698  17.338  0.00  0.00    +0.180 C 
ATOM     12  C   UNL     1      -8.796  -9.138  16.968  0.00  0.00    +0.130 C 
ATOM     13  C   UNL     1     -12.038  -7.712  16.669  0.00  0.00    +0.176 C 
ATOM     14  C   UNL     1      -9.649 -10.120  16.184  0.00  0.00    +0.185 C 
ATOM     15  C   UNL     1     -11.169  -7.158  15.562  0.00  0.00    +0.194 C 
BRANCH  13   4
ATOM      4  O   UNL     1     -13.221  -8.298  16.172  0.00  0.00    -0.360 OA
BRANCH   4  17
ATOM     17  C   UNL     1     -13.646  -7.689  14.955  0.00  0.00    +0.280 C 
BRANCH  17  18
ATOM      6  O   UNL     1     -15.453  -6.772  16.285  0.00  0.00    -0.248 OA
ATOM     18  C   UNL     1     -14.801  -6.769  15.250  0.00  0.00    +0.333 C 
BRANCH  18   5
ATOM      5  O   UNL     1     -14.991  -5.940  14.182  0.00  0.00    -0.466 OA
ATOM     25  C   UNL     1     -13.834  -5.219  13.747  0.00  0.00    +0.280 C 
ENDBRANCH  18   5
ENDBRANCH  17  18
ENDBRANCH   4  17
ENDBRANCH  13   4
ENDBRANCH   7  12
BRANCH  19  22
ATOM      1  F   UNL     1      -0.549 -10.741  15.784  0.00  0.00    -0.205 F 
ATOM     22  C   UNL     1      -4.128 -10.767  16.457  0.00  0.00    +0.003 A 
ATOM     23  C   UNL     1      -2.746 -10.772  16.667  0.00  0.00    +0.048 A 
ATOM     24  C   UNL     1      -4.630 -10.728  15.155  0.00  0.00    +0.010 A 
ATOM     26  C   UNL     1      -1.873 -10.737  15.580  0.00  0.00    +0.124 A 
ATOM     27  C   UNL     1      -3.757 -10.693  14.068  0.00  0.00    +0.003 A 
ATOM     28  C   UNL     1      -2.379 -10.697  14.280  0.00  0.00    +0.038 A 
ENDBRANCH  19  22
TORSDOF 6
ENDMDL
MODEL 6
REMARK VINA RESULT:      -6.3     27.242     28.706
REMARK  Name = 11912841
REMARK  7 active torsions:
REMARK  status: ('A' for Active; 'I' for Inactive)
REMARK    1  A    between atoms: O_4  and  C_13
REMARK    2  A    between atoms: O_4  and  C_17
REMARK    3  A    between atoms: O_5  and  C_18
REMARK    4  A    between atoms: O_5  and  C_25
REMARK    5  A    between atoms: N_7  and  C_12
REMARK    6  A    between atoms: C_17  and  C_18
REMARK    7  A    between atoms: C_19  and  C_22
REMARK                            x       y       z     vdW  Elec       q    Type
REMARK                         _______ _______ _______ _____ _____    ______ ____
ROOT
ATOM      7  N   UNL     1      13.619   9.757  18.046  0.00  0.00    -0.306 N 
ATOM      8  N   UNL     1      15.226   8.718  19.404  0.00  0.00    -0.214 NA
ATOM      9  N   UNL     1      13.072   9.335  20.290  0.00  0.00    -0.223 NA
ATOM     16  C   UNL     1      13.983   9.255  19.284  0.00  0.00    +0.216 A 
ATOM     19  C   UNL     1      15.548   8.237  20.623  0.00  0.00    +0.076 A 
ATOM     20  C   UNL     1      13.461   8.836  21.482  0.00  0.00    +0.116 A 
ATOM     21  C   UNL     1      14.698   8.271  21.709  0.00  0.00    +0.048 A 
ATOM     29  H   UNL     1      12.711  10.202  17.982  0.00  0.00    +0.149 HD
ENDROOT
BRANCH   7  12
ATOM      2  O   UNL     1      13.055   9.817  14.990  0.00  0.00    -0.369 OA
ATOM      3  O   UNL     1      15.744  11.222  15.445  0.00  0.00    -0.369 OA
ATOM     10  C   UNL     1      14.567  11.118  16.273  0.00  0.00    +0.172 C 
ATOM     11  C   UNL     1      13.371  11.174  15.344  0.00  0.00    +0.180 C 
ATOM     12  C   UNL     1      14.487   9.740  16.889  0.00  0.00    +0.130 C 
ATOM     13  C   UNL     1      13.909  11.948  14.164  0.00  0.00    +0.176 C 
ATOM     14  C   UNL     1      13.860   8.922  15.773  0.00  0.00    +0.185 C 
ATOM     15  C   UNL     1      15.339  11.463  14.090  0.00  0.00    +0.194 C 
BRANCH  13   4
ATOM      4  O   UNL     1      13.205  11.710  12.966  0.00  0.00    -0.360 OA
BRANCH   4  17
ATOM     17  C   UNL     1      12.544  12.881  12.495  0.00  0.00    +0.280 C 
BRANCH  17  18
ATOM      6  O   UNL     1      10.734  11.781  11.316  0.00  0.00    -0.248 OA
ATOM     18  C   UNL     1      11.107  12.542  12.198  0.00  0.00    +0.333 C 
BRANCH  18   5
ATOM      5  O   UNL     1      10.303  13.217  13.071  0.00  0.00    -0.466 OA
ATOM     25  C   UNL     1       9.048  12.593  13.361  0.00  0.00    +0.280 C 
ENDBRANCH  18   5
ENDBRANCH  17  18
ENDBRANCH   4  17
ENDBRANCH  13   4
ENDBRANCH   7  12
BRANCH  19  22
ATOM      1  F   UNL     1      18.772   4.825  19.487  0.00  0.00    -0.205 F 
ATOM     22  C   UNL     1      16.872   7.672  20.729  0.00  0.00    +0.003 A 
ATOM     23  C   UNL     1      17.190   6.497  20.043  0.00  0.00    +0.048 A 
ATOM     24  C   UNL     1      17.840   8.297  21.519  0.00  0.00    +0.010 A 
ATOM     26  C   UNL     1      18.470   5.951  20.147  0.00  0.00    +0.124 A 
ATOM     27  C   UNL     1      19.119   7.750  21.622  0.00  0.00    +0.003 A 
ATOM     28  C   UNL     1      19.434   6.578  20.936  0.00  0.00    +0.038 A 
ENDBRANCH  19  22
TORSDOF 6
ENDMDL
MODEL 7
REMARK VINA RESULT:      -6.2      4.941      9.146
REMARK  Name = 11912841
REMARK  7 active torsions:
REMARK  status: ('A' for Active; 'I' for Inactive)
REMARK    1  A    between atoms: O_4  and  C_13
REMARK    2  A    between atoms: O_4  and  C_17
REMARK    3  A    between atoms: O_5  and  C_18
REMARK    4  A    between atoms: O_5  and  C_25
REMARK    5  A    between atoms: N_7  and  C_12
REMARK    6  A    between atoms: C_17  and  C_18
REMARK    7  A    between atoms: C_19  and  C_22
REMARK                            x       y       z     vdW  Elec       q    Type
REMARK                         _______ _______ _______ _____ _____    ______ ____
ROOT
ATOM      7  N   UNL     1      -4.381 -11.799  15.734  0.00  0.00    -0.306 N 
ATOM      8  N   UNL     1      -4.137 -10.871  13.593  0.00  0.00    -0.214 NA
ATOM      9  N   UNL     1      -2.332 -12.087  14.626  0.00  0.00    -0.223 NA
ATOM     16  C   UNL     1      -3.592 -11.579  14.617  0.00  0.00    +0.216 A 
ATOM     19  C   UNL     1      -3.341 -10.675  12.520  0.00  0.00    +0.076 A 
ATOM     20  C   UNL     1      -1.592 -11.854  13.522  0.00  0.00    +0.116 A 
ATOM     21  C   UNL     1      -2.048 -11.147  12.429  0.00  0.00    +0.048 A 
ATOM     29  H   UNL     1      -3.948 -12.283  16.512  0.00  0.00    +0.149 HD
ENDROOT
BRANCH   7  12
ATOM      2  O   UNL     1      -6.644 -12.399  17.778  0.00  0.00    -0.369 OA
ATOM      3  O   UNL     1      -7.018  -9.504  16.832  0.00  0.00    -0.369 OA
ATOM     10  C   UNL     1      -5.834 -10.314  16.989  0.00  0.00    +0.172 C 
ATOM     11  C   UNL     1      -6.048 -11.169  18.222  0.00  0.00    +0.180 C 
ATOM     12  C   UNL     1      -5.739 -11.316  15.863  0.00  0.00    +0.130 C 
ATOM     13  C   UNL     1      -7.016 -10.339  19.032  0.00  0.00    +0.176 C 
ATOM     14  C   UNL     1      -6.651 -12.432  16.343  0.00  0.00    +0.185 C 
ATOM     15  C   UNL     1      -7.881  -9.720  17.957  0.00  0.00    +0.194 C 
BRANCH  13   4
ATOM      4  O   UNL     1      -7.772 -11.093  19.952  0.00  0.00    -0.360 OA
BRANCH   4  17
ATOM     17  C   UNL     1      -9.167 -11.042  19.664  0.00  0.00    +0.280 C 
BRANCH  17  18
ATOM      6  O   UNL     1     -10.957 -12.466  20.465  0.00  0.00    -0.248 OA
ATOM     18  C   UNL     1      -9.799 -12.340  20.091  0.00  0.00    +0.333 C 
BRANCH  18   5
ATOM      5  O   UNL     1      -8.874 -13.339  19.989  0.00  0.00    -0.466 OA
ATOM     25  C   UNL     1      -9.326 -14.533  19.341  0.00  0.00    +0.280 C 
ENDBRANCH  18   5
ENDBRANCH  17  18
ENDBRANCH   4  17
ENDBRANCH  13   4
ENDBRANCH   7  12
BRANCH  19  22
ATOM      1  F   UNL     1      -7.156  -8.489  10.521  0.00  0.00    -0.205 F 
ATOM     22  C   UNL     1      -3.938  -9.920  11.444  0.00  0.00    +0.003 A 
ATOM     23  C   UNL     1      -5.287  -9.561  11.503  0.00  0.00    +0.048 A 
ATOM     24  C   UNL     1      -3.169  -9.546  10.340  0.00  0.00    +0.010 A 
ATOM     26  C   UNL     1      -5.863  -8.832  10.462  0.00  0.00    +0.124 A 
ATOM     27  C   UNL     1      -3.745  -8.816   9.300  0.00  0.00    +0.003 A 
ATOM     28  C   UNL     1      -5.092  -8.460   9.361  0.00  0.00    +0.038 A 
ENDBRANCH  19  22
TORSDOF 6
ENDMDL
MODEL 8
REMARK VINA RESULT:      -6.2     28.455     31.099
REMARK  Name = 11912841
REMARK  7 active torsions:
REMARK  status: ('A' for Active; 'I' for Inactive)
REMARK    1  A    between atoms: O_4  and  C_13
REMARK    2  A    between atoms: O_4  and  C_17
REMARK    3  A    between atoms: O_5  and  C_18
REMARK    4  A    between atoms: O_5  and  C_25
REMARK    5  A    between atoms: N_7  and  C_12
REMARK    6  A    between atoms: C_17  and  C_18
REMARK    7  A    between atoms: C_19  and  C_22
REMARK                            x       y       z     vdW  Elec       q    Type
REMARK                         _______ _______ _______ _____ _____    ______ ____
ROOT
ATOM      7  N   UNL     1      18.360   6.875  21.912  0.00  0.00    -0.306 N 
ATOM      8  N   UNL     1      20.537   7.473  21.274  0.00  0.00    -0.214 NA
ATOM      9  N   UNL     1      20.139   6.231  23.301  0.00  0.00    -0.223 NA
ATOM     16  C   UNL     1      19.720   6.859  22.171  0.00  0.00    +0.216 A 
ATOM     19  C   UNL     1      21.856   7.437  21.556  0.00  0.00    +0.076 A 
ATOM     20  C   UNL     1      21.471   6.234  23.521  0.00  0.00    +0.116 A 
ATOM     21  C   UNL     1      22.385   6.828  22.676  0.00  0.00    +0.048 A 
ATOM     29  H   UNL     1      17.755   6.461  22.613  0.00  0.00    +0.149 HD
ENDROOT
BRANCH   7  12
ATOM      2  O   UNL     1      15.874   6.195  20.175  0.00  0.00    -0.369 OA
ATOM      3  O   UNL     1      16.205   9.245  20.133  0.00  0.00    -0.369 OA
ATOM     10  C   UNL     1      16.523   8.262  21.140  0.00  0.00    +0.172 C 
ATOM     11  C   UNL     1      15.431   7.212  21.088  0.00  0.00    +0.180 C 
ATOM     12  C   UNL     1      17.773   7.507  20.751  0.00  0.00    +0.130 C 
ATOM     13  C   UNL     1      14.258   7.987  20.537  0.00  0.00    +0.176 C 
ATOM     14  C   UNL     1      17.234   6.457  19.796  0.00  0.00    +0.185 C 
ATOM     15  C   UNL     1      14.928   8.927  19.560  0.00  0.00    +0.194 C 
BRANCH  13   4
ATOM      4  O   UNL     1      13.290   7.174  19.911  0.00  0.00    -0.360 OA
BRANCH   4  17
ATOM     17  C   UNL     1      13.063   7.562  18.558  0.00  0.00    +0.280 C 
BRANCH  17  18
ATOM      6  O   UNL     1      10.889   8.320  19.313  0.00  0.00    -0.248 OA
ATOM     18  C   UNL     1      11.619   7.956  18.401  0.00  0.00    +0.333 C 
BRANCH  18   5
ATOM      5  O   UNL     1      11.269   7.844  17.087  0.00  0.00    -0.466 OA
ATOM     25  C   UNL     1      11.393   9.040  16.311  0.00  0.00    +0.280 C 
ENDBRANCH  18   5
ENDBRANCH  17  18
ENDBRANCH   4  17
ENDBRANCH  13   4
ENDBRANCH   7  12
BRANCH  19  22
ATOM      1  F   UNL     1      22.565  10.824  18.187  0.00  0.00    -0.205 F 
ATOM     22  C   UNL     1      22.707   8.095  20.593  0.00  0.00    +0.003 A 
ATOM     23  C   UNL     1      22.216   9.164  19.839  0.00  0.00    +0.048 A 
ATOM     24  C   UNL     1      24.023   7.666  20.411  0.00  0.00    +0.010 A 
ATOM     26  C   UNL     1      23.038   9.800  18.908  0.00  0.00    +0.124 A 
ATOM     27  C   UNL     1      24.845   8.301  19.480  0.00  0.00    +0.003 A 
ATOM     28  C   UNL     1      24.353   9.368  18.729  0.00  0.00    +0.038 A 
ENDBRANCH  19  22
TORSDOF 6
ENDMDL
MODEL 9
REMARK VINA RESULT:      -6.1      6.826      8.444
REMARK  Name = 11912841
REMARK  7 active torsions:
REMARK  status: ('A' for Active; 'I' for Inactive)
REMARK    1  A    between atoms: O_4  and  C_13
REMARK    2  A    between atoms: O_4  and  C_17
REMARK    3  A    between atoms: O_5  and  C_18
REMARK    4  A    between atoms: O_5  and  C_25
REMARK    5  A    between atoms: N_7  and  C_12
REMARK    6  A    between atoms: C_17  and  C_18
REMARK    7  A    between atoms: C_19  and  C_22
REMARK                            x       y       z     vdW  Elec       q    Type
REMARK                         _______ _______ _______ _____ _____    ______ ____
ROOT
ATOM      7  N   UNL     1     -10.877  -9.801  17.642  0.00  0.00    -0.306 N 
ATOM      8  N   UNL     1      -8.685 -10.558  18.001  0.00  0.00    -0.214 NA
ATOM      9  N   UNL     1     -10.515 -11.392  19.329  0.00  0.00    -0.223 NA
ATOM     16  C   UNL     1      -9.999 -10.608  18.346  0.00  0.00    +0.216 A 
ATOM     19  C   UNL     1      -7.858 -11.357  18.706  0.00  0.00    +0.076 A 
ATOM     20  C   UNL     1      -9.631 -12.166  19.993  0.00  0.00    +0.116 A 
ATOM     21  C   UNL     1      -8.279 -12.190  19.723  0.00  0.00    +0.048 A 
ATOM     29  H   UNL     1     -11.846  -9.807  17.942  0.00  0.00    +0.149 HD
ENDROOT
BRANCH   7  12
ATOM      2  O   UNL     1     -12.396  -8.589  15.216  0.00  0.00    -0.369 OA
ATOM      3  O   UNL     1     -10.246  -6.564  16.046  0.00  0.00    -0.369 OA
ATOM     10  C   UNL     1     -11.004  -7.523  16.813  0.00  0.00    +0.172 C 
ATOM     11  C   UNL     1     -12.397  -7.558  16.217  0.00  0.00    +0.180 C 
ATOM     12  C   UNL     1     -10.469  -8.916  16.573  0.00  0.00    +0.130 C 
ATOM     13  C   UNL     1     -12.526  -6.184  15.604  0.00  0.00    +0.176 C 
ATOM     14  C   UNL     1     -11.154  -9.307  15.275  0.00  0.00    +0.185 C 
ATOM     15  C   UNL     1     -11.122  -5.924  15.106  0.00  0.00    +0.194 C 
BRANCH  13   4
ATOM      4  O   UNL     1     -13.478  -6.117  14.566  0.00  0.00    -0.360 OA
BRANCH   4  17
ATOM     17  C   UNL     1     -13.073  -5.225  13.530  0.00  0.00    +0.280 C 
BRANCH  17  18
ATOM      6  O   UNL     1     -14.399  -3.212  13.277  0.00  0.00    -0.248 OA
ATOM     18  C   UNL     1     -14.265  -4.414  13.094  0.00  0.00    +0.333 C 
BRANCH  18   5
ATOM      5  O   UNL     1     -15.155  -5.237  12.466  0.00  0.00    -0.466 OA
ATOM     25  C   UNL     1     -14.646  -5.946  11.333  0.00  0.00    +0.280 C 
ENDBRANCH  18   5
ENDBRANCH  17  18
ENDBRANCH   4  17
ENDBRANCH  13   4
ENDBRANCH   7  12
BRANCH  19  22
ATOM      1  F   UNL     1      -3.198 -12.245  19.611  0.00  0.00    -0.205 F 
ATOM     22  C   UNL     1      -6.468 -11.289  18.325  0.00  0.00    +0.003 A 
ATOM     23  C   UNL     1      -5.483 -11.811  19.168  0.00  0.00    +0.048 A 
ATOM     24  C   UNL     1      -6.100 -10.700  17.113  0.00  0.00    +0.010 A 
ATOM     26  C   UNL     1      -4.139 -11.744  18.801  0.00  0.00    +0.124 A 
ATOM     27  C   UNL     1      -4.756 -10.633  16.746  0.00  0.00    +0.003 A 
ATOM     28  C   UNL     1      -3.776 -11.155  17.589  0.00  0.00    +0.038 A 
ENDBRANCH  19  22
TORSDOF 6
ENDMDL
MODEL 10
REMARK VINA RESULT:      -6.1     26.249     28.200
REMARK  Name = 11912841
REMARK  7 active torsions:
REMARK  status: ('A' for Active; 'I' for Inactive)
REMARK    1  A    between atoms: O_4  and  C_13
REMARK    2  A    between atoms: O_4  and  C_17
REMARK    3  A    between atoms: O_5  and  C_18
REMARK    4  A    between atoms: O_5  and  C_25
REMARK    5  A    between atoms: N_7  and  C_12
REMARK    6  A    between atoms: C_17  and  C_18
REMARK    7  A    between atoms: C_19  and  C_22
REMARK                            x       y       z     vdW  Elec       q    Type
REMARK                         _______ _______ _______ _____ _____    ______ ____
ROOT
ATOM      7  N   UNL     1      13.111   6.976  19.407  0.00  0.00    -0.306 N 
ATOM      8  N   UNL     1      12.417   8.586  20.966  0.00  0.00    -0.214 NA
ATOM      9  N   UNL     1      11.325   6.442  20.833  0.00  0.00    -0.223 NA
ATOM     16  C   UNL     1      12.258   7.346  20.433  0.00  0.00    +0.216 A 
ATOM     19  C   UNL     1      11.570   8.914  21.964  0.00  0.00    +0.076 A 
ATOM     20  C   UNL     1      10.511   6.836  21.835  0.00  0.00    +0.116 A 
ATOM     21  C   UNL     1      10.588   8.071  22.444  0.00  0.00    +0.048 A 
ATOM     29  H   UNL     1      12.950   6.070  18.982  0.00  0.00    +0.149 HD
ENDROOT
BRANCH   7  12
ATOM      2  O   UNL     1      13.749   7.988  16.538  0.00  0.00    -0.369 OA
ATOM      3  O   UNL     1      14.656  10.171  18.495  0.00  0.00    -0.369 OA
ATOM     10  C   UNL     1      13.587   9.204  18.568  0.00  0.00    +0.172 C 
ATOM     11  C   UNL     1      13.028   9.061  17.167  0.00  0.00    +0.180 C 
ATOM     12  C   UNL     1      14.148   7.835  18.879  0.00  0.00    +0.130 C 
ATOM     13  C   UNL     1      13.358  10.397  16.544  0.00  0.00    +0.176 C 
ATOM     14  C   UNL     1      14.590   7.348  17.510  0.00  0.00    +0.185 C 
ATOM     15  C   UNL     1      14.698  10.716  17.168  0.00  0.00    +0.194 C 
BRANCH  13   4
ATOM      4  O   UNL     1      13.423  10.362  15.137  0.00  0.00    -0.360 OA
BRANCH   4  17
ATOM     17  C   UNL     1      14.469  11.188  14.631  0.00  0.00    +0.280 C 
BRANCH  17  18
ATOM      6  O   UNL     1      13.794  11.981  12.442  0.00  0.00    -0.248 OA
ATOM     18  C   UNL     1      13.883  12.167  13.648  0.00  0.00    +0.333 C 
BRANCH  18   5
ATOM      5  O   UNL     1      13.470  13.279  14.322  0.00  0.00    -0.466 OA
ATOM     25  C   UNL     1      14.447  13.878  15.180  0.00  0.00    +0.280 C 
ENDBRANCH  18   5
ENDBRANCH  17  18
ENDBRANCH   4  17
ENDBRANCH  13   4
ENDBRANCH   7  12
BRANCH  19  22
ATOM      1  F   UNL     1      13.794  13.201  21.968  0.00  0.00    -0.205 F 
ATOM     22  C   UNL     1      11.754  10.235  22.515  0.00  0.00    +0.003 A 
ATOM     23  C   UNL     1      12.704  11.099  21.965  0.00  0.00    +0.048 A 
ATOM     24  C   UNL     1      10.983  10.656  23.601  0.00  0.00    +0.010 A 
ATOM     26  C   UNL     1      12.882  12.376  22.498  0.00  0.00    +0.124 A 
ATOM     27  C   UNL     1      11.161  11.932  24.134  0.00  0.00    +0.003 A 
ATOM     28  C   UNL     1      12.110  12.792  23.583  0.00  0.00    +0.038 A 
ENDBRANCH  19  22
TORSDOF 6
ENDMDL
