MODEL 1
REMARK VINA RESULT:      -6.3      0.000      0.000
REMARK  Name = 56774637
REMARK  8 active torsions:
REMARK  status: ('A' for Active; 'I' for Inactive)
REMARK    1  A    between atoms: S_1  and  N_8
REMARK    2  A    between atoms: S_1  and  C_27
REMARK    3  A    between atoms: O_3  and  C_17
REMARK    4  A    between atoms: N_7  and  C_12
REMARK    5  A    between atoms: N_8  and  C_26
REMARK    6  A    between atoms: C_9  and  C_12
REMARK    7  A    between atoms: C_16  and  C_17
REMARK    8  A    between atoms: C_17  and  C_21
REMARK                            x       y       z     vdW  Elec       q    Type
REMARK                         _______ _______ _______ _____ _____    ______ ____
ROOT
ATOM     17  C   UNL     1      -7.447 -11.392  19.203  0.00  0.00    +0.167 C 
ENDROOT
BRANCH  17  16
ATOM      2  O   UNL     1      -8.683 -14.048  19.045  0.00  0.00    -0.369 OA
ATOM      4  O   UNL     1     -11.354 -12.387  20.819  0.00  0.00    -0.273 OA
ATOM      7  N   UNL     1      -9.910 -11.533  19.206  0.00  0.00    -0.291 N 
ATOM     16  C   UNL     1      -8.702 -11.748  18.400  0.00  0.00    +0.135 C 
ATOM     18  C   UNL     1      -8.651 -13.190  17.912  0.00  0.00    +0.185 C 
ATOM     19  C   UNL     1     -10.452 -12.546  19.994  0.00  0.00    +0.242 C 
ATOM     20  C   UNL     1      -9.916 -13.947  19.721  0.00  0.00    +0.255 C 
BRANCH   7  12
ATOM     12  C   UNL     1     -10.422 -10.172  19.302  0.00  0.00    +0.112 C 
BRANCH  12   9
ATOM      9  C   UNL     1     -10.635  -9.570  17.913  0.00  0.00    +0.006 C 
ATOM     10  C   UNL     1     -12.096  -9.138  17.730  0.00  0.00    +0.005 C 
ATOM     11  C   UNL     1      -9.682  -8.390  17.684  0.00  0.00    +0.005 C 
ATOM     13  C   UNL     1     -12.323  -8.483  16.369  0.00  0.00    +0.000 C 
ATOM     14  C   UNL     1      -9.913  -7.736  16.323  0.00  0.00    +0.000 C 
ATOM     15  C   UNL     1     -11.368  -7.315  16.140  0.00  0.00    +0.000 C 
ENDBRANCH  12   9
ENDBRANCH   7  12
ENDBRANCH  17  16
BRANCH  17  21
ATOM     21  C   UNL     1      -6.289 -11.039  18.306  0.00  0.00    -0.017 A 
ATOM     22  C   UNL     1      -5.010 -11.512  18.599  0.00  0.00    +0.008 A 
ATOM     23  C   UNL     1      -6.496 -10.239  17.182  0.00  0.00    +0.008 A 
ATOM     24  C   UNL     1      -3.938 -11.183  17.769  0.00  0.00    +0.025 A 
ATOM     25  C   UNL     1      -5.424  -9.910  16.352  0.00  0.00    +0.025 A 
ATOM     26  C   UNL     1      -4.145 -10.383  16.646  0.00  0.00    +0.048 A 
BRANCH  26   8
ATOM      8  N   UNL     1      -3.048 -10.047  15.796  0.00  0.00    -0.221 N 
ATOM     29  H   UNL     1      -3.142  -9.132  15.335  0.00  0.00    +0.173 HD
BRANCH   8   1
ATOM      1  S   UNL     1      -2.364 -11.289  14.820  0.00  0.00    +0.040 S 
ATOM      5  O   UNL     1      -1.007 -11.534  15.273  0.00  0.00    -0.155 OA
ATOM      6  O   UNL     1      -3.295 -12.389  14.653  0.00  0.00    -0.155 OA
ATOM     27  C   UNL     1      -2.243 -10.436  13.265  0.00  0.00    +0.218 C 
ENDBRANCH   8   1
ENDBRANCH  26   8
ENDBRANCH  17  21
BRANCH  17   3
ATOM      3  O   UNL     1      -7.734 -10.296  20.064  0.00  0.00    -0.385 OA
ATOM     28  H   UNL     1      -6.895  -9.857  20.290  0.00  0.00    +0.210 HD
ENDBRANCH  17   3
TORSDOF 7
ENDMDL
MODEL 2
REMARK VINA RESULT:      -6.2     26.668     29.427
REMARK  Name = 56774637
REMARK  8 active torsions:
REMARK  status: ('A' for Active; 'I' for Inactive)
REMARK    1  A    between atoms: S_1  and  N_8
REMARK    2  A    between atoms: S_1  and  C_27
REMARK    3  A    between atoms: O_3  and  C_17
REMARK    4  A    between atoms: N_7  and  C_12
REMARK    5  A    between atoms: N_8  and  C_26
REMARK    6  A    between atoms: C_9  and  C_12
REMARK    7  A    between atoms: C_16  and  C_17
REMARK    8  A    between atoms: C_17  and  C_21
REMARK                            x       y       z     vdW  Elec       q    Type
REMARK                         _______ _______ _______ _____ _____    ______ ____
ROOT
ATOM     17  C   UNL     1       9.171   6.511   4.577  0.00  0.00    +0.167 C 
ENDROOT
BRANCH  17  16
ATOM      2  O   UNL     1       7.972   7.719   6.967  0.00  0.00    -0.369 OA
ATOM      4  O   UNL     1      10.708   6.030   8.611  0.00  0.00    -0.273 OA
ATOM      7  N   UNL     1      10.641   7.002   6.498  0.00  0.00    -0.291 N 
ATOM     16  C   UNL     1       9.810   7.600   5.445  0.00  0.00    +0.135 C 
ATOM     18  C   UNL     1       8.749   8.499   6.067  0.00  0.00    +0.185 C 
ATOM     19  C   UNL     1      10.118   6.685   7.749  0.00  0.00    +0.242 C 
ATOM     20  C   UNL     1       8.750   7.282   8.059  0.00  0.00    +0.255 C 
BRANCH   7  12
ATOM     12  C   UNL     1      11.986   6.578   6.133  0.00  0.00    +0.112 C 
BRANCH  12   9
ATOM      9  C   UNL     1      12.822   7.765   5.657  0.00  0.00    +0.006 C 
ATOM     10  C   UNL     1      13.699   8.301   6.797  0.00  0.00    +0.005 C 
ATOM     11  C   UNL     1      13.680   7.372   4.447  0.00  0.00    +0.005 C 
ATOM     13  C   UNL     1      14.584   9.455   6.332  0.00  0.00    +0.000 C 
ATOM     14  C   UNL     1      14.566   8.527   3.986  0.00  0.00    +0.000 C 
ATOM     15  C   UNL     1      15.429   9.063   5.123  0.00  0.00    +0.000 C 
ENDBRANCH  12   9
ENDBRANCH   7  12
ENDBRANCH  17  16
BRANCH  17  21
ATOM     21  C   UNL     1      10.130   5.989   3.539  0.00  0.00    -0.017 A 
ATOM     22  C   UNL     1      10.551   4.659   3.585  0.00  0.00    +0.008 A 
ATOM     23  C   UNL     1      10.597   6.834   2.533  0.00  0.00    +0.008 A 
ATOM     24  C   UNL     1      11.439   4.176   2.625  0.00  0.00    +0.025 A 
ATOM     25  C   UNL     1      11.487   6.350   1.573  0.00  0.00    +0.025 A 
ATOM     26  C   UNL     1      11.908   5.021   1.619  0.00  0.00    +0.048 A 
BRANCH  26   8
ATOM      8  N   UNL     1      12.817   4.526   0.636  0.00  0.00    -0.221 N 
ATOM     29  H   UNL     1      12.430   3.773   0.051  0.00  0.00    +0.173 HD
BRANCH   8   1
ATOM      1  S   UNL     1      14.469   4.331   1.080  0.00  0.00    +0.040 S 
ATOM      5  O   UNL     1      14.950   5.587   1.624  0.00  0.00    -0.155 OA
ATOM      6  O   UNL     1      14.668   3.089   1.803  0.00  0.00    -0.155 OA
ATOM     27  C   UNL     1      15.207   4.150  -0.529  0.00  0.00    +0.218 C 
ENDBRANCH   8   1
ENDBRANCH  26   8
ENDBRANCH  17  21
BRANCH  17   3
ATOM      3  O   UNL     1       8.739   5.440   5.409  0.00  0.00    -0.385 OA
ATOM     28  H   UNL     1       8.709   5.759   6.328  0.00  0.00    +0.210 HD
ENDBRANCH  17   3
TORSDOF 7
ENDMDL
MODEL 3
REMARK VINA RESULT:      -6.1     18.436     21.680
REMARK  Name = 56774637
REMARK  8 active torsions:
REMARK  status: ('A' for Active; 'I' for Inactive)
REMARK    1  A    between atoms: S_1  and  N_8
REMARK    2  A    between atoms: S_1  and  C_27
REMARK    3  A    between atoms: O_3  and  C_17
REMARK    4  A    between atoms: N_7  and  C_12
REMARK    5  A    between atoms: N_8  and  C_26
REMARK    6  A    between atoms: C_9  and  C_12
REMARK    7  A    between atoms: C_16  and  C_17
REMARK    8  A    between atoms: C_17  and  C_21
REMARK                            x       y       z     vdW  Elec       q    Type
REMARK                         _______ _______ _______ _____ _____    ______ ____
ROOT
ATOM     17  C   UNL     1     -12.519   8.809  19.252  0.00  0.00    +0.167 C 
ENDROOT
BRANCH  17  16
ATOM      2  O   UNL     1     -10.119  10.123  18.192  0.00  0.00    -0.369 OA
ATOM      4  O   UNL     1     -12.022  13.109  18.896  0.00  0.00    -0.273 OA
ATOM      7  N   UNL     1     -11.990  11.086  20.044  0.00  0.00    -0.291 N 
ATOM     16  C   UNL     1     -11.551   9.684  20.054  0.00  0.00    +0.135 C 
ATOM     18  C   UNL     1     -10.133   9.579  19.506  0.00  0.00    +0.185 C 
ATOM     19  C   UNL     1     -11.563  11.978  19.063  0.00  0.00    +0.242 C 
ATOM     20  C   UNL     1     -10.387  11.506  18.214  0.00  0.00    +0.255 C 
BRANCH   7  12
ATOM     12  C   UNL     1     -13.033  11.470  20.986  0.00  0.00    +0.112 C 
BRANCH  12   9
ATOM      9  C   UNL     1     -12.910  10.681  22.289  0.00  0.00    +0.006 C 
ATOM     10  C   UNL     1     -12.173  11.506  23.352  0.00  0.00    +0.005 C 
ATOM     11  C   UNL     1     -14.294  10.251  22.793  0.00  0.00    +0.005 C 
ATOM     13  C   UNL     1     -12.084  10.759  24.682  0.00  0.00    +0.000 C 
ATOM     14  C   UNL     1     -14.203   9.507  24.123  0.00  0.00    +0.000 C 
ATOM     15  C   UNL     1     -13.461  10.325  25.176  0.00  0.00    +0.000 C 
ENDBRANCH  12   9
ENDBRANCH   7  12
ENDBRANCH  17  16
BRANCH  17  21
ATOM     21  C   UNL     1     -13.030   7.648  20.066  0.00  0.00    -0.017 A 
ATOM     22  C   UNL     1     -14.387   7.328  20.048  0.00  0.00    +0.008 A 
ATOM     23  C   UNL     1     -12.145   6.894  20.837  0.00  0.00    +0.008 A 
ATOM     24  C   UNL     1     -14.860   6.254  20.802  0.00  0.00    +0.025 A 
ATOM     25  C   UNL     1     -12.618   5.821  21.592  0.00  0.00    +0.025 A 
ATOM     26  C   UNL     1     -13.976   5.501  21.574  0.00  0.00    +0.048 A 
BRANCH  26   8
ATOM      8  N   UNL     1     -14.460   4.402  22.346  0.00  0.00    -0.221 N 
ATOM     29  H   UNL     1     -14.647   3.554  21.793  0.00  0.00    +0.173 HD
BRANCH   8   1
ATOM      1  S   UNL     1     -15.598   4.723  23.597  0.00  0.00    +0.040 S 
ATOM      5  O   UNL     1     -15.330   3.825  24.705  0.00  0.00    -0.155 OA
ATOM      6  O   UNL     1     -15.733   6.150  23.821  0.00  0.00    -0.155 OA
ATOM     27  C   UNL     1     -17.091   4.149  22.818  0.00  0.00    +0.218 C 
ENDBRANCH   8   1
ENDBRANCH  26   8
ENDBRANCH  17  21
BRANCH  17   3
ATOM      3  O   UNL     1     -13.616   9.602  18.813  0.00  0.00    -0.385 OA
ATOM     28  H   UNL     1     -13.726   9.469  17.856  0.00  0.00    +0.210 HD
ENDBRANCH  17   3
TORSDOF 7
ENDMDL
MODEL 4
REMARK VINA RESULT:      -6.0     18.561     21.075
REMARK  Name = 56774637
REMARK  8 active torsions:
REMARK  status: ('A' for Active; 'I' for Inactive)
REMARK    1  A    between atoms: S_1  and  N_8
REMARK    2  A    between atoms: S_1  and  C_27
REMARK    3  A    between atoms: O_3  and  C_17
REMARK    4  A    between atoms: N_7  and  C_12
REMARK    5  A    between atoms: N_8  and  C_26
REMARK    6  A    between atoms: C_9  and  C_12
REMARK    7  A    between atoms: C_16  and  C_17
REMARK    8  A    between atoms: C_17  and  C_21
REMARK                            x       y       z     vdW  Elec       q    Type
REMARK                         _______ _______ _______ _____ _____    ______ ____
ROOT
ATOM     17  C   UNL     1     -11.145   9.695  19.767  0.00  0.00    +0.167 C 
ENDROOT
BRANCH  17  16
ATOM      2  O   UNL     1     -10.150  11.821  18.006  0.00  0.00    -0.369 OA
ATOM      4  O   UNL     1     -10.288   9.187  15.540  0.00  0.00    -0.273 OA
ATOM      7  N   UNL     1     -11.684   9.564  17.362  0.00  0.00    -0.291 N 
ATOM     16  C   UNL     1     -11.914  10.322  18.600  0.00  0.00    +0.135 C 
ATOM     18  C   UNL     1     -11.516  11.779  18.400  0.00  0.00    +0.185 C 
ATOM     19  C   UNL     1     -10.640   9.880  16.496  0.00  0.00    +0.242 C 
ATOM     20  C   UNL     1      -9.970  11.228  16.740  0.00  0.00    +0.255 C 
BRANCH   7  12
ATOM     12  C   UNL     1     -12.469   8.354  17.160  0.00  0.00    +0.112 C 
BRANCH  12   9
ATOM      9  C   UNL     1     -13.965   8.663  17.184  0.00  0.00    +0.006 C 
ATOM     10  C   UNL     1     -14.596   8.385  15.813  0.00  0.00    +0.005 C 
ATOM     11  C   UNL     1     -14.667   7.854  18.283  0.00  0.00    +0.005 C 
ATOM     13  C   UNL     1     -16.103   8.635  15.826  0.00  0.00    +0.000 C 
ATOM     14  C   UNL     1     -16.173   8.104  18.292  0.00  0.00    +0.000 C 
ATOM     15  C   UNL     1     -16.797   7.836  16.926  0.00  0.00    +0.000 C 
ENDBRANCH  12   9
ENDBRANCH   7  12
ENDBRANCH  17  16
BRANCH  17  21
ATOM     21  C   UNL     1     -11.988   8.701  20.523  0.00  0.00    -0.017 A 
ATOM     22  C   UNL     1     -11.653   7.347  20.506  0.00  0.00    +0.008 A 
ATOM     23  C   UNL     1     -13.105   9.134  21.238  0.00  0.00    +0.008 A 
ATOM     24  C   UNL     1     -12.434   6.427  21.205  0.00  0.00    +0.025 A 
ATOM     25  C   UNL     1     -13.886   8.214  21.936  0.00  0.00    +0.025 A 
ATOM     26  C   UNL     1     -13.551   6.860  21.919  0.00  0.00    +0.048 A 
BRANCH  26   8
ATOM      8  N   UNL     1     -14.351   5.917  22.635  0.00  0.00    -0.221 N 
ATOM     29  H   UNL     1     -13.821   5.117  23.006  0.00  0.00    +0.173 HD
BRANCH   8   1
ATOM      1  S   UNL     1     -15.910   5.536  22.014  0.00  0.00    +0.040 S 
ATOM      5  O   UNL     1     -16.835   6.577  22.424  0.00  0.00    -0.155 OA
ATOM      6  O   UNL     1     -15.830   5.127  20.625  0.00  0.00    -0.155 OA
ATOM     27  C   UNL     1     -16.291   4.096  22.986  0.00  0.00    +0.218 C 
ENDBRANCH   8   1
ENDBRANCH  26   8
ENDBRANCH  17  21
BRANCH  17   3
ATOM      3  O   UNL     1      -9.979   9.049  19.270  0.00  0.00    -0.385 OA
ATOM     28  H   UNL     1      -9.924   8.165  19.672  0.00  0.00    +0.210 HD
ENDBRANCH  17   3
TORSDOF 7
ENDMDL
MODEL 5
REMARK VINA RESULT:      -5.9      2.987      7.343
REMARK  Name = 56774637
REMARK  8 active torsions:
REMARK  status: ('A' for Active; 'I' for Inactive)
REMARK    1  A    between atoms: S_1  and  N_8
REMARK    2  A    between atoms: S_1  and  C_27
REMARK    3  A    between atoms: O_3  and  C_17
REMARK    4  A    between atoms: N_7  and  C_12
REMARK    5  A    between atoms: N_8  and  C_26
REMARK    6  A    between atoms: C_9  and  C_12
REMARK    7  A    between atoms: C_16  and  C_17
REMARK    8  A    between atoms: C_17  and  C_21
REMARK                            x       y       z     vdW  Elec       q    Type
REMARK                         _______ _______ _______ _____ _____    ______ ____
ROOT
ATOM     17  C   UNL     1      -3.497 -10.675  15.738  0.00  0.00    +0.167 C 
ENDROOT
BRANCH  17  16
ATOM      2  O   UNL     1      -1.822 -10.899  13.340  0.00  0.00    -0.369 OA
ATOM      4  O   UNL     1      -1.918 -14.409  14.181  0.00  0.00    -0.273 OA
ATOM      7  N   UNL     1      -3.562 -12.787  14.465  0.00  0.00    -0.291 N 
ATOM     16  C   UNL     1      -3.900 -11.358  14.428  0.00  0.00    +0.135 C 
ATOM     18  C   UNL     1      -3.225 -10.695  13.234  0.00  0.00    +0.185 C 
ATOM     19  C   UNL     1      -2.328 -13.258  14.021  0.00  0.00    +0.242 C 
ATOM     20  C   UNL     1      -1.499 -12.265  13.215  0.00  0.00    +0.255 C 
BRANCH   7  12
ATOM     12  C   UNL     1      -4.487 -13.679  15.151  0.00  0.00    +0.112 C 
BRANCH  12   9
ATOM      9  C   UNL     1      -5.898 -13.549  14.579  0.00  0.00    +0.006 C 
ATOM     10  C   UNL     1      -6.268 -14.797  13.765  0.00  0.00    +0.005 C 
ATOM     11  C   UNL     1      -6.916 -13.305  15.700  0.00  0.00    +0.005 C 
ATOM     13  C   UNL     1      -7.695 -14.715  13.226  0.00  0.00    +0.000 C 
ATOM     14  C   UNL     1      -8.342 -13.226  15.158  0.00  0.00    +0.000 C 
ATOM     15  C   UNL     1      -8.704 -14.463  14.343  0.00  0.00    +0.000 C 
ENDBRANCH  12   9
ENDBRANCH   7  12
ENDBRANCH  17  16
BRANCH  17  21
ATOM     21  C   UNL     1      -4.663 -10.547  16.684  0.00  0.00    -0.017 A 
ATOM     22  C   UNL     1      -4.624 -11.176  17.929  0.00  0.00    +0.008 A 
ATOM     23  C   UNL     1      -5.782  -9.801  16.315  0.00  0.00    +0.008 A 
ATOM     24  C   UNL     1      -5.704 -11.059  18.804  0.00  0.00    +0.025 A 
ATOM     25  C   UNL     1      -6.863  -9.684  17.190  0.00  0.00    +0.025 A 
ATOM     26  C   UNL     1      -6.824 -10.314  18.434  0.00  0.00    +0.048 A 
BRANCH  26   8
ATOM      8  N   UNL     1      -7.929 -10.193  19.330  0.00  0.00    -0.221 N 
ATOM     29  H   UNL     1      -7.669  -9.875  20.273  0.00  0.00    +0.173 HD
BRANCH   8   1
ATOM      1  S   UNL     1      -9.154 -11.402  19.279  0.00  0.00    +0.040 S 
ATOM      5  O   UNL     1      -9.561 -11.585  17.897  0.00  0.00    -0.155 OA
ATOM      6  O   UNL     1      -8.790 -12.543  20.097  0.00  0.00    -0.155 OA
ATOM     27  C   UNL     1     -10.478 -10.543  20.098  0.00  0.00    +0.218 C 
ENDBRANCH   8   1
ENDBRANCH  26   8
ENDBRANCH  17  21
BRANCH  17   3
ATOM      3  O   UNL     1      -2.460 -11.424  16.361  0.00  0.00    -0.385 OA
ATOM     28  H   UNL     1      -2.201 -12.145  15.760  0.00  0.00    +0.210 HD
ENDBRANCH  17   3
TORSDOF 7
ENDMDL
MODEL 6
REMARK VINA RESULT:      -5.8      1.863      2.373
REMARK  Name = 56774637
REMARK  8 active torsions:
REMARK  status: ('A' for Active; 'I' for Inactive)
REMARK    1  A    between atoms: S_1  and  N_8
REMARK    2  A    between atoms: S_1  and  C_27
REMARK    3  A    between atoms: O_3  and  C_17
REMARK    4  A    between atoms: N_7  and  C_12
REMARK    5  A    between atoms: N_8  and  C_26
REMARK    6  A    between atoms: C_9  and  C_12
REMARK    7  A    between atoms: C_16  and  C_17
REMARK    8  A    between atoms: C_17  and  C_21
REMARK                            x       y       z     vdW  Elec       q    Type
REMARK                         _______ _______ _______ _____ _____    ______ ____
ROOT
ATOM     17  C   UNL     1      -7.205 -11.866  19.185  0.00  0.00    +0.167 C 
ENDROOT
BRANCH  17  16
ATOM      2  O   UNL     1      -9.538 -13.198  20.364  0.00  0.00    -0.369 OA
ATOM      4  O   UNL     1     -10.988  -9.907  20.032  0.00  0.00    -0.273 OA
ATOM      7  N   UNL     1      -9.445 -10.976  18.657  0.00  0.00    -0.291 N 
ATOM     16  C   UNL     1      -8.540 -12.119  18.479  0.00  0.00    +0.135 C 
ATOM     18  C   UNL     1      -9.201 -13.391  18.996  0.00  0.00    +0.185 C 
ATOM     19  C   UNL     1     -10.330 -10.905  19.730  0.00  0.00    +0.242 C 
ATOM     20  C   UNL     1     -10.526 -12.203  20.506  0.00  0.00    +0.255 C 
BRANCH   7  12
ATOM     12  C   UNL     1      -9.260  -9.829  17.778  0.00  0.00    +0.112 C 
BRANCH  12   9
ATOM      9  C   UNL     1      -8.989 -10.279  16.343  0.00  0.00    +0.006 C 
ATOM     10  C   UNL     1     -10.129  -9.840  15.414  0.00  0.00    +0.005 C 
ATOM     11  C   UNL     1      -7.642  -9.734  15.851  0.00  0.00    +0.005 C 
ATOM     13  C   UNL     1      -9.856 -10.231  13.963  0.00  0.00    +0.000 C 
ATOM     14  C   UNL     1      -7.372 -10.125  14.399  0.00  0.00    +0.000 C 
ATOM     15  C   UNL     1      -8.511  -9.695  13.480  0.00  0.00    +0.000 C 
ENDBRANCH  12   9
ENDBRANCH   7  12
ENDBRANCH  17  16
BRANCH  17  21
ATOM     21  C   UNL     1      -6.044 -11.932  18.226  0.00  0.00    -0.017 A 
ATOM     22  C   UNL     1      -6.027 -12.896  17.218  0.00  0.00    +0.008 A 
ATOM     23  C   UNL     1      -4.986 -11.031  18.348  0.00  0.00    +0.008 A 
ATOM     24  C   UNL     1      -4.951 -12.958  16.331  0.00  0.00    +0.025 A 
ATOM     25  C   UNL     1      -3.910 -11.094  17.462  0.00  0.00    +0.025 A 
ATOM     26  C   UNL     1      -3.893 -12.058  16.454  0.00  0.00    +0.048 A 
BRANCH  26   8
ATOM      8  N   UNL     1      -2.793 -12.121  15.546  0.00  0.00    -0.221 N 
ATOM     29  H   UNL     1      -1.902 -12.386  15.988  0.00  0.00    +0.173 HD
BRANCH   8   1
ATOM      1  S   UNL     1      -2.671 -10.911  14.328  0.00  0.00    +0.040 S 
ATOM      5  O   UNL     1      -4.003 -10.410  14.044  0.00  0.00    -0.155 OA
ATOM      6  O   UNL     1      -1.584  -9.994  14.614  0.00  0.00    -0.155 OA
ATOM     27  C   UNL     1      -2.189 -11.911  12.938  0.00  0.00    +0.218 C 
ENDBRANCH   8   1
ENDBRANCH  26   8
ENDBRANCH  17  21
BRANCH  17   3
ATOM      3  O   UNL     1      -7.236 -10.585  19.806  0.00  0.00    -0.385 OA
ATOM     28  H   UNL     1      -6.397 -10.455  20.280  0.00  0.00    +0.210 HD
ENDBRANCH  17   3
TORSDOF 7
ENDMDL
MODEL 7
REMARK VINA RESULT:      -5.8     26.584     29.399
REMARK  Name = 56774637
REMARK  8 active torsions:
REMARK  status: ('A' for Active; 'I' for Inactive)
REMARK    1  A    between atoms: S_1  and  N_8
REMARK    2  A    between atoms: S_1  and  C_27
REMARK    3  A    between atoms: O_3  and  C_17
REMARK    4  A    between atoms: N_7  and  C_12
REMARK    5  A    between atoms: N_8  and  C_26
REMARK    6  A    between atoms: C_9  and  C_12
REMARK    7  A    between atoms: C_16  and  C_17
REMARK    8  A    between atoms: C_17  and  C_21
REMARK                            x       y       z     vdW  Elec       q    Type
REMARK                         _______ _______ _______ _____ _____    ______ ____
ROOT
ATOM     17  C   UNL     1       9.047   6.576   4.790  0.00  0.00    +0.167 C 
ENDROOT
BRANCH  17  16
ATOM      2  O   UNL     1       8.094   7.624   7.359  0.00  0.00    -0.369 OA
ATOM      4  O   UNL     1      10.906   5.747   8.626  0.00  0.00    -0.273 OA
ATOM      7  N   UNL     1      10.690   6.880   6.605  0.00  0.00    -0.291 N 
ATOM     16  C   UNL     1       9.791   7.578   5.677  0.00  0.00    +0.135 C 
ATOM     18  C   UNL     1       8.815   8.452   6.455  0.00  0.00    +0.185 C 
ATOM     19  C   UNL     1      10.266   6.481   7.871  0.00  0.00    +0.242 C 
ATOM     20  C   UNL     1       8.948   7.085   8.342  0.00  0.00    +0.255 C 
BRANCH   7  12
ATOM     12  C   UNL     1      11.985   6.453   6.094  0.00  0.00    +0.112 C 
BRANCH  12   9
ATOM      9  C   UNL     1      12.822   7.654   5.655  0.00  0.00    +0.006 C 
ATOM     10  C   UNL     1      14.091   7.770   6.511  0.00  0.00    +0.005 C 
ATOM     11  C   UNL     1      13.175   7.553   4.166  0.00  0.00    +0.005 C 
ATOM     13  C   UNL     1      14.972   8.932   6.058  0.00  0.00    +0.000 C 
ATOM     14  C   UNL     1      14.058   8.714   3.716  0.00  0.00    +0.000 C 
ATOM     15  C   UNL     1      15.314   8.833   4.573  0.00  0.00    +0.000 C 
ENDBRANCH  12   9
ENDBRANCH   7  12
ENDBRANCH  17  16
BRANCH  17  21
ATOM     21  C   UNL     1       9.726   6.397   3.456  0.00  0.00    -0.017 A 
ATOM     22  C   UNL     1      10.376   5.199   3.159  0.00  0.00    +0.008 A 
ATOM     23  C   UNL     1       9.705   7.430   2.519  0.00  0.00    +0.008 A 
ATOM     24  C   UNL     1      11.005   5.035   1.925  0.00  0.00    +0.025 A 
ATOM     25  C   UNL     1      10.335   7.267   1.285  0.00  0.00    +0.025 A 
ATOM     26  C   UNL     1      10.985   6.068   0.988  0.00  0.00    +0.048 A 
BRANCH  26   8
ATOM      8  N   UNL     1      11.629   5.900  -0.275  0.00  0.00    -0.221 N 
ATOM     29  H   UNL     1      12.155   6.727  -0.588  0.00  0.00    +0.173 HD
BRANCH   8   1
ATOM      1  S   UNL     1      10.780   5.062  -1.516  0.00  0.00    +0.040 S 
ATOM      5  O   UNL     1       9.409   4.864  -1.082  0.00  0.00    -0.155 OA
ATOM      6  O   UNL     1      11.065   5.634  -2.818  0.00  0.00    -0.155 OA
ATOM     27  C   UNL     1      11.582   3.477  -1.430  0.00  0.00    +0.218 C 
ENDBRANCH   8   1
ENDBRANCH  26   8
ENDBRANCH  17  21
BRANCH  17   3
ATOM      3  O   UNL     1       8.973   5.321   5.457  0.00  0.00    -0.385 OA
ATOM     28  H   UNL     1       9.748   5.238   6.040  0.00  0.00    +0.210 HD
ENDBRANCH  17   3
TORSDOF 7
ENDMDL
MODEL 8
REMARK VINA RESULT:      -5.6     22.987     26.186
REMARK  Name = 56774637
REMARK  8 active torsions:
REMARK  status: ('A' for Active; 'I' for Inactive)
REMARK    1  A    between atoms: S_1  and  N_8
REMARK    2  A    between atoms: S_1  and  C_27
REMARK    3  A    between atoms: O_3  and  C_17
REMARK    4  A    between atoms: N_7  and  C_12
REMARK    5  A    between atoms: N_8  and  C_26
REMARK    6  A    between atoms: C_9  and  C_12
REMARK    7  A    between atoms: C_16  and  C_17
REMARK    8  A    between atoms: C_17  and  C_21
REMARK                            x       y       z     vdW  Elec       q    Type
REMARK                         _______ _______ _______ _____ _____    ______ ____
ROOT
ATOM     17  C   UNL     1      -2.036   9.811   4.741  0.00  0.00    +0.167 C 
ENDROOT
BRANCH  17  16
ATOM      2  O   UNL     1      -0.365  12.222   4.801  0.00  0.00    -0.369 OA
ATOM      4  O   UNL     1       1.347  10.525   2.112  0.00  0.00    -0.273 OA
ATOM      7  N   UNL     1      -0.915  10.505   2.655  0.00  0.00    -0.291 N 
ATOM     16  C   UNL     1      -1.949  10.866   3.634  0.00  0.00    +0.135 C 
ATOM     18  C   UNL     1      -1.659  12.245   4.212  0.00  0.00    +0.185 C 
ATOM     19  C   UNL     1       0.404  10.929   2.795  0.00  0.00    +0.242 C 
ATOM     20  C   UNL     1       0.633  12.032   3.823  0.00  0.00    +0.255 C 
BRANCH   7  12
ATOM     12  C   UNL     1      -1.271   9.534   1.628  0.00  0.00    +0.112 C 
BRANCH  12   9
ATOM      9  C   UNL     1      -1.919  10.222   0.427  0.00  0.00    +0.006 C 
ATOM     10  C   UNL     1      -1.240   9.783  -0.878  0.00  0.00    +0.005 C 
ATOM     11  C   UNL     1      -3.425   9.933   0.384  0.00  0.00    +0.005 C 
ATOM     13  C   UNL     1      -1.904  10.416  -2.099  0.00  0.00    +0.000 C 
ATOM     14  C   UNL     1      -4.085  10.565  -0.839  0.00  0.00    +0.000 C 
ATOM     15  C   UNL     1      -3.404  10.134  -2.133  0.00  0.00    +0.000 C 
ENDBRANCH  12   9
ENDBRANCH   7  12
ENDBRANCH  17  16
BRANCH  17  21
ATOM     21  C   UNL     1      -3.281   8.971   4.617  0.00  0.00    -0.017 A 
ATOM     22  C   UNL     1      -3.342   7.721   5.234  0.00  0.00    +0.008 A 
ATOM     23  C   UNL     1      -4.371   9.443   3.886  0.00  0.00    +0.008 A 
ATOM     24  C   UNL     1      -4.495   6.944   5.119  0.00  0.00    +0.025 A 
ATOM     25  C   UNL     1      -5.522   8.665   3.770  0.00  0.00    +0.025 A 
ATOM     26  C   UNL     1      -5.584   7.415   4.386  0.00  0.00    +0.048 A 
BRANCH  26   8
ATOM      8  N   UNL     1      -6.764   6.619   4.268  0.00  0.00    -0.221 N 
ATOM     29  H   UNL     1      -7.053   6.444   3.297  0.00  0.00    +0.173 HD
BRANCH   8   1
ATOM      1  S   UNL     1      -8.052   6.903   5.374  0.00  0.00    +0.040 S 
ATOM      5  O   UNL     1      -8.214   5.722   6.204  0.00  0.00    -0.155 OA
ATOM      6  O   UNL     1      -7.938   8.217   5.977  0.00  0.00    -0.155 OA
ATOM     27  C   UNL     1      -9.430   6.935   4.250  0.00  0.00    +0.218 C 
ENDBRANCH   8   1
ENDBRANCH  26   8
ENDBRANCH  17  21
BRANCH  17   3
ATOM      3  O   UNL     1      -0.888   8.972   4.682  0.00  0.00    -0.385 OA
ATOM     28  H   UNL     1      -0.729   8.608   5.571  0.00  0.00    +0.210 HD
ENDBRANCH  17   3
TORSDOF 7
ENDMDL
MODEL 9
REMARK VINA RESULT:      -5.6      3.029      7.414
REMARK  Name = 56774637
REMARK  8 active torsions:
REMARK  status: ('A' for Active; 'I' for Inactive)
REMARK    1  A    between atoms: S_1  and  N_8
REMARK    2  A    between atoms: S_1  and  C_27
REMARK    3  A    between atoms: O_3  and  C_17
REMARK    4  A    between atoms: N_7  and  C_12
REMARK    5  A    between atoms: N_8  and  C_26
REMARK    6  A    between atoms: C_9  and  C_12
REMARK    7  A    between atoms: C_16  and  C_17
REMARK    8  A    between atoms: C_17  and  C_21
REMARK                            x       y       z     vdW  Elec       q    Type
REMARK                         _______ _______ _______ _____ _____    ______ ____
ROOT
ATOM     17  C   UNL     1      -5.026 -11.980  13.567  0.00  0.00    +0.167 C 
ENDROOT
BRANCH  17  16
ATOM      2  O   UNL     1      -2.604 -13.632  13.438  0.00  0.00    -0.369 OA
ATOM      4  O   UNL     1      -1.130 -10.752  15.042  0.00  0.00    -0.273 OA
ATOM      7  N   UNL     1      -3.277 -11.619  15.270  0.00  0.00    -0.291 N 
ATOM     16  C   UNL     1      -4.280 -12.568  14.769  0.00  0.00    +0.135 C 
ATOM     18  C   UNL     1      -3.613 -13.889  14.408  0.00  0.00    +0.185 C 
ATOM     19  C   UNL     1      -1.968 -11.621  14.794  0.00  0.00    +0.242 C 
ATOM     20  C   UNL     1      -1.567 -12.848  13.983  0.00  0.00    +0.255 C 
BRANCH   7  12
ATOM     12  C   UNL     1      -3.740 -10.552  16.147  0.00  0.00    +0.112 C 
BRANCH  12   9
ATOM      9  C   UNL     1      -4.802 -11.066  17.119  0.00  0.00    +0.006 C 
ATOM     10  C   UNL     1      -4.163 -11.454  18.460  0.00  0.00    +0.005 C 
ATOM     11  C   UNL     1      -5.903 -10.017  17.321  0.00  0.00    +0.005 C 
ATOM     13  C   UNL     1      -5.212 -11.921  19.468  0.00  0.00    +0.000 C 
ATOM     14  C   UNL     1      -6.948 -10.486  18.331  0.00  0.00    +0.000 C 
ATOM     15  C   UNL     1      -6.311 -10.880  19.659  0.00  0.00    +0.000 C 
ENDBRANCH  12   9
ENDBRANCH   7  12
ENDBRANCH  17  16
BRANCH  17  21
ATOM     21  C   UNL     1      -6.374 -11.433  13.958  0.00  0.00    -0.017 A 
ATOM     22  C   UNL     1      -6.723 -10.126  13.615  0.00  0.00    +0.008 A 
ATOM     23  C   UNL     1      -7.274 -12.232  14.663  0.00  0.00    +0.008 A 
ATOM     24  C   UNL     1      -7.971  -9.619  13.979  0.00  0.00    +0.025 A 
ATOM     25  C   UNL     1      -8.521 -11.725  15.027  0.00  0.00    +0.025 A 
ATOM     26  C   UNL     1      -8.870 -10.418  14.685  0.00  0.00    +0.048 A 
BRANCH  26   8
ATOM      8  N   UNL     1     -10.147  -9.900  15.056  0.00  0.00    -0.221 N 
ATOM     29  H   UNL     1     -10.614  -9.367  14.310  0.00  0.00    +0.173 HD
BRANCH   8   1
ATOM      1  S   UNL     1     -10.334  -9.253  16.641  0.00  0.00    +0.040 S 
ATOM      5  O   UNL     1     -10.593 -10.349  17.556  0.00  0.00    -0.155 OA
ATOM      6  O   UNL     1      -9.296  -8.281  16.930  0.00  0.00    -0.155 OA
ATOM     27  C   UNL     1     -11.866  -8.373  16.442  0.00  0.00    +0.218 C 
ENDBRANCH   8   1
ENDBRANCH  26   8
ENDBRANCH  17  21
BRANCH  17   3
ATOM      3  O   UNL     1      -4.242 -10.944  12.987  0.00  0.00    -0.385 OA
ATOM     28  H   UNL     1      -3.380 -11.318  12.735  0.00  0.00    +0.210 HD
ENDBRANCH  17   3
TORSDOF 7
ENDMDL
MODEL 10
REMARK VINA RESULT:      -5.6      3.376      5.467
REMARK  Name = 56774637
REMARK  8 active torsions:
REMARK  status: ('A' for Active; 'I' for Inactive)
REMARK    1  A    between atoms: S_1  and  N_8
REMARK    2  A    between atoms: S_1  and  C_27
REMARK    3  A    between atoms: O_3  and  C_17
REMARK    4  A    between atoms: N_7  and  C_12
REMARK    5  A    between atoms: N_8  and  C_26
REMARK    6  A    between atoms: C_9  and  C_12
REMARK    7  A    between atoms: C_16  and  C_17
REMARK    8  A    between atoms: C_17  and  C_21
REMARK                            x       y       z     vdW  Elec       q    Type
REMARK                         _______ _______ _______ _____ _____    ______ ____
ROOT
ATOM     17  C   UNL     1     -10.088  -8.069  15.236  0.00  0.00    +0.167 C 
ENDROOT
BRANCH  17  16
ATOM      2  O   UNL     1     -11.741  -5.685  14.796  0.00  0.00    -0.369 OA
ATOM      4  O   UNL     1     -14.402  -8.126  14.739  0.00  0.00    -0.273 OA
ATOM      7  N   UNL     1     -12.438  -8.126  15.986  0.00  0.00    -0.291 N 
ATOM     16  C   UNL     1     -11.125  -7.508  16.213  0.00  0.00    +0.135 C 
ATOM     18  C   UNL     1     -11.234  -5.993  16.088  0.00  0.00    +0.185 C 
ATOM     19  C   UNL     1     -13.363  -7.573  15.103  0.00  0.00    +0.242 C 
ATOM     20  C   UNL     1     -13.064  -6.148  14.648  0.00  0.00    +0.255 C 
BRANCH   7  12
ATOM     12  C   UNL     1     -12.674  -9.438  16.573  0.00  0.00    +0.112 C 
BRANCH  12   9
ATOM      9  C   UNL     1     -12.479  -9.402  18.088  0.00  0.00    +0.006 C 
ATOM     10  C   UNL     1     -13.817  -9.609  18.810  0.00  0.00    +0.005 C 
ATOM     11  C   UNL     1     -11.452 -10.454  18.527  0.00  0.00    +0.005 C 
ATOM     13  C   UNL     1     -13.640  -9.631  20.327  0.00  0.00    +0.000 C 
ATOM     14  C   UNL     1     -11.279 -10.475  20.043  0.00  0.00    +0.000 C 
ATOM     15  C   UNL     1     -12.612 -10.672  20.759  0.00  0.00    +0.000 C 
ENDBRANCH  12   9
ENDBRANCH   7  12
ENDBRANCH  17  16
BRANCH  17  21
ATOM     21  C   UNL     1      -9.146  -9.032  15.911  0.00  0.00    -0.017 A 
ATOM     22  C   UNL     1      -8.809 -10.232  15.285  0.00  0.00    +0.008 A 
ATOM     23  C   UNL     1      -8.612  -8.724  17.162  0.00  0.00    +0.008 A 
ATOM     24  C   UNL     1      -7.937 -11.124  15.911  0.00  0.00    +0.025 A 
ATOM     25  C   UNL     1      -7.741  -9.616  17.788  0.00  0.00    +0.025 A 
ATOM     26  C   UNL     1      -7.404 -10.816  17.163  0.00  0.00    +0.048 A 
BRANCH  26   8
ATOM      8  N   UNL     1      -6.512 -11.729  17.803  0.00  0.00    -0.221 N 
ATOM     29  H   UNL     1      -6.723 -11.890  18.797  0.00  0.00    +0.173 HD
BRANCH   8   1
ATOM      1  S   UNL     1      -4.837 -11.636  17.418  0.00  0.00    +0.040 S 
ATOM      5  O   UNL     1      -4.507 -12.739  16.535  0.00  0.00    -0.155 OA
ATOM      6  O   UNL     1      -4.458 -10.278  17.075  0.00  0.00    -0.155 OA
ATOM     27  C   UNL     1      -4.129 -12.016  19.005  0.00  0.00    +0.218 C 
ENDBRANCH   8   1
ENDBRANCH  26   8
ENDBRANCH  17  21
BRANCH  17   3
ATOM      3  O   UNL     1     -10.757  -8.729  14.167  0.00  0.00    -0.385 OA
ATOM     28  H   UNL     1     -10.733  -8.148  13.386  0.00  0.00    +0.210 HD
ENDBRANCH  17   3
TORSDOF 7
ENDMDL
