MODEL 1
REMARK VINA RESULT:      -6.3      0.000      0.000
REMARK  Name = 40777017
REMARK  10 active torsions:
REMARK  status: ('A' for Active; 'I' for Inactive)
REMARK    1  A    between atoms: O_2  and  C_30
REMARK    2  A    between atoms: N_5  and  C_15
REMARK    3  A    between atoms: C_9  and  C_16
REMARK    4  A    between atoms: C_10  and  C_15
REMARK    5  A    between atoms: C_18  and  C_19
REMARK    6  A    between atoms: C_24  and  C_27
REMARK    7  A    between atoms: C_25  and  C_26
REMARK    8  A    between atoms: C_26  and  C_28
REMARK    9  A    between atoms: C_28  and  C_29
REMARK   10  A    between atoms: C_29  and  C_30
REMARK                            x       y       z     vdW  Elec       q    Type
REMARK                         _______ _______ _______ _____ _____    ______ ____
ROOT
ATOM      4  N   UNL     1      -7.505 -11.620  17.776  0.00  0.00    -0.297 NA
ATOM      8  C   UNL     1      -5.065 -11.029  18.468  0.00  0.00    +0.002 C 
ATOM      9  C   UNL     1      -5.412 -10.385  17.097  0.00  0.00    +0.055 C 
ATOM     10  C   UNL     1      -6.775 -12.854  18.171  0.00  0.00    +0.074 C 
ATOM     11  C   UNL     1      -5.276 -12.555  18.383  0.00  0.00    +0.024 C 
ATOM     12  C   UNL     1      -6.088 -10.485  19.488  0.00  0.00    +0.019 C 
ATOM     13  C   UNL     1      -6.797 -10.945  16.660  0.00  0.00    +0.094 C 
ATOM     14  C   UNL     1      -7.511 -10.704  18.942  0.00  0.00    +0.085 C 
ENDROOT
BRANCH   9  16
ATOM      6  N   UNL     1      -3.083 -10.477  16.355  0.00  0.00    -0.237 NA
ATOM      7  N   UNL     1      -2.483 -10.612  14.025  0.00  0.00    -0.237 NA
ATOM     16  C   UNL     1      -4.379 -10.467  15.982  0.00  0.00    +0.050 A 
ATOM     17  C   UNL     1      -4.800 -10.526  14.669  0.00  0.00    +0.047 A 
ATOM     19  C   UNL     1      -3.797 -10.597  13.724  0.00  0.00    +0.048 A 
ATOM     24  C   UNL     1      -2.200 -10.549  15.340  0.00  0.00    +0.127 A 
ATOM     27  C   UNL     1      -0.756 -10.565  15.713  0.00  0.00    +0.088 C 
BRANCH  19  18
ATOM     18  C   UNL     1      -4.159 -10.663  12.257  0.00  0.00    +0.038 C 
ATOM     20  C   UNL     1      -5.016  -9.466  11.807  0.00  0.00    +0.010 C 
ATOM     21  C   UNL     1      -2.949 -10.691  11.301  0.00  0.00    +0.010 C 
ATOM     22  C   UNL     1      -4.558  -9.174  10.386  0.00  0.00    +0.001 C 
ATOM     23  C   UNL     1      -3.063  -9.432  10.449  0.00  0.00    +0.001 C 
ENDBRANCH  19  18
ENDBRANCH   9  16
BRANCH  10  15
ATOM     15  C   UNL     1      -6.993 -14.000  17.180  0.00  0.00    +0.123 C 
BRANCH  15   5
ATOM      1  O   UNL     1      -5.773 -16.548  16.668  0.00  0.00    -0.276 OA
ATOM      5  N   UNL     1      -5.812 -14.240  16.410  0.00  0.00    -0.314 N 
ATOM     25  C   UNL     1      -5.286 -15.517  16.211  0.00  0.00    +0.213 C 
ATOM     31  H   UNL     1      -5.337 -13.442  15.998  0.00  0.00    +0.149 HD
BRANCH  25  26
ATOM     26  C   UNL     1      -4.014 -15.489  15.381  0.00  0.00    +0.096 C 
BRANCH  26  28
ATOM     28  C   UNL     1      -3.693 -14.116  14.793  0.00  0.00    +0.020 C 
BRANCH  28  29
ATOM     29  C   UNL     1      -3.084 -14.209  13.394  0.00  0.00    +0.121 C 
BRANCH  29  30
ATOM      3  O   UNL     1      -0.935 -15.320  13.672  0.00  0.00    -0.251 OA
ATOM     30  C   UNL     1      -1.576 -14.304  13.442  0.00  0.00    +0.305 C 
BRANCH  30   2
ATOM      2  O   UNL     1      -0.995 -13.100  13.192  0.00  0.00    -0.481 OA
ATOM     32  H   UNL     1      -0.118 -13.021  13.624  0.00  0.00    +0.295 HD
ENDBRANCH  30   2
ENDBRANCH  29  30
ENDBRANCH  28  29
ENDBRANCH  26  28
ENDBRANCH  25  26
ENDBRANCH  15   5
ENDBRANCH  10  15
TORSDOF 9
ENDMDL
MODEL 2
REMARK VINA RESULT:      -6.0     23.538     27.338
REMARK  Name = 40777017
REMARK  10 active torsions:
REMARK  status: ('A' for Active; 'I' for Inactive)
REMARK    1  A    between atoms: O_2  and  C_30
REMARK    2  A    between atoms: N_5  and  C_15
REMARK    3  A    between atoms: C_9  and  C_16
REMARK    4  A    between atoms: C_10  and  C_15
REMARK    5  A    between atoms: C_18  and  C_19
REMARK    6  A    between atoms: C_24  and  C_27
REMARK    7  A    between atoms: C_25  and  C_26
REMARK    8  A    between atoms: C_26  and  C_28
REMARK    9  A    between atoms: C_28  and  C_29
REMARK   10  A    between atoms: C_29  and  C_30
REMARK                            x       y       z     vdW  Elec       q    Type
REMARK                         _______ _______ _______ _____ _____    ______ ____
ROOT
ATOM      4  N   UNL     1      13.765  10.047   5.852  0.00  0.00    -0.297 NA
ATOM      8  C   UNL     1      14.122   7.484   5.558  0.00  0.00    +0.002 C 
ATOM      9  C   UNL     1      13.459   8.089   4.291  0.00  0.00    +0.055 C 
ATOM     10  C   UNL     1      13.234   9.321   7.036  0.00  0.00    +0.074 C 
ATOM     11  C   UNL     1      13.248   7.797   6.790  0.00  0.00    +0.024 C 
ATOM     12  C   UNL     1      15.464   8.222   5.755  0.00  0.00    +0.019 C 
ATOM     13  C   UNL     1      13.096   9.566   4.618  0.00  0.00    +0.094 C 
ATOM     14  C   UNL     1      15.212   9.741   5.743  0.00  0.00    +0.085 C 
ENDROOT
BRANCH   9  16
ATOM      6  N   UNL     1      11.056   7.753   3.983  0.00  0.00    -0.237 NA
ATOM      7  N   UNL     1      10.175   6.022   2.557  0.00  0.00    -0.237 NA
ATOM     16  C   UNL     1      12.297   7.336   3.659  0.00  0.00    +0.050 A 
ATOM     17  C   UNL     1      12.554   6.284   2.803  0.00  0.00    +0.047 A 
ATOM     19  C   UNL     1      11.443   5.658   2.277  0.00  0.00    +0.048 A 
ATOM     24  C   UNL     1      10.055   7.061   3.405  0.00  0.00    +0.127 A 
ATOM     27  C   UNL     1       8.667   7.493   3.736  0.00  0.00    +0.088 C 
BRANCH  19  18
ATOM     18  C   UNL     1      11.622   4.492   1.330  0.00  0.00    +0.038 C 
ATOM     20  C   UNL     1      12.254   4.912  -0.009  0.00  0.00    +0.010 C 
ATOM     21  C   UNL     1      12.515   3.358   1.875  0.00  0.00    +0.010 C 
ATOM     22  C   UNL     1      13.139   3.739  -0.404  0.00  0.00    +0.001 C 
ATOM     23  C   UNL     1      13.706   3.274   0.926  0.00  0.00    +0.001 C 
ENDBRANCH  19  18
ENDBRANCH   9  16
BRANCH  10  15
ATOM     15  C   UNL     1      11.848   9.819   7.451  0.00  0.00    +0.123 C 
BRANCH  15   5
ATOM      1  O   UNL     1       9.197   9.716   8.548  0.00  0.00    -0.276 OA
ATOM      5  N   UNL     1      10.848   8.836   7.171  0.00  0.00    -0.314 N 
ATOM     25  C   UNL     1       9.580   8.862   7.752  0.00  0.00    +0.213 C 
ATOM     31  H   UNL     1      11.079   8.085   6.527  0.00  0.00    +0.149 HD
BRANCH  25  26
ATOM     26  C   UNL     1       8.722   7.690   7.308  0.00  0.00    +0.096 C 
BRANCH  26  28
ATOM     28  C   UNL     1       9.335   6.326   7.621  0.00  0.00    +0.020 C 
BRANCH  28  29
ATOM     29  C   UNL     1       8.999   5.846   9.034  0.00  0.00    +0.121 C 
BRANCH  29  30
ATOM      3  O   UNL     1      10.208   4.450  10.622  0.00  0.00    -0.251 OA
ATOM     30  C   UNL     1       9.892   4.706   9.468  0.00  0.00    +0.305 C 
BRANCH  30   2
ATOM      2  O   UNL     1      10.315   3.974   8.403  0.00  0.00    -0.481 OA
ATOM     32  H   UNL     1       9.663   3.288   8.149  0.00  0.00    +0.295 HD
ENDBRANCH  30   2
ENDBRANCH  29  30
ENDBRANCH  28  29
ENDBRANCH  26  28
ENDBRANCH  25  26
ENDBRANCH  15   5
ENDBRANCH  10  15
TORSDOF 9
ENDMDL
MODEL 3
REMARK VINA RESULT:      -5.8      5.238      9.120
REMARK  Name = 40777017
REMARK  10 active torsions:
REMARK  status: ('A' for Active; 'I' for Inactive)
REMARK    1  A    between atoms: O_2  and  C_30
REMARK    2  A    between atoms: N_5  and  C_15
REMARK    3  A    between atoms: C_9  and  C_16
REMARK    4  A    between atoms: C_10  and  C_15
REMARK    5  A    between atoms: C_18  and  C_19
REMARK    6  A    between atoms: C_24  and  C_27
REMARK    7  A    between atoms: C_25  and  C_26
REMARK    8  A    between atoms: C_26  and  C_28
REMARK    9  A    between atoms: C_28  and  C_29
REMARK   10  A    between atoms: C_29  and  C_30
REMARK                            x       y       z     vdW  Elec       q    Type
REMARK                         _______ _______ _______ _____ _____    ______ ____
ROOT
ATOM      4  N   UNL     1      -5.695 -11.876  17.098  0.00  0.00    -0.297 NA
ATOM      8  C   UNL     1      -6.037 -11.323  19.620  0.00  0.00    +0.002 C 
ATOM      9  C   UNL     1      -7.001 -12.457  19.177  0.00  0.00    +0.055 C 
ATOM     10  C   UNL     1      -5.857 -10.409  17.280  0.00  0.00    +0.074 C 
ATOM     11  C   UNL     1      -6.267 -10.082  18.732  0.00  0.00    +0.024 C 
ATOM     12  C   UNL     1      -4.603 -11.821  19.342  0.00  0.00    +0.019 C 
ATOM     13  C   UNL     1      -6.882 -12.589  17.631  0.00  0.00    +0.094 C 
ATOM     14  C   UNL     1      -4.509 -12.301  17.882  0.00  0.00    +0.085 C 
ENDROOT
BRANCH   9  16
ATOM      6  N   UNL     1      -8.917 -13.458  20.323  0.00  0.00    -0.237 NA
ATOM      7  N   UNL     1     -11.041 -12.332  20.495  0.00  0.00    -0.237 NA
ATOM     16  C   UNL     1      -8.449 -12.392  19.640  0.00  0.00    +0.050 A 
ATOM     17  C   UNL     1      -9.206 -11.275  19.349  0.00  0.00    +0.047 A 
ATOM     19  C   UNL     1     -10.508 -11.302  19.807  0.00  0.00    +0.048 A 
ATOM     24  C   UNL     1     -10.202 -13.362  20.714  0.00  0.00    +0.127 A 
ATOM     27  C   UNL     1     -10.755 -14.520  21.475  0.00  0.00    +0.088 C 
BRANCH  19  18
ATOM     18  C   UNL     1     -11.417 -10.123  19.535  0.00  0.00    +0.038 C 
ATOM     20  C   UNL     1     -12.320 -10.346  18.309  0.00  0.00    +0.010 C 
ATOM     21  C   UNL     1     -12.370  -9.770  20.695  0.00  0.00    +0.010 C 
ATOM     22  C   UNL     1     -13.632  -9.663  18.665  0.00  0.00    +0.001 C 
ATOM     23  C   UNL     1     -13.780  -9.958  20.148  0.00  0.00    +0.001 C 
ENDBRANCH  19  18
ENDBRANCH   9  16
BRANCH  10  15
ATOM     15  C   UNL     1      -6.827  -9.802  16.264  0.00  0.00    +0.123 C 
BRANCH  15   5
ATOM      1  O   UNL     1      -9.601  -9.460  15.607  0.00  0.00    -0.276 OA
ATOM      5  N   UNL     1      -7.752  -8.919  16.905  0.00  0.00    -0.314 N 
ATOM     25  C   UNL     1      -9.089  -8.816  16.520  0.00  0.00    +0.213 C 
ATOM     31  H   UNL     1      -7.413  -8.341  17.669  0.00  0.00    +0.149 HD
BRANCH  25  26
ATOM     26  C   UNL     1      -9.845  -7.788  17.343  0.00  0.00    +0.096 C 
BRANCH  26  28
ATOM     28  C   UNL     1     -11.097  -7.249  16.655  0.00  0.00    +0.020 C 
BRANCH  28  29
ATOM     29  C   UNL     1     -10.781  -6.123  15.668  0.00  0.00    +0.121 C 
BRANCH  29  30
ATOM      3  O   UNL     1     -11.957  -5.156  13.768  0.00  0.00    -0.251 OA
ATOM     30  C   UNL     1     -11.987  -5.749  14.837  0.00  0.00    +0.305 C 
BRANCH  30   2
ATOM      2  O   UNL     1     -13.142  -6.158  15.426  0.00  0.00    -0.481 OA
ATOM     32  H   UNL     1     -12.982  -6.852  16.101  0.00  0.00    +0.295 HD
ENDBRANCH  30   2
ENDBRANCH  29  30
ENDBRANCH  28  29
ENDBRANCH  26  28
ENDBRANCH  25  26
ENDBRANCH  15   5
ENDBRANCH  10  15
TORSDOF 9
ENDMDL
MODEL 4
REMARK VINA RESULT:      -5.6     24.277     26.877
REMARK  Name = 40777017
REMARK  10 active torsions:
REMARK  status: ('A' for Active; 'I' for Inactive)
REMARK    1  A    between atoms: O_2  and  C_30
REMARK    2  A    between atoms: N_5  and  C_15
REMARK    3  A    between atoms: C_9  and  C_16
REMARK    4  A    between atoms: C_10  and  C_15
REMARK    5  A    between atoms: C_18  and  C_19
REMARK    6  A    between atoms: C_24  and  C_27
REMARK    7  A    between atoms: C_25  and  C_26
REMARK    8  A    between atoms: C_26  and  C_28
REMARK    9  A    between atoms: C_28  and  C_29
REMARK   10  A    between atoms: C_29  and  C_30
REMARK                            x       y       z     vdW  Elec       q    Type
REMARK                         _______ _______ _______ _____ _____    ______ ____
ROOT
ATOM      4  N   UNL     1      10.056   7.281   7.392  0.00  0.00    -0.297 NA
ATOM      8  C   UNL     1       9.560   5.157   5.969  0.00  0.00    +0.002 C 
ATOM      9  C   UNL     1      10.867   5.843   5.485  0.00  0.00    +0.055 C 
ATOM     10  C   UNL     1       8.649   7.308   6.912  0.00  0.00    +0.074 C 
ATOM     11  C   UNL     1       8.397   6.169   5.900  0.00  0.00    +0.024 C 
ATOM     12  C   UNL     1       9.767   4.804   7.457  0.00  0.00    +0.019 C 
ATOM     13  C   UNL     1      10.986   7.199   6.238  0.00  0.00    +0.094 C 
ATOM     14  C   UNL     1      10.231   6.061   8.216  0.00  0.00    +0.085 C 
ENDROOT
BRANCH   9  16
ATOM      6  N   UNL     1      11.130   7.254   3.504  0.00  0.00    -0.237 NA
ATOM      7  N   UNL     1      11.474   6.329   1.306  0.00  0.00    -0.237 NA
ATOM     16  C   UNL     1      11.086   5.995   3.986  0.00  0.00    +0.050 A 
ATOM     17  C   UNL     1      11.226   4.867   3.202  0.00  0.00    +0.047 A 
ATOM     19  C   UNL     1      11.420   5.099   1.855  0.00  0.00    +0.048 A 
ATOM     24  C   UNL     1      11.324   7.346   2.174  0.00  0.00    +0.127 A 
ATOM     27  C   UNL     1      11.381   8.723   1.603  0.00  0.00    +0.088 C 
BRANCH  19  18
ATOM     18  C   UNL     1      11.581   3.926   0.914  0.00  0.00    +0.038 C 
ATOM     20  C   UNL     1      11.254   4.291  -0.545  0.00  0.00    +0.010 C 
ATOM     21  C   UNL     1      12.999   3.320   0.884  0.00  0.00    +0.010 C 
ATOM     22  C   UNL     1      12.230   3.473  -1.377  0.00  0.00    +0.001 C 
ATOM     23  C   UNL     1      13.500   3.504  -0.544  0.00  0.00    +0.001 C 
ENDBRANCH  19  18
ENDBRANCH   9  16
BRANCH  10  15
ATOM     15  C   UNL     1       8.254   8.673   6.343  0.00  0.00    +0.123 C 
BRANCH  15   5
ATOM      1  O   UNL     1       9.119  10.291   4.136  0.00  0.00    -0.276 OA
ATOM      5  N   UNL     1       7.829   8.555   4.983  0.00  0.00    -0.314 N 
ATOM     25  C   UNL     1       8.303   9.388   3.969  0.00  0.00    +0.213 C 
ATOM     31  H   UNL     1       7.147   7.837   4.753  0.00  0.00    +0.149 HD
BRANCH  25  26
ATOM     26  C   UNL     1       7.671   9.070   2.625  0.00  0.00    +0.096 C 
BRANCH  26  28
ATOM     28  C   UNL     1       6.315   9.740   2.409  0.00  0.00    +0.020 C 
BRANCH  28  29
ATOM     29  C   UNL     1       5.833   9.630   0.962  0.00  0.00    +0.121 C 
BRANCH  29  30
ATOM      3  O   UNL     1       3.674   9.523  -0.159  0.00  0.00    -0.251 OA
ATOM     30  C   UNL     1       4.327   9.541   0.876  0.00  0.00    +0.305 C 
BRANCH  30   2
ATOM      2  O   UNL     1       3.762   9.479   2.111  0.00  0.00    -0.481 OA
ATOM     32  H   UNL     1       3.753   8.564   2.463  0.00  0.00    +0.295 HD
ENDBRANCH  30   2
ENDBRANCH  29  30
ENDBRANCH  28  29
ENDBRANCH  26  28
ENDBRANCH  25  26
ENDBRANCH  15   5
ENDBRANCH  10  15
TORSDOF 9
ENDMDL
MODEL 5
REMARK VINA RESULT:      -5.5      3.563      6.231
REMARK  Name = 40777017
REMARK  10 active torsions:
REMARK  status: ('A' for Active; 'I' for Inactive)
REMARK    1  A    between atoms: O_2  and  C_30
REMARK    2  A    between atoms: N_5  and  C_15
REMARK    3  A    between atoms: C_9  and  C_16
REMARK    4  A    between atoms: C_10  and  C_15
REMARK    5  A    between atoms: C_18  and  C_19
REMARK    6  A    between atoms: C_24  and  C_27
REMARK    7  A    between atoms: C_25  and  C_26
REMARK    8  A    between atoms: C_26  and  C_28
REMARK    9  A    between atoms: C_28  and  C_29
REMARK   10  A    between atoms: C_29  and  C_30
REMARK                            x       y       z     vdW  Elec       q    Type
REMARK                         _______ _______ _______ _____ _____    ______ ____
ROOT
ATOM      4  N   UNL     1      -5.065 -12.977  16.880  0.00  0.00    -0.297 NA
ATOM      8  C   UNL     1      -5.245 -10.436  17.424  0.00  0.00    +0.002 C 
ATOM      9  C   UNL     1      -6.655 -11.042  17.191  0.00  0.00    +0.055 C 
ATOM     10  C   UNL     1      -4.129 -12.205  16.020  0.00  0.00    +0.074 C 
ATOM     11  C   UNL     1      -4.368 -10.688  16.180  0.00  0.00    +0.024 C 
ATOM     12  C   UNL     1      -4.610 -11.220  18.593  0.00  0.00    +0.019 C 
ATOM     13  C   UNL     1      -6.455 -12.497  16.677  0.00  0.00    +0.094 C 
ATOM     14  C   UNL     1      -4.692 -12.728  18.294  0.00  0.00    +0.085 C 
ENDROOT
BRANCH   9  16
ATOM      6  N   UNL     1      -7.637 -10.519  15.012  0.00  0.00    -0.237 NA
ATOM      7  N   UNL     1      -9.388  -8.884  14.753  0.00  0.00    -0.237 NA
ATOM     16  C   UNL     1      -7.641 -10.260  16.336  0.00  0.00    +0.050 A 
ATOM     17  C   UNL     1      -8.478  -9.339  16.934  0.00  0.00    +0.047 A 
ATOM     19  C   UNL     1      -9.339  -8.675  16.084  0.00  0.00    +0.048 A 
ATOM     24  C   UNL     1      -8.522  -9.805  14.290  0.00  0.00    +0.127 A 
ATOM     27  C   UNL     1      -8.549 -10.066  12.822  0.00  0.00    +0.088 C 
BRANCH  19  18
ATOM     18  C   UNL     1     -10.293  -7.645  16.646  0.00  0.00    +0.038 C 
ATOM     20  C   UNL     1     -10.489  -6.445  15.703  0.00  0.00    +0.010 C 
ATOM     21  C   UNL     1     -11.710  -8.179  16.940  0.00  0.00    +0.010 C 
ATOM     22  C   UNL     1     -11.947  -6.047  15.879  0.00  0.00    +0.001 C 
ATOM     23  C   UNL     1     -12.649  -7.384  16.040  0.00  0.00    +0.001 C 
ENDBRANCH  19  18
ENDBRANCH   9  16
BRANCH  10  15
ATOM     15  C   UNL     1      -4.191 -12.641  14.555  0.00  0.00    +0.123 C 
BRANCH  15   5
ATOM      1  O   UNL     1      -1.846 -12.630  12.900  0.00  0.00    -0.276 OA
ATOM      5  N   UNL     1      -3.764 -11.585  13.690  0.00  0.00    -0.314 N 
ATOM     25  C   UNL     1      -2.605 -11.664  12.917  0.00  0.00    +0.213 C 
ATOM     31  H   UNL     1      -4.329 -10.742  13.646  0.00  0.00    +0.149 HD
BRANCH  25  26
ATOM     26  C   UNL     1      -2.367 -10.399  12.112  0.00  0.00    +0.096 C 
BRANCH  26  28
ATOM     28  C   UNL     1      -3.600  -9.910  11.355  0.00  0.00    +0.020 C 
BRANCH  28  29
ATOM     29  C   UNL     1      -3.238  -9.160  10.072  0.00  0.00    +0.121 C 
BRANCH  29  30
ATOM      3  O   UNL     1      -4.562 -10.074   8.244  0.00  0.00    -0.251 OA
ATOM     30  C   UNL     1      -4.366  -9.190   9.066  0.00  0.00    +0.305 C 
BRANCH  30   2
ATOM      2  O   UNL     1      -5.163  -8.094   9.182  0.00  0.00    -0.481 OA
ATOM     32  H   UNL     1      -4.640  -7.266   9.237  0.00  0.00    +0.295 HD
ENDBRANCH  30   2
ENDBRANCH  29  30
ENDBRANCH  28  29
ENDBRANCH  26  28
ENDBRANCH  25  26
ENDBRANCH  15   5
ENDBRANCH  10  15
TORSDOF 9
ENDMDL
MODEL 6
REMARK VINA RESULT:      -5.5     24.389     27.091
REMARK  Name = 40777017
REMARK  10 active torsions:
REMARK  status: ('A' for Active; 'I' for Inactive)
REMARK    1  A    between atoms: O_2  and  C_30
REMARK    2  A    between atoms: N_5  and  C_15
REMARK    3  A    between atoms: C_9  and  C_16
REMARK    4  A    between atoms: C_10  and  C_15
REMARK    5  A    between atoms: C_18  and  C_19
REMARK    6  A    between atoms: C_24  and  C_27
REMARK    7  A    between atoms: C_25  and  C_26
REMARK    8  A    between atoms: C_26  and  C_28
REMARK    9  A    between atoms: C_28  and  C_29
REMARK   10  A    between atoms: C_29  and  C_30
REMARK                            x       y       z     vdW  Elec       q    Type
REMARK                         _______ _______ _______ _____ _____    ______ ____
ROOT
ATOM      4  N   UNL     1      10.900   7.062   7.613  0.00  0.00    -0.297 NA
ATOM      8  C   UNL     1       9.233   5.457   6.417  0.00  0.00    +0.002 C 
ATOM      9  C   UNL     1      10.566   5.544   5.626  0.00  0.00    +0.055 C 
ATOM     10  C   UNL     1       9.576   7.723   7.463  0.00  0.00    +0.074 C 
ATOM     11  C   UNL     1       8.641   6.873   6.576  0.00  0.00    +0.024 C 
ATOM     12  C   UNL     1       9.587   4.951   7.833  0.00  0.00    +0.019 C 
ATOM     13  C   UNL     1      11.423   6.664   6.283  0.00  0.00    +0.094 C 
ATOM     14  C   UNL     1      10.703   5.834   8.420  0.00  0.00    +0.085 C 
ENDROOT
BRANCH   9  16
ATOM      6  N   UNL     1       9.888   6.791   3.633  0.00  0.00    -0.237 NA
ATOM      7  N   UNL     1      10.337   5.992   1.405  0.00  0.00    -0.237 NA
ATOM     16  C   UNL     1      10.495   5.685   4.112  0.00  0.00    +0.050 A 
ATOM     17  C   UNL     1      11.040   4.701   3.311  0.00  0.00    +0.047 A 
ATOM     19  C   UNL     1      10.930   4.911   1.952  0.00  0.00    +0.048 A 
ATOM     24  C   UNL     1       9.845   6.879   2.290  0.00  0.00    +0.127 A 
ATOM     27  C   UNL     1       9.184   8.089   1.722  0.00  0.00    +0.088 C 
BRANCH  19  18
ATOM     18  C   UNL     1      11.494   3.887   0.992  0.00  0.00    +0.038 C 
ATOM     20  C   UNL     1      11.805   4.484  -0.391  0.00  0.00    +0.010 C 
ATOM     21  C   UNL     1      12.805   3.223   1.463  0.00  0.00    +0.010 C 
ATOM     22  C   UNL     1      13.056   3.753  -0.857  0.00  0.00    +0.001 C 
ATOM     23  C   UNL     1      13.856   3.595   0.424  0.00  0.00    +0.001 C 
ENDBRANCH  19  18
ENDBRANCH   9  16
BRANCH  10  15
ATOM     15  C   UNL     1       9.698   9.159   6.948  0.00  0.00    +0.123 C 
BRANCH  15   5
ATOM      1  O   UNL     1      12.258  10.173   7.759  0.00  0.00    -0.276 OA
ATOM      5  N   UNL     1       9.953  10.066   8.024  0.00  0.00    -0.314 N 
ATOM     25  C   UNL     1      11.235  10.509   8.350  0.00  0.00    +0.213 C 
ATOM     31  H   UNL     1       9.164  10.392   8.575  0.00  0.00    +0.149 HD
BRANCH  25  26
ATOM     26  C   UNL     1      11.231  11.442   9.549  0.00  0.00    +0.096 C 
BRANCH  26  28
ATOM     28  C   UNL     1       9.832  11.776  10.064  0.00  0.00    +0.020 C 
BRANCH  28  29
ATOM     29  C   UNL     1       9.779  11.871  11.589  0.00  0.00    +0.121 C 
BRANCH  29  30
ATOM      3  O   UNL     1       7.733  13.170  11.355  0.00  0.00    -0.251 OA
ATOM     30  C   UNL     1       8.526  12.569  12.066  0.00  0.00    +0.305 C 
BRANCH  30   2
ATOM      2  O   UNL     1       8.373  12.450  13.412  0.00  0.00    -0.481 OA
ATOM     32  H   UNL     1       7.512  12.809  13.715  0.00  0.00    +0.295 HD
ENDBRANCH  30   2
ENDBRANCH  29  30
ENDBRANCH  28  29
ENDBRANCH  26  28
ENDBRANCH  25  26
ENDBRANCH  15   5
ENDBRANCH  10  15
TORSDOF 9
ENDMDL
MODEL 7
REMARK VINA RESULT:      -5.5     21.267     24.584
REMARK  Name = 40777017
REMARK  10 active torsions:
REMARK  status: ('A' for Active; 'I' for Inactive)
REMARK    1  A    between atoms: O_2  and  C_30
REMARK    2  A    between atoms: N_5  and  C_15
REMARK    3  A    between atoms: C_9  and  C_16
REMARK    4  A    between atoms: C_10  and  C_15
REMARK    5  A    between atoms: C_18  and  C_19
REMARK    6  A    between atoms: C_24  and  C_27
REMARK    7  A    between atoms: C_25  and  C_26
REMARK    8  A    between atoms: C_26  and  C_28
REMARK    9  A    between atoms: C_28  and  C_29
REMARK   10  A    between atoms: C_29  and  C_30
REMARK                            x       y       z     vdW  Elec       q    Type
REMARK                         _______ _______ _______ _____ _____    ______ ____
ROOT
ATOM      4  N   UNL     1      -4.007  10.185   5.526  0.00  0.00    -0.297 NA
ATOM      8  C   UNL     1      -1.640   9.105   5.405  0.00  0.00    +0.002 C 
ATOM      9  C   UNL     1      -1.722  10.342   4.468  0.00  0.00    +0.055 C 
ATOM     10  C   UNL     1      -4.128   8.721   5.298  0.00  0.00    +0.074 C 
ATOM     11  C   UNL     1      -2.743   8.098   5.017  0.00  0.00    +0.024 C 
ATOM     12  C   UNL     1      -1.962   9.604   6.830  0.00  0.00    +0.019 C 
ATOM     13  C   UNL     1      -3.207  10.805   4.440  0.00  0.00    +0.094 C 
ATOM     14  C   UNL     1      -3.286  10.387   6.806  0.00  0.00    +0.085 C 
ENDROOT
BRANCH   9  16
ATOM      6  N   UNL     1       0.160  10.603   2.927  0.00  0.00    -0.237 NA
ATOM      7  N   UNL     1      -0.009  10.043   0.590  0.00  0.00    -0.237 NA
ATOM     16  C   UNL     1      -1.128  10.227   3.072  0.00  0.00    +0.050 A 
ATOM     17  C   UNL     1      -1.910   9.756   2.037  0.00  0.00    +0.047 A 
ATOM     19  C   UNL     1      -1.291   9.685   0.806  0.00  0.00    +0.048 A 
ATOM     24  C   UNL     1       0.648  10.487   1.678  0.00  0.00    +0.127 A 
ATOM     27  C   UNL     1       2.070  10.891   1.478  0.00  0.00    +0.088 C 
BRANCH  19  18
ATOM     18  C   UNL     1      -2.068   9.183  -0.391  0.00  0.00    +0.038 C 
ATOM     20  C   UNL     1      -3.517   9.700  -0.412  0.00  0.00    +0.010 C 
ATOM     21  C   UNL     1      -1.466   9.577  -1.755  0.00  0.00    +0.010 C 
ATOM     22  C   UNL     1      -3.832   9.913  -1.885  0.00  0.00    +0.001 C 
ATOM     23  C   UNL     1      -2.520  10.438  -2.442  0.00  0.00    +0.001 C 
ENDBRANCH  19  18
ENDBRANCH   9  16
BRANCH  10  15
ATOM     15  C   UNL     1      -5.138   8.384   4.199  0.00  0.00    +0.123 C 
BRANCH  15   5
ATOM      1  O   UNL     1      -7.814   7.837   3.318  0.00  0.00    -0.276 OA
ATOM      5  N   UNL     1      -5.947   7.265   4.575  0.00  0.00    -0.314 N 
ATOM     25  C   UNL     1      -7.243   7.077   4.097  0.00  0.00    +0.213 C 
ATOM     31  H   UNL     1      -5.557   6.587   5.224  0.00  0.00    +0.149 HD
BRANCH  25  26
ATOM     26  C   UNL     1      -7.890   5.830   4.673  0.00  0.00    +0.096 C 
BRANCH  26  28
ATOM     28  C   UNL     1      -8.349   5.988   6.122  0.00  0.00    +0.020 C 
BRANCH  28  29
ATOM     29  C   UNL     1      -9.371   7.113   6.291  0.00  0.00    +0.121 C 
BRANCH  29  30
ATOM      3  O   UNL     1      -8.356   9.205   7.012  0.00  0.00    -0.251 OA
ATOM     30  C   UNL     1      -8.907   8.149   7.289  0.00  0.00    +0.305 C 
BRANCH  30   2
ATOM      2  O   UNL     1      -9.181   7.766   8.565  0.00  0.00    -0.481 OA
ATOM     32  H   UNL     1      -8.708   8.320   9.221  0.00  0.00    +0.295 HD
ENDBRANCH  30   2
ENDBRANCH  29  30
ENDBRANCH  28  29
ENDBRANCH  26  28
ENDBRANCH  25  26
ENDBRANCH  15   5
ENDBRANCH  10  15
TORSDOF 9
ENDMDL
MODEL 8
REMARK VINA RESULT:      -5.4      3.614      5.896
REMARK  Name = 40777017
REMARK  10 active torsions:
REMARK  status: ('A' for Active; 'I' for Inactive)
REMARK    1  A    between atoms: O_2  and  C_30
REMARK    2  A    between atoms: N_5  and  C_15
REMARK    3  A    between atoms: C_9  and  C_16
REMARK    4  A    between atoms: C_10  and  C_15
REMARK    5  A    between atoms: C_18  and  C_19
REMARK    6  A    between atoms: C_24  and  C_27
REMARK    7  A    between atoms: C_25  and  C_26
REMARK    8  A    between atoms: C_26  and  C_28
REMARK    9  A    between atoms: C_28  and  C_29
REMARK   10  A    between atoms: C_29  and  C_30
REMARK                            x       y       z     vdW  Elec       q    Type
REMARK                         _______ _______ _______ _____ _____    ______ ____
ROOT
ATOM      4  N   UNL     1      -5.717 -10.309  17.691  0.00  0.00    -0.297 NA
ATOM      8  C   UNL     1      -5.161 -12.685  16.781  0.00  0.00    +0.002 C 
ATOM      9  C   UNL     1      -4.222 -11.625  16.143  0.00  0.00    +0.055 C 
ATOM     10  C   UNL     1      -6.962 -10.982  17.232  0.00  0.00    +0.074 C 
ATOM     11  C   UNL     1      -6.629 -12.300  16.502  0.00  0.00    +0.024 C 
ATOM     12  C   UNL     1      -4.953 -12.602  18.309  0.00  0.00    +0.019 C 
ATOM     13  C   UNL     1      -4.743 -10.224  16.575  0.00  0.00    +0.094 C 
ATOM     14  C   UNL     1      -5.121 -11.141  18.764  0.00  0.00    +0.085 C 
ENDROOT
BRANCH   9  16
ATOM      6  N   UNL     1      -3.395 -12.842  14.189  0.00  0.00    -0.237 NA
ATOM      7  N   UNL     1      -3.463 -11.906  11.970  0.00  0.00    -0.237 NA
ATOM     16  C   UNL     1      -3.959 -11.705  14.646  0.00  0.00    +0.050 A 
ATOM     17  C   UNL     1      -4.299 -10.639  13.838  0.00  0.00    +0.047 A 
ATOM     19  C   UNL     1      -4.025 -10.798  12.495  0.00  0.00    +0.048 A 
ATOM     24  C   UNL     1      -3.177 -12.874  12.861  0.00  0.00    +0.127 A 
ATOM     27  C   UNL     1      -2.556 -14.117  12.316  0.00  0.00    +0.088 C 
BRANCH  19  18
ATOM     18  C   UNL     1      -4.360  -9.683  11.529  0.00  0.00    +0.038 C 
ATOM     20  C   UNL     1      -3.246  -9.444  10.495  0.00  0.00    +0.010 C 
ATOM     21  C   UNL     1      -5.647  -9.911  10.710  0.00  0.00    +0.010 C 
ATOM     22  C   UNL     1      -3.979  -9.067   9.216  0.00  0.00    +0.001 C 
ATOM     23  C   UNL     1      -5.208  -9.959   9.251  0.00  0.00    +0.001 C 
ENDBRANCH  19  18
ENDBRANCH   9  16
BRANCH  10  15
ATOM     15  C   UNL     1      -7.839 -10.063  16.378  0.00  0.00    +0.123 C 
BRANCH  15   5
ATOM      1  O   UNL     1      -9.439  -7.683  16.253  0.00  0.00    -0.276 OA
ATOM      5  N   UNL     1      -9.115  -9.861  16.992  0.00  0.00    -0.314 N 
ATOM     25  C   UNL     1      -9.826  -8.666  16.879  0.00  0.00    +0.213 C 
ATOM     31  H   UNL     1      -9.510 -10.621  17.538  0.00  0.00    +0.149 HD
BRANCH  25  26
ATOM     26  C   UNL     1     -11.135  -8.705  17.649  0.00  0.00    +0.096 C 
BRANCH  26  28
ATOM     28  C   UNL     1     -11.478 -10.084  18.211  0.00  0.00    +0.020 C 
BRANCH  28  29
ATOM     29  C   UNL     1     -11.324 -10.148  19.731  0.00  0.00    +0.121 C 
BRANCH  29  30
ATOM      3  O   UNL     1     -10.336 -12.238  20.497  0.00  0.00    -0.251 OA
ATOM     30  C   UNL     1     -10.203 -11.074  20.144  0.00  0.00    +0.305 C 
BRANCH  30   2
ATOM      2  O   UNL     1      -8.995 -10.453  20.074  0.00  0.00    -0.481 OA
ATOM     32  H   UNL     1      -8.796 -10.143  19.165  0.00  0.00    +0.295 HD
ENDBRANCH  30   2
ENDBRANCH  29  30
ENDBRANCH  28  29
ENDBRANCH  26  28
ENDBRANCH  25  26
ENDBRANCH  15   5
ENDBRANCH  10  15
TORSDOF 9
ENDMDL
MODEL 9
REMARK VINA RESULT:      -5.4      4.550      7.747
REMARK  Name = 40777017
REMARK  10 active torsions:
REMARK  status: ('A' for Active; 'I' for Inactive)
REMARK    1  A    between atoms: O_2  and  C_30
REMARK    2  A    between atoms: N_5  and  C_15
REMARK    3  A    between atoms: C_9  and  C_16
REMARK    4  A    between atoms: C_10  and  C_15
REMARK    5  A    between atoms: C_18  and  C_19
REMARK    6  A    between atoms: C_24  and  C_27
REMARK    7  A    between atoms: C_25  and  C_26
REMARK    8  A    between atoms: C_26  and  C_28
REMARK    9  A    between atoms: C_28  and  C_29
REMARK   10  A    between atoms: C_29  and  C_30
REMARK                            x       y       z     vdW  Elec       q    Type
REMARK                         _______ _______ _______ _____ _____    ______ ____
ROOT
ATOM      4  N   UNL     1      -6.755 -11.225  11.197  0.00  0.00    -0.297 NA
ATOM      8  C   UNL     1      -4.970  -9.446  11.853  0.00  0.00    +0.002 C 
ATOM      9  C   UNL     1      -4.598 -10.833  12.445  0.00  0.00    +0.055 C 
ATOM     10  C   UNL     1      -7.421 -10.019  11.757  0.00  0.00    +0.074 C 
ATOM     11  C   UNL     1      -6.377  -9.043  12.342  0.00  0.00    +0.024 C 
ATOM     12  C   UNL     1      -5.054  -9.623  10.322  0.00  0.00    +0.019 C 
ATOM     13  C   UNL     1      -5.801 -11.785  12.186  0.00  0.00    +0.094 C 
ATOM     14  C   UNL     1      -5.988 -10.804  10.000  0.00  0.00    +0.085 C 
ENDROOT
BRANCH   9  16
ATOM      6  N   UNL     1      -2.835 -10.537  14.115  0.00  0.00    -0.237 NA
ATOM      7  N   UNL     1      -3.196 -10.982  16.455  0.00  0.00    -0.237 NA
ATOM     16  C   UNL     1      -4.116 -10.892  13.888  0.00  0.00    +0.050 A 
ATOM     17  C   UNL     1      -4.987 -11.299  14.879  0.00  0.00    +0.047 A 
ATOM     19  C   UNL     1      -4.465 -11.324  16.156  0.00  0.00    +0.048 A 
ATOM     24  C   UNL     1      -2.446 -10.604  15.403  0.00  0.00    +0.127 A 
ATOM     27  C   UNL     1      -1.036 -10.216  15.695  0.00  0.00    +0.088 C 
BRANCH  19  18
ATOM     18  C   UNL     1      -5.342 -11.759  17.310  0.00  0.00    +0.038 C 
ATOM     20  C   UNL     1      -4.662 -11.558  18.676  0.00  0.00    +0.010 C 
ATOM     21  C   UNL     1      -6.691 -11.016  17.403  0.00  0.00    +0.010 C 
ATOM     22  C   UNL     1      -5.790 -11.160  19.616  0.00  0.00    +0.001 C 
ATOM     23  C   UNL     1      -6.671 -10.285  18.741  0.00  0.00    +0.001 C 
ENDBRANCH  19  18
ENDBRANCH   9  16
BRANCH  10  15
ATOM     15  C   UNL     1      -8.503 -10.374  12.779  0.00  0.00    +0.123 C 
BRANCH  15   5
ATOM      1  O   UNL     1     -10.524  -9.993  14.782  0.00  0.00    -0.276 OA
ATOM      5  N   UNL     1      -8.412  -9.534  13.933  0.00  0.00    -0.314 N 
ATOM     25  C   UNL     1      -9.447  -9.407  14.859  0.00  0.00    +0.213 C 
ATOM     31  H   UNL     1      -7.556  -9.004  14.074  0.00  0.00    +0.149 HD
BRANCH  25  26
ATOM     26  C   UNL     1      -9.104  -8.432  15.972  0.00  0.00    +0.096 C 
BRANCH  26  28
ATOM     28  C   UNL     1     -10.278  -7.557  16.407  0.00  0.00    +0.020 C 
BRANCH  28  29
ATOM     29  C   UNL     1     -10.349  -6.245  15.623  0.00  0.00    +0.121 C 
BRANCH  29  30
ATOM      3  O   UNL     1     -12.769  -6.221  15.892  0.00  0.00    -0.251 OA
ATOM     30  C   UNL     1     -11.772  -5.876  15.273  0.00  0.00    +0.305 C 
BRANCH  30   2
ATOM      2  O   UNL     1     -11.823  -5.093  14.162  0.00  0.00    -0.481 OA
ATOM     32  H   UNL     1     -12.018  -4.157  14.383  0.00  0.00    +0.295 HD
ENDBRANCH  30   2
ENDBRANCH  29  30
ENDBRANCH  28  29
ENDBRANCH  26  28
ENDBRANCH  25  26
ENDBRANCH  15   5
ENDBRANCH  10  15
TORSDOF 9
ENDMDL
MODEL 10
REMARK VINA RESULT:      -5.4     22.951     27.277
REMARK  Name = 40777017
REMARK  10 active torsions:
REMARK  status: ('A' for Active; 'I' for Inactive)
REMARK    1  A    between atoms: O_2  and  C_30
REMARK    2  A    between atoms: N_5  and  C_15
REMARK    3  A    between atoms: C_9  and  C_16
REMARK    4  A    between atoms: C_10  and  C_15
REMARK    5  A    between atoms: C_18  and  C_19
REMARK    6  A    between atoms: C_24  and  C_27
REMARK    7  A    between atoms: C_25  and  C_26
REMARK    8  A    between atoms: C_26  and  C_28
REMARK    9  A    between atoms: C_28  and  C_29
REMARK   10  A    between atoms: C_29  and  C_30
REMARK                            x       y       z     vdW  Elec       q    Type
REMARK                         _______ _______ _______ _____ _____    ______ ____
ROOT
ATOM      4  N   UNL     1      13.174   5.972   1.896  0.00  0.00    -0.297 NA
ATOM      8  C   UNL     1      12.924   3.664   0.714  0.00  0.00    +0.002 C 
ATOM      9  C   UNL     1      12.648   4.820  -0.287  0.00  0.00    +0.055 C 
ATOM     10  C   UNL     1      12.293   5.081   2.699  0.00  0.00    +0.074 C 
ATOM     11  C   UNL     1      11.967   3.791   1.917  0.00  0.00    +0.024 C 
ATOM     12  C   UNL     1      14.357   3.872   1.250  0.00  0.00    +0.019 C 
ATOM     13  C   UNL     1      12.616   6.143   0.532  0.00  0.00    +0.094 C 
ATOM     14  C   UNL     1      14.496   5.312   1.776  0.00  0.00    +0.085 C 
ENDROOT
BRANCH   9  16
ATOM      6  N   UNL     1      11.400   3.582  -1.987  0.00  0.00    -0.237 NA
ATOM      7  N   UNL     1       9.337   4.407  -2.919  0.00  0.00    -0.237 NA
ATOM     16  C   UNL     1      11.454   4.691  -1.222  0.00  0.00    +0.050 A 
ATOM     17  C   UNL     1      10.501   5.690  -1.249  0.00  0.00    +0.047 A 
ATOM     19  C   UNL     1       9.455   5.491  -2.126  0.00  0.00    +0.048 A 
ATOM     24  C   UNL     1      10.330   3.506  -2.801  0.00  0.00    +0.127 A 
ATOM     27  C   UNL     1      10.232   2.291  -3.662  0.00  0.00    +0.088 C 
BRANCH  19  18
ATOM     18  C   UNL     1       8.362   6.532  -2.229  0.00  0.00    +0.038 C 
ATOM     20  C   UNL     1       8.911   7.969  -2.203  0.00  0.00    +0.010 C 
ATOM     21  C   UNL     1       7.507   6.436  -3.510  0.00  0.00    +0.010 C 
ATOM     22  C   UNL     1       8.003   8.748  -3.142  0.00  0.00    +0.001 C 
ATOM     23  C   UNL     1       7.722   7.750  -4.252  0.00  0.00    +0.001 C 
ENDBRANCH  19  18
ENDBRANCH   9  16
BRANCH  10  15
ATOM     15  C   UNL     1      11.027   5.794   3.177  0.00  0.00    +0.123 C 
BRANCH  15   5
ATOM      1  O   UNL     1      10.771   6.878   5.823  0.00  0.00    -0.276 OA
ATOM      5  N   UNL     1      10.470   5.135   4.318  0.00  0.00    -0.314 N 
ATOM     25  C   UNL     1      10.385   5.739   5.572  0.00  0.00    +0.213 C 
ATOM     31  H   UNL     1      10.131   4.184   4.204  0.00  0.00    +0.149 HD
BRANCH  25  26
ATOM     26  C   UNL     1       9.781   4.812   6.614  0.00  0.00    +0.096 C 
BRANCH  26  28
ATOM     28  C   UNL     1      10.286   5.070   8.032  0.00  0.00    +0.020 C 
BRANCH  28  29
ATOM     29  C   UNL     1       9.159   5.456   8.991  0.00  0.00    +0.121 C 
BRANCH  29  30
ATOM      3  O   UNL     1      10.366   4.460  10.857  0.00  0.00    -0.251 OA
ATOM     30  C   UNL     1       9.307   4.780  10.335  0.00  0.00    +0.305 C 
BRANCH  30   2
ATOM      2  O   UNL     1       8.097   4.561  10.916  0.00  0.00    -0.481 OA
ATOM     32  H   UNL     1       8.172   4.462  11.889  0.00  0.00    +0.295 HD
ENDBRANCH  30   2
ENDBRANCH  29  30
ENDBRANCH  28  29
ENDBRANCH  26  28
ENDBRANCH  25  26
ENDBRANCH  15   5
ENDBRANCH  10  15
TORSDOF 9
ENDMDL
