MODEL 1
REMARK VINA RESULT:      -7.8      0.000      0.000
REMARK  Name = 75536623
REMARK  9 active torsions:
REMARK  status: ('A' for Active; 'I' for Inactive)
REMARK    1  A    between atoms: O_2  and  C_9
REMARK    2  A    between atoms: N_5  and  C_8
REMARK    3  A    between atoms: N_5  and  C_13
REMARK    4  A    between atoms: N_6  and  C_12
REMARK    5  A    between atoms: N_7  and  C_21
REMARK    6  A    between atoms: C_10  and  C_12
REMARK    7  A    between atoms: C_13  and  C_14
REMARK    8  A    between atoms: C_15  and  C_18
REMARK    9  A    between atoms: C_27  and  C_28
REMARK                            x       y       z     vdW  Elec       q    Type
REMARK                         _______ _______ _______ _____ _____    ______ ____
ROOT
ATOM      1  O   UNL     1      10.995   8.183  20.131  0.00  0.00    -0.371 OA
ATOM      8  C   UNL     1      12.759   6.678  20.608  0.00  0.00    +0.111 C 
ATOM      9  C   UNL     1      11.616   6.375  21.560  0.00  0.00    +0.164 C 
ATOM     10  C   UNL     1      10.616   7.511  21.346  0.00  0.00    +0.165 C 
ATOM     11  C   UNL     1      12.049   7.444  19.503  0.00  0.00    +0.181 C 
ENDROOT
BRANCH   9   2
ATOM      2  O   UNL     1      11.019   5.144  21.146  0.00  0.00    -0.388 OA
ATOM     30  H   UNL     1      11.277   4.993  20.220  0.00  0.00    +0.210 HD
ENDBRANCH   9   2
BRANCH   8   5
ATOM      5  N   UNL     1      13.780   7.512  21.239  0.00  0.00    -0.305 NA
ATOM     29  H   UNL     1      13.327   8.255  21.770  0.00  0.00    +0.123 HD
BRANCH   5  13
ATOM     13  C   UNL     1      14.650   8.122  20.240  0.00  0.00    +0.116 C 
BRANCH  13  14
ATOM     14  C   UNL     1      16.017   7.491  20.227  0.00  0.00    -0.033 A 
ATOM     16  C   UNL     1      16.989   7.916  21.133  0.00  0.00    +0.007 A 
ATOM     17  C   UNL     1      16.312   6.484  19.308  0.00  0.00    +0.007 A 
ATOM     19  C   UNL     1      18.255   7.332  21.122  0.00  0.00    +0.023 A 
ATOM     20  C   UNL     1      17.579   5.900  19.297  0.00  0.00    +0.023 A 
ATOM     21  C   UNL     1      18.551   6.324  20.204  0.00  0.00    +0.033 A 
BRANCH  21   7
ATOM      4  O   UNL     1      20.448   5.724  22.464  0.00  0.00    -0.276 OA
ATOM      7  N   UNL     1      19.818   5.740  20.192  0.00  0.00    -0.286 N 
ATOM     27  C   UNL     1      20.663   5.485  21.279  0.00  0.00    +0.214 C 
ATOM     28  C   UNL     1      21.954   4.839  20.844  0.00  0.00    +0.109 C 
ATOM     32  H   UNL     1      20.163   5.472  19.273  0.00  0.00    +0.155 HD
ENDBRANCH  21   7
ENDBRANCH  13  14
ENDBRANCH   5  13
ENDBRANCH   8   5
BRANCH  10  12
ATOM     12  C   UNL     1      10.606   8.532  22.474  0.00  0.00    +0.138 C 
BRANCH  12   6
ATOM      3  O   UNL     1      12.907  10.248  22.510  0.00  0.00    -0.270 OA
ATOM      6  N   UNL     1      10.684   9.871  21.965  0.00  0.00    -0.309 N 
ATOM     15  C   UNL     1      11.846  10.634  22.026  0.00  0.00    +0.244 C 
ATOM     31  H   UNL     1       9.820  10.280  21.627  0.00  0.00    +0.149 HD
BRANCH  15  18
ATOM     18  C   UNL     1      11.756  12.012  21.480  0.00  0.00    +0.037 A 
ATOM     22  C   UNL     1      12.545  12.385  20.392  0.00  0.00    +0.013 A 
ATOM     23  C   UNL     1      10.881  12.934  22.055  0.00  0.00    +0.013 A 
ATOM     24  C   UNL     1      12.459  13.679  19.878  0.00  0.00    +0.001 A 
ATOM     25  C   UNL     1      10.795  14.227  21.541  0.00  0.00    +0.001 A 
ATOM     26  C   UNL     1      11.584  14.601  20.452  0.00  0.00    +0.000 A 
ENDBRANCH  15  18
ENDBRANCH  12   6
ENDBRANCH  10  12
TORSDOF 8
ENDMDL
MODEL 2
REMARK VINA RESULT:      -7.7      1.422      1.927
REMARK  Name = 75536623
REMARK  9 active torsions:
REMARK  status: ('A' for Active; 'I' for Inactive)
REMARK    1  A    between atoms: O_2  and  C_9
REMARK    2  A    between atoms: N_5  and  C_8
REMARK    3  A    between atoms: N_5  and  C_13
REMARK    4  A    between atoms: N_6  and  C_12
REMARK    5  A    between atoms: N_7  and  C_21
REMARK    6  A    between atoms: C_10  and  C_12
REMARK    7  A    between atoms: C_13  and  C_14
REMARK    8  A    between atoms: C_15  and  C_18
REMARK    9  A    between atoms: C_27  and  C_28
REMARK                            x       y       z     vdW  Elec       q    Type
REMARK                         _______ _______ _______ _____ _____    ______ ____
ROOT
ATOM      1  O   UNL     1      11.097   8.082  20.218  0.00  0.00    -0.371 OA
ATOM      8  C   UNL     1      12.705   6.391  20.618  0.00  0.00    +0.111 C 
ATOM      9  C   UNL     1      11.546   6.170  21.574  0.00  0.00    +0.164 C 
ATOM     10  C   UNL     1      10.665   7.408  21.413  0.00  0.00    +0.165 C 
ATOM     11  C   UNL     1      12.065   7.263  19.551  0.00  0.00    +0.181 C 
ENDROOT
BRANCH   9   2
ATOM      2  O   UNL     1      10.824   5.021  21.125  0.00  0.00    -0.388 OA
ATOM     30  H   UNL     1      10.796   5.057  20.154  0.00  0.00    +0.210 HD
ENDBRANCH   9   2
BRANCH   8   5
ATOM      5  N   UNL     1      13.811   7.094  21.264  0.00  0.00    -0.305 NA
ATOM     29  H   UNL     1      13.438   7.758  21.942  0.00  0.00    +0.123 HD
BRANCH   5  13
ATOM     13  C   UNL     1      14.607   7.828  20.287  0.00  0.00    +0.116 C 
BRANCH  13  14
ATOM     14  C   UNL     1      16.042   7.370  20.276  0.00  0.00    -0.033 A 
ATOM     16  C   UNL     1      16.978   7.991  21.104  0.00  0.00    +0.007 A 
ATOM     17  C   UNL     1      16.435   6.328  19.437  0.00  0.00    +0.007 A 
ATOM     19  C   UNL     1      18.307   7.568  21.093  0.00  0.00    +0.023 A 
ATOM     20  C   UNL     1      17.764   5.905  19.426  0.00  0.00    +0.023 A 
ATOM     21  C   UNL     1      18.700   6.525  20.255  0.00  0.00    +0.033 A 
BRANCH  21   7
ATOM      4  O   UNL     1      20.480   5.614  22.506  0.00  0.00    -0.276 OA
ATOM      7  N   UNL     1      20.030   6.102  20.244  0.00  0.00    -0.286 N 
ATOM     27  C   UNL     1      20.815   5.688  21.328  0.00  0.00    +0.214 C 
ATOM     28  C   UNL     1      22.209   5.308  20.896  0.00  0.00    +0.109 C 
ATOM     32  H   UNL     1      20.477   6.098  19.330  0.00  0.00    +0.155 HD
ENDBRANCH  21   7
ENDBRANCH  13  14
ENDBRANCH   5  13
ENDBRANCH   8   5
BRANCH  10  12
ATOM     12  C   UNL     1      10.769   8.383  22.577  0.00  0.00    +0.138 C 
BRANCH  12   6
ATOM      3  O   UNL     1      11.027  11.204  22.109  0.00  0.00    -0.270 OA
ATOM      6  N   UNL     1      11.990   9.134  22.519  0.00  0.00    -0.309 N 
ATOM     15  C   UNL     1      12.022  10.505  22.285  0.00  0.00    +0.244 C 
ATOM     31  H   UNL     1      12.853   8.604  22.575  0.00  0.00    +0.149 HD
BRANCH  15  18
ATOM     18  C   UNL     1      13.368  11.131  22.229  0.00  0.00    +0.037 A 
ATOM     22  C   UNL     1      14.447  10.524  22.871  0.00  0.00    +0.013 A 
ATOM     23  C   UNL     1      13.553  12.326  21.533  0.00  0.00    +0.013 A 
ATOM     24  C   UNL     1      15.711  11.111  22.818  0.00  0.00    +0.001 A 
ATOM     25  C   UNL     1      14.816  12.913  21.479  0.00  0.00    +0.001 A 
ATOM     26  C   UNL     1      15.896  12.306  22.122  0.00  0.00    +0.000 A 
ENDBRANCH  15  18
ENDBRANCH  12   6
ENDBRANCH  10  12
TORSDOF 8
ENDMDL
MODEL 3
REMARK VINA RESULT:      -7.5      2.381      4.644
REMARK  Name = 75536623
REMARK  9 active torsions:
REMARK  status: ('A' for Active; 'I' for Inactive)
REMARK    1  A    between atoms: O_2  and  C_9
REMARK    2  A    between atoms: N_5  and  C_8
REMARK    3  A    between atoms: N_5  and  C_13
REMARK    4  A    between atoms: N_6  and  C_12
REMARK    5  A    between atoms: N_7  and  C_21
REMARK    6  A    between atoms: C_10  and  C_12
REMARK    7  A    between atoms: C_13  and  C_14
REMARK    8  A    between atoms: C_15  and  C_18
REMARK    9  A    between atoms: C_27  and  C_28
REMARK                            x       y       z     vdW  Elec       q    Type
REMARK                         _______ _______ _______ _____ _____    ______ ____
ROOT
ATOM      1  O   UNL     1      10.794  10.881  24.764  0.00  0.00    -0.371 OA
ATOM      8  C   UNL     1      12.636  12.142  23.974  0.00  0.00    +0.111 C 
ATOM      9  C   UNL     1      11.623  12.038  22.847  0.00  0.00    +0.164 C 
ATOM     10  C   UNL     1      10.580  11.040  23.349  0.00  0.00    +0.165 C 
ATOM     11  C   UNL     1      11.780  11.828  25.191  0.00  0.00    +0.181 C 
ENDROOT
BRANCH   9   2
ATOM      2  O   UNL     1      11.008  13.319  22.695  0.00  0.00    -0.388 OA
ATOM     30  H   UNL     1      11.712  13.957  22.487  0.00  0.00    +0.210 HD
ENDBRANCH   9   2
BRANCH   8   5
ATOM      5  N   UNL     1      13.707  11.159  23.828  0.00  0.00    -0.305 NA
ATOM     29  H   UNL     1      14.207  11.073  24.713  0.00  0.00    +0.123 HD
BRANCH   5  13
ATOM     13  C   UNL     1      14.656  11.567  22.799  0.00  0.00    +0.116 C 
BRANCH  13  14
ATOM     14  C   UNL     1      15.222  10.384  22.059  0.00  0.00    -0.033 A 
ATOM     16  C   UNL     1      16.156  10.581  21.041  0.00  0.00    +0.007 A 
ATOM     17  C   UNL     1      14.811   9.093  22.389  0.00  0.00    +0.007 A 
ATOM     19  C   UNL     1      16.680   9.486  20.355  0.00  0.00    +0.023 A 
ATOM     20  C   UNL     1      15.335   7.998  21.702  0.00  0.00    +0.023 A 
ATOM     21  C   UNL     1      16.270   8.194  20.685  0.00  0.00    +0.033 A 
BRANCH  21   7
ATOM      4  O   UNL     1      18.895   6.755  21.012  0.00  0.00    -0.276 OA
ATOM      7  N   UNL     1      16.794   7.098  19.998  0.00  0.00    -0.286 N 
ATOM     27  C   UNL     1      18.030   6.467  20.192  0.00  0.00    +0.214 C 
ATOM     28  C   UNL     1      18.222   5.312  19.241  0.00  0.00    +0.109 C 
ATOM     32  H   UNL     1      16.198   6.719  19.267  0.00  0.00    +0.155 HD
ENDBRANCH  21   7
ENDBRANCH  13  14
ENDBRANCH   5  13
ENDBRANCH   8   5
BRANCH  10  12
ATOM     12  C   UNL     1      10.684   9.671  22.693  0.00  0.00    +0.138 C 
BRANCH  12   6
ATOM      3  O   UNL     1      10.655   7.890  20.442  0.00  0.00    -0.270 OA
ATOM      6  N   UNL     1      11.572   9.699  21.566  0.00  0.00    -0.309 N 
ATOM     15  C   UNL     1      11.485   8.792  20.515  0.00  0.00    +0.244 C 
ATOM     31  H   UNL     1      12.334  10.369  21.604  0.00  0.00    +0.149 HD
BRANCH  15  18
ATOM     18  C   UNL     1      12.495   8.938  19.436  0.00  0.00    +0.037 A 
ATOM     22  C   UNL     1      12.944  10.206  19.068  0.00  0.00    +0.013 A 
ATOM     23  C   UNL     1      12.996   7.807  18.792  0.00  0.00    +0.013 A 
ATOM     24  C   UNL     1      13.894  10.344  18.055  0.00  0.00    +0.001 A 
ATOM     25  C   UNL     1      13.946   7.944  17.780  0.00  0.00    +0.001 A 
ATOM     26  C   UNL     1      14.395   9.213  17.411  0.00  0.00    +0.000 A 
ENDBRANCH  15  18
ENDBRANCH  12   6
ENDBRANCH  10  12
TORSDOF 8
ENDMDL
MODEL 4
REMARK VINA RESULT:      -7.2      1.741      2.379
REMARK  Name = 75536623
REMARK  9 active torsions:
REMARK  status: ('A' for Active; 'I' for Inactive)
REMARK    1  A    between atoms: O_2  and  C_9
REMARK    2  A    between atoms: N_5  and  C_8
REMARK    3  A    between atoms: N_5  and  C_13
REMARK    4  A    between atoms: N_6  and  C_12
REMARK    5  A    between atoms: N_7  and  C_21
REMARK    6  A    between atoms: C_10  and  C_12
REMARK    7  A    between atoms: C_13  and  C_14
REMARK    8  A    between atoms: C_15  and  C_18
REMARK    9  A    between atoms: C_27  and  C_28
REMARK                            x       y       z     vdW  Elec       q    Type
REMARK                         _______ _______ _______ _____ _____    ______ ____
ROOT
ATOM      1  O   UNL     1      11.046   8.827  20.351  0.00  0.00    -0.371 OA
ATOM      8  C   UNL     1      12.456   7.536  18.954  0.00  0.00    +0.111 C 
ATOM      9  C   UNL     1      12.381   6.849  20.306  0.00  0.00    +0.164 C 
ATOM     10  C   UNL     1      11.646   7.840  21.208  0.00  0.00    +0.165 C 
ATOM     11  C   UNL     1      11.222   8.423  18.988  0.00  0.00    +0.181 C 
ENDROOT
BRANCH   9   2
ATOM      2  O   UNL     1      11.582   5.674  20.154  0.00  0.00    -0.388 OA
ATOM     30  H   UNL     1      11.272   5.417  21.039  0.00  0.00    +0.210 HD
ENDBRANCH   9   2
BRANCH   8   5
ATOM      5  N   UNL     1      13.668   8.342  18.825  0.00  0.00    -0.305 NA
ATOM     29  H   UNL     1      13.495   9.109  18.176  0.00  0.00    +0.123 HD
BRANCH   5  13
ATOM     13  C   UNL     1      14.776   7.544  18.311  0.00  0.00    +0.116 C 
BRANCH  13  14
ATOM     14  C   UNL     1      15.851   7.347  19.346  0.00  0.00    -0.033 A 
ATOM     16  C   UNL     1      16.738   6.276  19.234  0.00  0.00    +0.007 A 
ATOM     17  C   UNL     1      15.960   8.233  20.417  0.00  0.00    +0.007 A 
ATOM     19  C   UNL     1      17.734   6.093  20.193  0.00  0.00    +0.023 A 
ATOM     20  C   UNL     1      16.956   8.050  21.376  0.00  0.00    +0.023 A 
ATOM     21  C   UNL     1      17.843   6.979  21.264  0.00  0.00    +0.033 A 
BRANCH  21   7
ATOM      4  O   UNL     1      20.834   7.266  21.057  0.00  0.00    -0.276 OA
ATOM      7  N   UNL     1      18.840   6.796  22.224  0.00  0.00    -0.286 N 
ATOM     27  C   UNL     1      20.225   6.942  22.071  0.00  0.00    +0.214 C 
ATOM     28  C   UNL     1      20.962   6.651  23.355  0.00  0.00    +0.109 C 
ATOM     32  H   UNL     1      18.509   6.520  23.146  0.00  0.00    +0.155 HD
ENDBRANCH  21   7
ENDBRANCH  13  14
ENDBRANCH   5  13
ENDBRANCH   8   5
BRANCH  10  12
ATOM     12  C   UNL     1      12.557   8.554  22.196  0.00  0.00    +0.138 C 
BRANCH  12   6
ATOM      3  O   UNL     1      13.436  11.287  22.205  0.00  0.00    -0.270 OA
ATOM      6  N   UNL     1      11.891   9.666  22.810  0.00  0.00    -0.309 N 
ATOM     15  C   UNL     1      12.392  10.963  22.765  0.00  0.00    +0.244 C 
ATOM     31  H   UNL     1      11.065   9.454  23.359  0.00  0.00    +0.149 HD
BRANCH  15  18
ATOM     18  C   UNL     1      11.597  11.999  23.473  0.00  0.00    +0.037 A 
ATOM     22  C   UNL     1      10.946  12.996  22.747  0.00  0.00    +0.013 A 
ATOM     23  C   UNL     1      11.499  11.973  24.864  0.00  0.00    +0.013 A 
ATOM     24  C   UNL     1      10.198  13.969  23.411  0.00  0.00    +0.001 A 
ATOM     25  C   UNL     1      10.751  12.944  25.529  0.00  0.00    +0.001 A 
ATOM     26  C   UNL     1      10.101  13.943  24.803  0.00  0.00    +0.000 A 
ENDBRANCH  15  18
ENDBRANCH  12   6
ENDBRANCH  10  12
TORSDOF 8
ENDMDL
MODEL 5
REMARK VINA RESULT:      -7.0     26.261     28.936
REMARK  Name = 75536623
REMARK  9 active torsions:
REMARK  status: ('A' for Active; 'I' for Inactive)
REMARK    1  A    between atoms: O_2  and  C_9
REMARK    2  A    between atoms: N_5  and  C_8
REMARK    3  A    between atoms: N_5  and  C_13
REMARK    4  A    between atoms: N_6  and  C_12
REMARK    5  A    between atoms: N_7  and  C_21
REMARK    6  A    between atoms: C_10  and  C_12
REMARK    7  A    between atoms: C_13  and  C_14
REMARK    8  A    between atoms: C_15  and  C_18
REMARK    9  A    between atoms: C_27  and  C_28
REMARK                            x       y       z     vdW  Elec       q    Type
REMARK                         _______ _______ _______ _____ _____    ______ ____
ROOT
ATOM      1  O   UNL     1      -3.938 -12.282  15.713  0.00  0.00    -0.371 OA
ATOM      8  C   UNL     1      -2.206 -11.267  14.458  0.00  0.00    +0.111 C 
ATOM      9  C   UNL     1      -2.259 -10.589  15.815  0.00  0.00    +0.164 C 
ATOM     10  C   UNL     1      -3.523 -11.135  16.477  0.00  0.00    +0.165 C 
ATOM     11  C   UNL     1      -2.933 -12.573  14.735  0.00  0.00    +0.181 C 
ENDROOT
BRANCH   9   2
ATOM      2  O   UNL     1      -1.118 -11.019  16.562  0.00  0.00    -0.388 OA
ATOM     30  H   UNL     1      -1.045 -10.440  17.340  0.00  0.00    +0.210 HD
ENDBRANCH   9   2
BRANCH   8   5
ATOM      5  N   UNL     1      -2.909 -10.491  13.439  0.00  0.00    -0.305 NA
ATOM     29  H   UNL     1      -3.794 -10.948  13.219  0.00  0.00    +0.123 HD
BRANCH   5  13
ATOM     13  C   UNL     1      -2.120 -10.399  12.215  0.00  0.00    +0.116 C 
BRANCH  13  14
ATOM     14  C   UNL     1      -2.994 -10.343  10.990  0.00  0.00    -0.033 A 
ATOM     16  C   UNL     1      -3.092  -9.160  10.256  0.00  0.00    +0.007 A 
ATOM     17  C   UNL     1      -3.707 -11.473  10.589  0.00  0.00    +0.007 A 
ATOM     19  C   UNL     1      -3.901  -9.108   9.122  0.00  0.00    +0.023 A 
ATOM     20  C   UNL     1      -4.516 -11.421   9.454  0.00  0.00    +0.023 A 
ATOM     21  C   UNL     1      -4.613 -10.238   8.720  0.00  0.00    +0.033 A 
BRANCH  21   7
ATOM      4  O   UNL     1      -4.320 -11.589   6.045  0.00  0.00    -0.276 OA
ATOM      7  N   UNL     1      -5.424 -10.186   7.585  0.00  0.00    -0.286 N 
ATOM     27  C   UNL     1      -5.237 -10.837   6.359  0.00  0.00    +0.214 C 
ATOM     28  C   UNL     1      -6.342 -10.519   5.384  0.00  0.00    +0.109 C 
ATOM     32  H   UNL     1      -6.249  -9.597   7.668  0.00  0.00    +0.155 HD
ENDBRANCH  21   7
ENDBRANCH  13  14
ENDBRANCH   5  13
ENDBRANCH   8   5
BRANCH  10  12
ATOM     12  C   UNL     1      -4.673 -10.139  16.505  0.00  0.00    +0.138 C 
BRANCH  12   6
ATOM      3  O   UNL     1      -7.446 -10.431  15.823  0.00  0.00    -0.270 OA
ATOM      6  N   UNL     1      -5.257  -9.979  15.204  0.00  0.00    -0.309 N 
ATOM     15  C   UNL     1      -6.618 -10.142  14.964  0.00  0.00    +0.244 C 
ATOM     31  H   UNL     1      -4.615  -9.821  14.434  0.00  0.00    +0.149 HD
BRANCH  15  18
ATOM     18  C   UNL     1      -7.061  -9.968  13.556  0.00  0.00    +0.037 A 
ATOM     22  C   UNL     1      -8.242 -10.566  13.118  0.00  0.00    +0.013 A 
ATOM     23  C   UNL     1      -6.296  -9.206  12.674  0.00  0.00    +0.013 A 
ATOM     24  C   UNL     1      -8.659 -10.402  11.797  0.00  0.00    +0.001 A 
ATOM     25  C   UNL     1      -6.712  -9.041  11.353  0.00  0.00    +0.001 A 
ATOM     26  C   UNL     1      -7.894  -9.640  10.914  0.00  0.00    +0.000 A 
ENDBRANCH  15  18
ENDBRANCH  12   6
ENDBRANCH  10  12
TORSDOF 8
ENDMDL
MODEL 6
REMARK VINA RESULT:      -6.9     26.521     29.675
REMARK  Name = 75536623
REMARK  9 active torsions:
REMARK  status: ('A' for Active; 'I' for Inactive)
REMARK    1  A    between atoms: O_2  and  C_9
REMARK    2  A    between atoms: N_5  and  C_8
REMARK    3  A    between atoms: N_5  and  C_13
REMARK    4  A    between atoms: N_6  and  C_12
REMARK    5  A    between atoms: N_7  and  C_21
REMARK    6  A    between atoms: C_10  and  C_12
REMARK    7  A    between atoms: C_13  and  C_14
REMARK    8  A    between atoms: C_15  and  C_18
REMARK    9  A    between atoms: C_27  and  C_28
REMARK                            x       y       z     vdW  Elec       q    Type
REMARK                         _______ _______ _______ _____ _____    ______ ____
ROOT
ATOM      1  O   UNL     1      -2.209 -12.722  14.850  0.00  0.00    -0.371 OA
ATOM      8  C   UNL     1      -3.809 -11.522  13.584  0.00  0.00    +0.111 C 
ATOM      9  C   UNL     1      -2.779 -10.531  14.095  0.00  0.00    +0.164 C 
ATOM     10  C   UNL     1      -1.918 -11.330  15.071  0.00  0.00    +0.165 C 
ATOM     11  C   UNL     1      -3.059 -12.839  13.704  0.00  0.00    +0.181 C 
ENDROOT
BRANCH   9   2
ATOM      2  O   UNL     1      -1.974 -10.127  12.985  0.00  0.00    -0.388 OA
ATOM     30  H   UNL     1      -1.534 -10.923  12.640  0.00  0.00    +0.210 HD
ENDBRANCH   9   2
BRANCH   8   5
ATOM      5  N   UNL     1      -5.009 -11.533  14.418  0.00  0.00    -0.305 NA
ATOM     29  H   UNL     1      -5.723 -12.110  13.974  0.00  0.00    +0.123 HD
BRANCH   5  13
ATOM     13  C   UNL     1      -5.542 -10.186  14.586  0.00  0.00    +0.116 C 
BRANCH  13  14
ATOM     14  C   UNL     1      -6.776 -10.176  15.449  0.00  0.00    -0.033 A 
ATOM     16  C   UNL     1      -7.880 -10.952  15.095  0.00  0.00    +0.007 A 
ATOM     17  C   UNL     1      -6.816  -9.390  16.600  0.00  0.00    +0.007 A 
ATOM     19  C   UNL     1      -9.024 -10.943  15.894  0.00  0.00    +0.023 A 
ATOM     20  C   UNL     1      -7.960  -9.380  17.399  0.00  0.00    +0.023 A 
ATOM     21  C   UNL     1      -9.064 -10.157  17.045  0.00  0.00    +0.033 A 
BRANCH  21   7
ATOM      4  O   UNL     1     -11.311  -8.159  17.219  0.00  0.00    -0.276 OA
ATOM      7  N   UNL     1     -10.208 -10.147  17.845  0.00  0.00    -0.286 N 
ATOM     27  C   UNL     1     -11.226  -9.186  17.886  0.00  0.00    +0.214 C 
ATOM     28  C   UNL     1     -12.292  -9.544  18.890  0.00  0.00    +0.109 C 
ATOM     32  H   UNL     1     -10.304 -10.942  18.473  0.00  0.00    +0.155 HD
ENDBRANCH  21   7
ENDBRANCH  13  14
ENDBRANCH   5  13
ENDBRANCH   8   5
BRANCH  10  12
ATOM     12  C   UNL     1      -2.199 -11.009  16.532  0.00  0.00    +0.138 C 
BRANCH  12   6
ATOM      3  O   UNL     1      -3.068 -11.759  19.163  0.00  0.00    -0.270 OA
ATOM      6  N   UNL     1      -3.518 -11.424  16.913  0.00  0.00    -0.309 N 
ATOM     15  C   UNL     1      -3.852 -11.772  18.218  0.00  0.00    +0.244 C 
ATOM     31  H   UNL     1      -4.193 -11.536  16.163  0.00  0.00    +0.149 HD
BRANCH  15  18
ATOM     18  C   UNL     1      -5.255 -12.206  18.443  0.00  0.00    +0.037 A 
ATOM     22  C   UNL     1      -5.973 -11.707  19.529  0.00  0.00    +0.013 A 
ATOM     23  C   UNL     1      -5.854 -13.111  17.566  0.00  0.00    +0.013 A 
ATOM     24  C   UNL     1      -7.291 -12.114  19.740  0.00  0.00    +0.001 A 
ATOM     25  C   UNL     1      -7.171 -13.517  17.777  0.00  0.00    +0.001 A 
ATOM     26  C   UNL     1      -7.891 -13.019  18.864  0.00  0.00    +0.000 A 
ENDBRANCH  15  18
ENDBRANCH  12   6
ENDBRANCH  10  12
TORSDOF 8
ENDMDL
MODEL 7
REMARK VINA RESULT:      -6.8     26.074     30.040
REMARK  Name = 75536623
REMARK  9 active torsions:
REMARK  status: ('A' for Active; 'I' for Inactive)
REMARK    1  A    between atoms: O_2  and  C_9
REMARK    2  A    between atoms: N_5  and  C_8
REMARK    3  A    between atoms: N_5  and  C_13
REMARK    4  A    between atoms: N_6  and  C_12
REMARK    5  A    between atoms: N_7  and  C_21
REMARK    6  A    between atoms: C_10  and  C_12
REMARK    7  A    between atoms: C_13  and  C_14
REMARK    8  A    between atoms: C_15  and  C_18
REMARK    9  A    between atoms: C_27  and  C_28
REMARK                            x       y       z     vdW  Elec       q    Type
REMARK                         _______ _______ _______ _____ _____    ______ ____
ROOT
ATOM      1  O   UNL     1     -18.231   4.490  24.241  0.00  0.00    -0.371 OA
ATOM      8  C   UNL     1     -16.655   4.513  22.474  0.00  0.00    +0.111 C 
ATOM      9  C   UNL     1     -16.214   3.465  23.480  0.00  0.00    +0.164 C 
ATOM     10  C   UNL     1     -17.140   3.659  24.679  0.00  0.00    +0.165 C 
ATOM     11  C   UNL     1     -18.124   4.681  22.825  0.00  0.00    +0.181 C 
ENDROOT
BRANCH   9   2
ATOM      2  O   UNL     1     -16.457   2.179  22.906  0.00  0.00    -0.388 OA
ATOM     30  H   UNL     1     -17.391   2.153  22.636  0.00  0.00    +0.210 HD
ENDBRANCH   9   2
BRANCH   8   5
ATOM      5  N   UNL     1     -15.934   5.771  22.653  0.00  0.00    -0.305 NA
ATOM     29  H   UNL     1     -16.083   6.364  21.837  0.00  0.00    +0.123 HD
BRANCH   5  13
ATOM     13  C   UNL     1     -14.501   5.537  22.796  0.00  0.00    +0.116 C 
BRANCH  13  14
ATOM     14  C   UNL     1     -13.713   6.195  21.695  0.00  0.00    -0.033 A 
ATOM     16  C   UNL     1     -12.340   5.969  21.588  0.00  0.00    +0.007 A 
ATOM     17  C   UNL     1     -14.355   7.032  20.782  0.00  0.00    +0.007 A 
ATOM     19  C   UNL     1     -11.611   6.579  20.569  0.00  0.00    +0.023 A 
ATOM     20  C   UNL     1     -13.625   7.642  19.762  0.00  0.00    +0.023 A 
ATOM     21  C   UNL     1     -12.252   7.415  19.655  0.00  0.00    +0.033 A 
BRANCH  21   7
ATOM      4  O   UNL     1     -10.447   9.825  19.715  0.00  0.00    -0.276 OA
ATOM      7  N   UNL     1     -11.522   8.026  18.635  0.00  0.00    -0.286 N 
ATOM     27  C   UNL     1     -10.695   9.153  18.718  0.00  0.00    +0.214 C 
ATOM     28  C   UNL     1     -10.083   9.497  17.384  0.00  0.00    +0.109 C 
ATOM     32  H   UNL     1     -11.609   7.591  17.719  0.00  0.00    +0.155 HD
ENDBRANCH  21   7
ENDBRANCH  13  14
ENDBRANCH   5  13
ENDBRANCH   8   5
BRANCH  10  12
ATOM     12  C   UNL     1     -16.468   4.340  25.863  0.00  0.00    +0.138 C 
BRANCH  12   6
ATOM      3  O   UNL     1     -16.481   4.602  28.722  0.00  0.00    -0.270 OA
ATOM      6  N   UNL     1     -15.989   3.378  26.814  0.00  0.00    -0.309 N 
ATOM     15  C   UNL     1     -16.033   3.590  28.188  0.00  0.00    +0.244 C 
ATOM     31  H   UNL     1     -15.531   2.555  26.436  0.00  0.00    +0.149 HD
BRANCH  15  18
ATOM     18  C   UNL     1     -15.473   2.508  29.038  0.00  0.00    +0.037 A 
ATOM     22  C   UNL     1     -14.357   2.755  29.837  0.00  0.00    +0.013 A 
ATOM     23  C   UNL     1     -16.065   1.245  29.038  0.00  0.00    +0.013 A 
ATOM     24  C   UNL     1     -13.832   1.739  30.635  0.00  0.00    +0.001 A 
ATOM     25  C   UNL     1     -15.540   0.229  29.836  0.00  0.00    +0.001 A 
ATOM     26  C   UNL     1     -14.423   0.475  30.635  0.00  0.00    +0.000 A 
ENDBRANCH  15  18
ENDBRANCH  12   6
ENDBRANCH  10  12
TORSDOF 8
ENDMDL
MODEL 8
REMARK VINA RESULT:      -6.8     27.457     29.324
REMARK  Name = 75536623
REMARK  9 active torsions:
REMARK  status: ('A' for Active; 'I' for Inactive)
REMARK    1  A    between atoms: O_2  and  C_9
REMARK    2  A    between atoms: N_5  and  C_8
REMARK    3  A    between atoms: N_5  and  C_13
REMARK    4  A    between atoms: N_6  and  C_12
REMARK    5  A    between atoms: N_7  and  C_21
REMARK    6  A    between atoms: C_10  and  C_12
REMARK    7  A    between atoms: C_13  and  C_14
REMARK    8  A    between atoms: C_15  and  C_18
REMARK    9  A    between atoms: C_27  and  C_28
REMARK                            x       y       z     vdW  Elec       q    Type
REMARK                         _______ _______ _______ _____ _____    ______ ____
ROOT
ATOM      1  O   UNL     1      -6.852 -10.681   8.690  0.00  0.00    -0.371 OA
ATOM      8  C   UNL     1      -7.465  -9.382  10.572  0.00  0.00    +0.111 C 
ATOM      9  C   UNL     1      -6.867  -8.448   9.536  0.00  0.00    +0.164 C 
ATOM     10  C   UNL     1      -6.300  -9.372   8.458  0.00  0.00    +0.165 C 
ATOM     11  C   UNL     1      -7.837 -10.589   9.726  0.00  0.00    +0.181 C 
ENDROOT
BRANCH   9   2
ATOM      2  O   UNL     1      -7.933  -7.678   8.976  0.00  0.00    -0.388 OA
ATOM     30  H   UNL     1      -8.708  -8.261   8.908  0.00  0.00    +0.210 HD
ENDBRANCH   9   2
BRANCH   8   5
ATOM      5  N   UNL     1      -6.489  -9.750  11.595  0.00  0.00    -0.305 NA
ATOM     29  H   UNL     1      -5.551  -9.696  11.200  0.00  0.00    +0.123 HD
BRANCH   5  13
ATOM     13  C   UNL     1      -6.713 -11.112  12.067  0.00  0.00    +0.116 C 
BRANCH  13  14
ATOM     14  C   UNL     1      -6.010 -11.375  13.373  0.00  0.00    -0.033 A 
ATOM     16  C   UNL     1      -6.046 -12.649  13.939  0.00  0.00    +0.007 A 
ATOM     17  C   UNL     1      -5.326 -10.344  14.016  0.00  0.00    +0.007 A 
ATOM     19  C   UNL     1      -5.395 -12.893  15.149  0.00  0.00    +0.023 A 
ATOM     20  C   UNL     1      -4.675 -10.587  15.226  0.00  0.00    +0.023 A 
ATOM     21  C   UNL     1      -4.710 -11.862  15.792  0.00  0.00    +0.033 A 
BRANCH  21   7
ATOM      4  O   UNL     1      -5.342 -10.909  18.578  0.00  0.00    -0.276 OA
ATOM      7  N   UNL     1      -4.059 -12.106  17.003  0.00  0.00    -0.286 N 
ATOM     27  C   UNL     1      -4.397 -11.632  18.277  0.00  0.00    +0.214 C 
ATOM     28  C   UNL     1      -3.436 -12.125  19.329  0.00  0.00    +0.109 C 
ATOM     32  H   UNL     1      -3.236 -12.701  16.941  0.00  0.00    +0.155 HD
ENDBRANCH  21   7
ENDBRANCH  13  14
ENDBRANCH   5  13
ENDBRANCH   8   5
BRANCH  10  12
ATOM     12  C   UNL     1      -4.783  -9.481   8.488  0.00  0.00    +0.138 C 
BRANCH  12   6
ATOM      3  O   UNL     1      -2.650  -9.170  10.385  0.00  0.00    -0.270 OA
ATOM      6  N   UNL     1      -4.348 -10.448   9.455  0.00  0.00    -0.309 N 
ATOM     15  C   UNL     1      -3.300 -10.211  10.339  0.00  0.00    +0.244 C 
ATOM     31  H   UNL     1      -4.790 -11.361   9.415  0.00  0.00    +0.149 HD
BRANCH  15  18
ATOM     18  C   UNL     1      -2.956 -11.324  11.261  0.00  0.00    +0.037 A 
ATOM     22  C   UNL     1      -2.146 -11.085  12.371  0.00  0.00    +0.013 A 
ATOM     23  C   UNL     1      -3.444 -12.608  11.017  0.00  0.00    +0.013 A 
ATOM     24  C   UNL     1      -1.823 -12.130  13.238  0.00  0.00    +0.001 A 
ATOM     25  C   UNL     1      -3.122 -13.652  11.883  0.00  0.00    +0.001 A 
ATOM     26  C   UNL     1      -2.311 -13.413  12.994  0.00  0.00    +0.000 A 
ENDBRANCH  15  18
ENDBRANCH  12   6
ENDBRANCH  10  12
TORSDOF 8
ENDMDL
MODEL 9
REMARK VINA RESULT:      -6.7     26.355     29.642
REMARK  Name = 75536623
REMARK  9 active torsions:
REMARK  status: ('A' for Active; 'I' for Inactive)
REMARK    1  A    between atoms: O_2  and  C_9
REMARK    2  A    between atoms: N_5  and  C_8
REMARK    3  A    between atoms: N_5  and  C_13
REMARK    4  A    between atoms: N_6  and  C_12
REMARK    5  A    between atoms: N_7  and  C_21
REMARK    6  A    between atoms: C_10  and  C_12
REMARK    7  A    between atoms: C_13  and  C_14
REMARK    8  A    between atoms: C_15  and  C_18
REMARK    9  A    between atoms: C_27  and  C_28
REMARK                            x       y       z     vdW  Elec       q    Type
REMARK                         _______ _______ _______ _____ _____    ______ ____
ROOT
ATOM      1  O   UNL     1      -2.428 -10.372  13.041  0.00  0.00    -0.371 OA
ATOM      8  C   UNL     1      -1.831 -11.769  14.858  0.00  0.00    +0.111 C 
ATOM      9  C   UNL     1      -1.969 -12.642  13.623  0.00  0.00    +0.164 C 
ATOM     10  C   UNL     1      -2.563 -11.721  12.558  0.00  0.00    +0.165 C 
ATOM     11  C   UNL     1      -1.650 -10.389  14.244  0.00  0.00    +0.181 C 
ENDROOT
BRANCH   9   2
ATOM      2  O   UNL     1      -0.657 -13.037  13.219  0.00  0.00    -0.388 OA
ATOM     30  H   UNL     1      -0.586 -13.997  13.360  0.00  0.00    +0.210 HD
ENDBRANCH   9   2
BRANCH   8   5
ATOM      5  N   UNL     1      -3.033 -11.811  15.687  0.00  0.00    -0.305 NA
ATOM     29  H   UNL     1      -3.853 -11.896  15.087  0.00  0.00    +0.123 HD
BRANCH   5  13
ATOM     13  C   UNL     1      -3.165 -10.595  16.480  0.00  0.00    +0.116 C 
BRANCH  13  14
ATOM     14  C   UNL     1      -4.569 -10.410  16.992  0.00  0.00    -0.033 A 
ATOM     16  C   UNL     1      -5.484  -9.652  16.261  0.00  0.00    +0.007 A 
ATOM     17  C   UNL     1      -4.954 -10.995  18.198  0.00  0.00    +0.007 A 
ATOM     19  C   UNL     1      -6.784  -9.481  16.735  0.00  0.00    +0.023 A 
ATOM     20  C   UNL     1      -6.255 -10.823  18.673  0.00  0.00    +0.023 A 
ATOM     21  C   UNL     1      -7.170 -10.066  17.941  0.00  0.00    +0.033 A 
BRANCH  21   7
ATOM      4  O   UNL     1      -9.800 -10.042  16.473  0.00  0.00    -0.276 OA
ATOM      7  N   UNL     1      -8.471  -9.894  18.416  0.00  0.00    -0.286 N 
ATOM     27  C   UNL     1      -9.665  -9.890  17.683  0.00  0.00    +0.214 C 
ATOM     28  C   UNL     1     -10.864  -9.672  18.572  0.00  0.00    +0.109 C 
ATOM     32  H   UNL     1      -8.551  -9.753  19.420  0.00  0.00    +0.155 HD
ENDBRANCH  21   7
ENDBRANCH  13  14
ENDBRANCH   5  13
ENDBRANCH   8   5
BRANCH  10  12
ATOM     12  C   UNL     1      -4.036 -11.984  12.281  0.00  0.00    +0.138 C 
BRANCH  12   6
ATOM      3  O   UNL     1      -6.797 -11.656  12.997  0.00  0.00    -0.270 OA
ATOM      6  N   UNL     1      -4.694 -12.531  13.433  0.00  0.00    -0.309 N 
ATOM     15  C   UNL     1      -6.042 -12.318  13.703  0.00  0.00    +0.244 C 
ATOM     31  H   UNL     1      -4.108 -13.020  14.101  0.00  0.00    +0.149 HD
BRANCH  15  18
ATOM     18  C   UNL     1      -6.566 -12.931  14.951  0.00  0.00    +0.037 A 
ATOM     22  C   UNL     1      -5.737 -13.731  15.737  0.00  0.00    +0.013 A 
ATOM     23  C   UNL     1      -7.887 -12.706  15.337  0.00  0.00    +0.013 A 
ATOM     24  C   UNL     1      -6.229 -14.306  16.909  0.00  0.00    +0.001 A 
ATOM     25  C   UNL     1      -8.379 -13.279  16.508  0.00  0.00    +0.001 A 
ATOM     26  C   UNL     1      -7.550 -14.080  17.295  0.00  0.00    +0.000 A 
ENDBRANCH  15  18
ENDBRANCH  12   6
ENDBRANCH  10  12
TORSDOF 8
ENDMDL
MODEL 10
REMARK VINA RESULT:      -6.7     25.878     27.643
REMARK  Name = 75536623
REMARK  9 active torsions:
REMARK  status: ('A' for Active; 'I' for Inactive)
REMARK    1  A    between atoms: O_2  and  C_9
REMARK    2  A    between atoms: N_5  and  C_8
REMARK    3  A    between atoms: N_5  and  C_13
REMARK    4  A    between atoms: N_6  and  C_12
REMARK    5  A    between atoms: N_7  and  C_21
REMARK    6  A    between atoms: C_10  and  C_12
REMARK    7  A    between atoms: C_13  and  C_14
REMARK    8  A    between atoms: C_15  and  C_18
REMARK    9  A    between atoms: C_27  and  C_28
REMARK                            x       y       z     vdW  Elec       q    Type
REMARK                         _______ _______ _______ _____ _____    ______ ____
ROOT
ATOM      1  O   UNL     1     -13.000   9.311  14.835  0.00  0.00    -0.371 OA
ATOM      8  C   UNL     1     -12.420  11.436  15.703  0.00  0.00    +0.111 C 
ATOM      9  C   UNL     1     -11.250  10.933  14.876  0.00  0.00    +0.164 C 
ATOM     10  C   UNL     1     -11.603   9.486  14.538  0.00  0.00    +0.165 C 
ATOM     11  C   UNL     1     -13.563  10.584  15.174  0.00  0.00    +0.181 C 
ENDROOT
BRANCH   9   2
ATOM      2  O   UNL     1     -11.208  11.698  13.670  0.00  0.00    -0.388 OA
ATOM     30  H   UNL     1     -10.828  11.130  12.978  0.00  0.00    +0.210 HD
ENDBRANCH   9   2
BRANCH   8   5
ATOM      5  N   UNL     1     -12.216  11.196  17.130  0.00  0.00    -0.305 NA
ATOM     29  H   UNL     1     -12.117  10.194  17.292  0.00  0.00    +0.123 HD
BRANCH   5  13
ATOM     13  C   UNL     1     -13.349  11.681  17.910  0.00  0.00    +0.116 C 
BRANCH  13  14
ATOM     14  C   UNL     1     -13.219  11.324  19.367  0.00  0.00    -0.033 A 
ATOM     16  C   UNL     1     -11.958  11.268  19.962  0.00  0.00    +0.007 A 
ATOM     17  C   UNL     1     -14.358  11.046  20.121  0.00  0.00    +0.007 A 
ATOM     19  C   UNL     1     -11.837  10.937  21.311  0.00  0.00    +0.023 A 
ATOM     20  C   UNL     1     -14.238  10.714  21.471  0.00  0.00    +0.023 A 
ATOM     21  C   UNL     1     -12.977  10.659  22.066  0.00  0.00    +0.033 A 
BRANCH  21   7
ATOM      4  O   UNL     1     -12.332  12.379  24.452  0.00  0.00    -0.276 OA
ATOM      7  N   UNL     1     -12.856  10.327  23.416  0.00  0.00    -0.286 N 
ATOM     27  C   UNL     1     -12.550  11.172  24.490  0.00  0.00    +0.214 C 
ATOM     28  C   UNL     1     -12.514  10.422  25.798  0.00  0.00    +0.109 C 
ATOM     32  H   UNL     1     -13.010   9.346  23.636  0.00  0.00    +0.155 HD
ENDBRANCH  21   7
ENDBRANCH  13  14
ENDBRANCH   5  13
ENDBRANCH   8   5
BRANCH  10  12
ATOM     12  C   UNL     1     -10.812   8.463  15.341  0.00  0.00    +0.138 C 
BRANCH  12   6
ATOM      3  O   UNL     1     -10.007   8.969  18.049  0.00  0.00    -0.270 OA
ATOM      6  N   UNL     1     -11.516   8.077  16.530  0.00  0.00    -0.309 N 
ATOM     15  C   UNL     1     -11.048   8.365  17.809  0.00  0.00    +0.244 C 
ATOM     31  H   UNL     1     -12.342   7.503  16.403  0.00  0.00    +0.149 HD
BRANCH  15  18
ATOM     18  C   UNL     1     -11.880   7.873  18.937  0.00  0.00    +0.037 A 
ATOM     22  C   UNL     1     -11.276   7.487  20.133  0.00  0.00    +0.013 A 
ATOM     23  C   UNL     1     -13.267   7.799  18.801  0.00  0.00    +0.013 A 
ATOM     24  C   UNL     1     -12.057   7.026  21.193  0.00  0.00    +0.001 A 
ATOM     25  C   UNL     1     -14.048   7.339  19.860  0.00  0.00    +0.001 A 
ATOM     26  C   UNL     1     -13.443   6.952  21.057  0.00  0.00    +0.000 A 
ENDBRANCH  15  18
ENDBRANCH  12   6
ENDBRANCH  10  12
TORSDOF 8
ENDMDL
