MODEL 1
REMARK VINA RESULT:      -6.9      0.000      0.000
REMARK  Name = 11879542
REMARK  9 active torsions:
REMARK  status: ('A' for Active; 'I' for Inactive)
REMARK    1  A    between atoms: S_1  and  C_19
REMARK    2  A    between atoms: S_1  and  C_21
REMARK    3  A    between atoms: O_5  and  C_16
REMARK    4  A    between atoms: O_5  and  C_20
REMARK    5  A    between atoms: N_7  and  C_15
REMARK    6  A    between atoms: N_11  and  C_20
REMARK    7  A    between atoms: N_11  and  C_22
REMARK    8  A    between atoms: C_21  and  C_23
REMARK    9  A    between atoms: C_27  and  C_32
REMARK                            x       y       z     vdW  Elec       q    Type
REMARK                         _______ _______ _______ _____ _____    ______ ____
ROOT
ATOM      3  O   UNL     1     -15.292   4.220  22.449  0.00  0.00    -0.368 OA
ATOM      4  O   UNL     1     -17.404   6.029  23.798  0.00  0.00    -0.368 OA
ATOM     13  C   UNL     1     -17.278   4.593  23.697  0.00  0.00    +0.177 C 
ATOM     14  C   UNL     1     -16.719   4.298  22.319  0.00  0.00    +0.192 C 
ATOM     15  C   UNL     1     -16.205   4.109  24.653  0.00  0.00    +0.168 C 
ATOM     16  C   UNL     1     -17.142   5.509  21.522  0.00  0.00    +0.232 C 
ATOM     17  C   UNL     1     -14.929   4.269  23.836  0.00  0.00    +0.190 C 
ATOM     18  C   UNL     1     -17.028   6.616  22.545  0.00  0.00    +0.207 C 
ENDROOT
BRANCH  15   7
ATOM      7  N   UNL     1     -16.467   2.756  25.150  0.00  0.00    -0.212 N 
ATOM      8  N   UNL     1     -16.673   1.753  24.290  0.00  0.00    -0.043 NA
ATOM      9  N   UNL     1     -16.799   1.015  26.391  0.00  0.00    -0.101 NA
ATOM     10  N   UNL     1     -16.875   0.687  25.056  0.00  0.00    -0.022 NA
ATOM     19  C   UNL     1     -16.544   2.302  26.425  0.00  0.00    +0.210 A 
BRANCH  19   1
ATOM      1  S   UNL     1     -16.335   3.293  27.815  0.00  0.00    -0.077 S 
BRANCH   1  21
ATOM     21  C   UNL     1     -16.738   2.132  29.154  0.00  0.00    +0.151 C 
BRANCH  21  23
ATOM      6  O   UNL     1     -15.520   0.087  29.484  0.00  0.00    -0.467 OA
ATOM     23  C   UNL     1     -15.510   1.423  29.647  0.00  0.00    +0.115 A 
ATOM     26  C   UNL     1     -14.376   1.872  30.233  0.00  0.00    +0.045 A 
ATOM     29  C   UNL     1     -13.596   0.713  30.463  0.00  0.00    +0.041 A 
ATOM     30  C   UNL     1     -14.336  -0.346  29.990  0.00  0.00    +0.195 A 
ENDBRANCH  21  23
ENDBRANCH   1  21
ENDBRANCH  19   1
ENDBRANCH  15   7
BRANCH  16   5
ATOM      5  O   UNL     1     -16.338   5.747  20.390  0.00  0.00    -0.466 OA
BRANCH   5  20
ATOM      2  S   UNL     1     -17.652   7.117  18.509  0.00  0.00    +0.006 S 
ATOM     20  C   UNL     1     -16.403   6.873  19.597  0.00  0.00    +0.233 C 
BRANCH  20  11
ATOM     11  N   UNL     1     -15.399   7.813  19.723  0.00  0.00    -0.279 N 
ATOM     33  H   UNL     1     -15.728   8.774  19.787  0.00  0.00    +0.156 HD
BRANCH  11  22
ATOM     22  C   UNL     1     -13.990   7.674  19.779  0.00  0.00    +0.035 A 
ATOM     24  C   UNL     1     -13.236   7.973  18.658  0.00  0.00    +0.042 A 
ATOM     25  C   UNL     1     -13.400   7.239  20.954  0.00  0.00    +0.023 A 
ATOM     27  C   UNL     1     -11.849   7.833  18.713  0.00  0.00    +0.054 A 
ATOM     28  C   UNL     1     -12.013   7.100  21.008  0.00  0.00    +0.003 A 
ATOM     31  C   UNL     1     -11.238   7.397  19.888  0.00  0.00    +0.019 A 
BRANCH  27  32
ATOM     12  N   UNL     1     -10.409   8.385  16.630  0.00  0.00    -0.191 NA
ATOM     32  C   UNL     1     -11.054   8.138  17.565  0.00  0.00    +0.099 C 
ENDBRANCH  27  32
ENDBRANCH  11  22
ENDBRANCH  20  11
ENDBRANCH   5  20
ENDBRANCH  16   5
TORSDOF 9
ENDMDL
MODEL 2
REMARK VINA RESULT:      -6.7     18.337     19.548
REMARK  Name = 11879542
REMARK  9 active torsions:
REMARK  status: ('A' for Active; 'I' for Inactive)
REMARK    1  A    between atoms: S_1  and  C_19
REMARK    2  A    between atoms: S_1  and  C_21
REMARK    3  A    between atoms: O_5  and  C_16
REMARK    4  A    between atoms: O_5  and  C_20
REMARK    5  A    between atoms: N_7  and  C_15
REMARK    6  A    between atoms: N_11  and  C_20
REMARK    7  A    between atoms: N_11  and  C_22
REMARK    8  A    between atoms: C_21  and  C_23
REMARK    9  A    between atoms: C_27  and  C_32
REMARK                            x       y       z     vdW  Elec       q    Type
REMARK                         _______ _______ _______ _____ _____    ______ ____
ROOT
ATOM      3  O   UNL     1      -5.126 -11.652  18.572  0.00  0.00    -0.368 OA
ATOM      4  O   UNL     1      -6.670  -9.585  16.870  0.00  0.00    -0.368 OA
ATOM     13  C   UNL     1      -7.056 -10.857  17.436  0.00  0.00    +0.177 C 
ATOM     14  C   UNL     1      -5.846 -11.765  17.336  0.00  0.00    +0.192 C 
ATOM     15  C   UNL     1      -7.289 -10.699  18.926  0.00  0.00    +0.168 C 
ATOM     16  C   UNL     1      -5.075 -11.167  16.183  0.00  0.00    +0.232 C 
ATOM     17  C   UNL     1      -5.890 -10.874  19.506  0.00  0.00    +0.190 C 
ATOM     18  C   UNL     1      -5.332  -9.689  16.365  0.00  0.00    +0.207 C 
ENDROOT
BRANCH  15   7
ATOM      7  N   UNL     1      -8.301 -11.627  19.437  0.00  0.00    -0.212 N 
ATOM      8  N   UNL     1      -7.948 -12.857  19.826  0.00  0.00    -0.043 NA
ATOM      9  N   UNL     1     -10.142 -12.557  20.087  0.00  0.00    -0.101 NA
ATOM     10  N   UNL     1      -9.081 -13.423  20.225  0.00  0.00    -0.022 NA
ATOM     19  C   UNL     1      -9.635 -11.449  19.598  0.00  0.00    +0.210 A 
BRANCH  19   1
ATOM      1  S   UNL     1     -10.467  -9.997  19.209  0.00  0.00    -0.077 S 
BRANCH   1  21
ATOM     21  C   UNL     1     -10.773 -10.217  17.430  0.00  0.00    +0.151 C 
BRANCH  21  23
ATOM      6  O   UNL     1     -11.077  -8.952  15.410  0.00  0.00    -0.467 OA
ATOM     23  C   UNL     1     -10.694  -8.909  16.699  0.00  0.00    +0.115 A 
ATOM     26  C   UNL     1     -10.306  -7.672  17.089  0.00  0.00    +0.045 A 
ATOM     29  C   UNL     1     -10.458  -6.858  15.941  0.00  0.00    +0.041 A 
ATOM     30  C   UNL     1     -10.928  -7.684  14.946  0.00  0.00    +0.195 A 
ENDBRANCH  21  23
ENDBRANCH   1  21
ENDBRANCH  19   1
ENDBRANCH  15   7
BRANCH  16   5
ATOM      5  O   UNL     1      -3.700 -11.474  16.206  0.00  0.00    -0.466 OA
BRANCH   5  20
ATOM      2  S   UNL     1      -1.387 -10.293  15.578  0.00  0.00    +0.006 S 
ATOM     20  C   UNL     1      -2.797 -11.125  15.225  0.00  0.00    +0.233 C 
BRANCH  20  11
ATOM     11  N   UNL     1      -3.083 -11.484  13.923  0.00  0.00    -0.279 N 
ATOM     33  H   UNL     1      -3.146 -12.488  13.767  0.00  0.00    +0.156 HD
BRANCH  11  22
ATOM     22  C   UNL     1      -3.303 -10.699  12.763  0.00  0.00    +0.035 A 
ATOM     24  C   UNL     1      -4.592 -10.311  12.445  0.00  0.00    +0.042 A 
ATOM     25  C   UNL     1      -2.221 -10.340  11.976  0.00  0.00    +0.023 A 
ATOM     27  C   UNL     1      -4.807  -9.540  11.302  0.00  0.00    +0.054 A 
ATOM     28  C   UNL     1      -2.438  -9.569  10.834  0.00  0.00    +0.003 A 
ATOM     31  C   UNL     1      -3.731  -9.169  10.497  0.00  0.00    +0.019 A 
BRANCH  27  32
ATOM     12  N   UNL     1      -7.210  -8.797  10.676  0.00  0.00    -0.191 NA
ATOM     32  C   UNL     1      -6.132  -9.130  10.957  0.00  0.00    +0.099 C 
ENDBRANCH  27  32
ENDBRANCH  11  22
ENDBRANCH  20  11
ENDBRANCH   5  20
ENDBRANCH  16   5
TORSDOF 9
ENDMDL
MODEL 3
REMARK VINA RESULT:      -6.7     18.443     20.723
REMARK  Name = 11879542
REMARK  9 active torsions:
REMARK  status: ('A' for Active; 'I' for Inactive)
REMARK    1  A    between atoms: S_1  and  C_19
REMARK    2  A    between atoms: S_1  and  C_21
REMARK    3  A    between atoms: O_5  and  C_16
REMARK    4  A    between atoms: O_5  and  C_20
REMARK    5  A    between atoms: N_7  and  C_15
REMARK    6  A    between atoms: N_11  and  C_20
REMARK    7  A    between atoms: N_11  and  C_22
REMARK    8  A    between atoms: C_21  and  C_23
REMARK    9  A    between atoms: C_27  and  C_32
REMARK                            x       y       z     vdW  Elec       q    Type
REMARK                         _______ _______ _______ _____ _____    ______ ____
ROOT
ATOM      3  O   UNL     1      -5.743 -12.152  17.610  0.00  0.00    -0.368 OA
ATOM      4  O   UNL     1      -6.503  -9.362  16.518  0.00  0.00    -0.368 OA
ATOM     13  C   UNL     1      -5.227  -9.977  16.805  0.00  0.00    +0.177 C 
ATOM     14  C   UNL     1      -5.419 -10.824  18.048  0.00  0.00    +0.192 C 
ATOM     15  C   UNL     1      -4.889 -10.976  15.715  0.00  0.00    +0.168 C 
ATOM     16  C   UNL     1      -6.592 -10.158  18.727  0.00  0.00    +0.232 C 
ATOM     17  C   UNL     1      -5.596 -12.241  16.186  0.00  0.00    +0.190 C 
ATOM     18  C   UNL     1      -7.433  -9.721  17.549  0.00  0.00    +0.207 C 
ENDROOT
BRANCH  15   7
ATOM      7  N   UNL     1      -3.446 -11.105  15.502  0.00  0.00    -0.212 N 
ATOM      8  N   UNL     1      -2.590 -10.724  16.456  0.00  0.00    -0.043 NA
ATOM      9  N   UNL     1      -1.483 -11.504  14.684  0.00  0.00    -0.101 NA
ATOM     10  N   UNL     1      -1.387 -10.971  15.950  0.00  0.00    -0.022 NA
ATOM     19  C   UNL     1      -2.768 -11.579  14.428  0.00  0.00    +0.210 A 
BRANCH  19   1
ATOM      1  S   UNL     1      -3.520 -12.165  12.997  0.00  0.00    -0.077 S 
BRANCH   1  21
ATOM     21  C   UNL     1      -2.657 -11.209  11.713  0.00  0.00    +0.151 C 
BRANCH  21  23
ATOM      6  O   UNL     1      -4.655  -9.884  11.862  0.00  0.00    -0.467 OA
ATOM     23  C   UNL     1      -3.537 -10.129  11.156  0.00  0.00    +0.115 A 
ATOM     26  C   UNL     1      -3.424  -9.341  10.062  0.00  0.00    +0.045 A 
ATOM     29  C   UNL     1      -4.578  -8.520  10.077  0.00  0.00    +0.041 A 
ATOM     30  C   UNL     1      -5.294  -8.889  11.192  0.00  0.00    +0.195 A 
ENDBRANCH  21  23
ENDBRANCH   1  21
ENDBRANCH  19   1
ENDBRANCH  15   7
BRANCH  16   5
ATOM      5  O   UNL     1      -7.299 -11.011  19.596  0.00  0.00    -0.466 OA
BRANCH   5  20
ATOM      2  S   UNL     1      -9.148 -12.783  18.834  0.00  0.00    +0.006 S 
ATOM     20  C   UNL     1      -8.636 -11.326  19.481  0.00  0.00    +0.233 C 
BRANCH  20  11
ATOM     11  N   UNL     1      -9.560 -10.399  19.921  0.00  0.00    -0.279 N 
ATOM     33  H   UNL     1      -9.244  -9.826  20.700  0.00  0.00    +0.156 HD
BRANCH  11  22
ATOM     22  C   UNL     1     -10.874 -10.107  19.477  0.00  0.00    +0.035 A 
ATOM     24  C   UNL     1     -11.055  -9.541  18.227  0.00  0.00    +0.042 A 
ATOM     25  C   UNL     1     -11.946 -10.392  20.305  0.00  0.00    +0.023 A 
ATOM     27  C   UNL     1     -12.348  -9.251  17.792  0.00  0.00    +0.054 A 
ATOM     28  C   UNL     1     -13.239 -10.103  19.869  0.00  0.00    +0.003 A 
ATOM     31  C   UNL     1     -13.440  -9.532  18.613  0.00  0.00    +0.019 A 
BRANCH  27  32
ATOM     12  N   UNL     1     -12.722  -8.190  15.457  0.00  0.00    -0.191 NA
ATOM     32  C   UNL     1     -12.554  -8.667  16.504  0.00  0.00    +0.099 C 
ENDBRANCH  27  32
ENDBRANCH  11  22
ENDBRANCH  20  11
ENDBRANCH   5  20
ENDBRANCH  16   5
TORSDOF 9
ENDMDL
MODEL 4
REMARK VINA RESULT:      -6.6     16.401     17.361
REMARK  Name = 11879542
REMARK  9 active torsions:
REMARK  status: ('A' for Active; 'I' for Inactive)
REMARK    1  A    between atoms: S_1  and  C_19
REMARK    2  A    between atoms: S_1  and  C_21
REMARK    3  A    between atoms: O_5  and  C_16
REMARK    4  A    between atoms: O_5  and  C_20
REMARK    5  A    between atoms: N_7  and  C_15
REMARK    6  A    between atoms: N_11  and  C_20
REMARK    7  A    between atoms: N_11  and  C_22
REMARK    8  A    between atoms: C_21  and  C_23
REMARK    9  A    between atoms: C_27  and  C_32
REMARK                            x       y       z     vdW  Elec       q    Type
REMARK                         _______ _______ _______ _____ _____    ______ ____
ROOT
ATOM      3  O   UNL     1     -10.968  -9.362  17.259  0.00  0.00    -0.368 OA
ATOM      4  O   UNL     1      -9.301  -9.188  14.663  0.00  0.00    -0.368 OA
ATOM     13  C   UNL     1      -8.944  -9.045  16.056  0.00  0.00    +0.177 C 
ATOM     14  C   UNL     1     -10.104  -8.344  16.734  0.00  0.00    +0.192 C 
ATOM     15  C   UNL     1      -8.894 -10.413  16.710  0.00  0.00    +0.168 C 
ATOM     16  C   UNL     1     -10.753  -7.594  15.595  0.00  0.00    +0.232 C 
ATOM     17  C   UNL     1     -10.346 -10.647  17.113  0.00  0.00    +0.190 C 
ATOM     18  C   UNL     1     -10.566  -8.551  14.440  0.00  0.00    +0.207 C 
ENDROOT
BRANCH  15   7
ATOM      7  N   UNL     1      -7.921 -10.476  17.802  0.00  0.00    -0.212 N 
ATOM      8  N   UNL     1      -8.322 -10.771  19.043  0.00  0.00    -0.043 NA
ATOM      9  N   UNL     1      -6.118 -10.436  18.997  0.00  0.00    -0.101 NA
ATOM     10  N   UNL     1      -7.213 -10.746  19.773  0.00  0.00    -0.022 NA
ATOM     19  C   UNL     1      -6.581 -10.274  17.780  0.00  0.00    +0.210 A 
BRANCH  19   1
ATOM      1  S   UNL     1      -5.690  -9.875  16.364  0.00  0.00    -0.077 S 
BRANCH   1  21
ATOM     21  C   UNL     1      -4.587 -11.312  16.209  0.00  0.00    +0.151 C 
BRANCH  21  23
ATOM      6  O   UNL     1      -3.111 -10.650  14.433  0.00  0.00    -0.467 OA
ATOM     23  C   UNL     1      -3.219 -10.900  15.750  0.00  0.00    +0.115 A 
ATOM     26  C   UNL     1      -2.052 -10.729  16.414  0.00  0.00    +0.045 A 
ATOM     29  C   UNL     1      -1.120 -10.334  15.425  0.00  0.00    +0.041 A 
ATOM     30  C   UNL     1      -1.813 -10.301  14.237  0.00  0.00    +0.195 A 
ENDBRANCH  21  23
ENDBRANCH   1  21
ENDBRANCH  19   1
ENDBRANCH  15   7
BRANCH  16   5
ATOM      5  O   UNL     1     -12.110  -7.291  15.819  0.00  0.00    -0.466 OA
BRANCH   5  20
ATOM      2  S   UNL     1     -14.169  -7.619  14.148  0.00  0.00    +0.006 S 
ATOM     20  C   UNL     1     -12.959  -6.730  14.890  0.00  0.00    +0.233 C 
BRANCH  20  11
ATOM     11  N   UNL     1     -12.789  -5.395  14.580  0.00  0.00    -0.279 N 
ATOM     33  H   UNL     1     -12.322  -4.851  15.302  0.00  0.00    +0.156 HD
BRANCH  11  22
ATOM     22  C   UNL     1     -13.152  -4.649  13.430  0.00  0.00    +0.035 A 
ATOM     24  C   UNL     1     -12.248  -4.529  12.390  0.00  0.00    +0.042 A 
ATOM     25  C   UNL     1     -14.402  -4.057  13.377  0.00  0.00    +0.023 A 
ATOM     27  C   UNL     1     -12.605  -3.792  11.260  0.00  0.00    +0.054 A 
ATOM     28  C   UNL     1     -14.759  -3.321  12.247  0.00  0.00    +0.003 A 
ATOM     31  C   UNL     1     -13.860  -3.188  11.188  0.00  0.00    +0.019 A 
BRANCH  27  32
ATOM     12  N   UNL     1     -10.936  -3.547   9.292  0.00  0.00    -0.191 NA
ATOM     32  C   UNL     1     -11.685  -3.657  10.175  0.00  0.00    +0.099 C 
ENDBRANCH  27  32
ENDBRANCH  11  22
ENDBRANCH  20  11
ENDBRANCH   5  20
ENDBRANCH  16   5
TORSDOF 9
ENDMDL
MODEL 5
REMARK VINA RESULT:      -6.6     19.788     22.318
REMARK  Name = 11879542
REMARK  9 active torsions:
REMARK  status: ('A' for Active; 'I' for Inactive)
REMARK    1  A    between atoms: S_1  and  C_19
REMARK    2  A    between atoms: S_1  and  C_21
REMARK    3  A    between atoms: O_5  and  C_16
REMARK    4  A    between atoms: O_5  and  C_20
REMARK    5  A    between atoms: N_7  and  C_15
REMARK    6  A    between atoms: N_11  and  C_20
REMARK    7  A    between atoms: N_11  and  C_22
REMARK    8  A    between atoms: C_21  and  C_23
REMARK    9  A    between atoms: C_27  and  C_32
REMARK                            x       y       z     vdW  Elec       q    Type
REMARK                         _______ _______ _______ _____ _____    ______ ____
ROOT
ATOM      3  O   UNL     1      -4.760 -10.918  12.623  0.00  0.00    -0.368 OA
ATOM      4  O   UNL     1      -2.333  -9.998  10.945  0.00  0.00    -0.368 OA
ATOM     13  C   UNL     1      -3.472 -10.830  10.629  0.00  0.00    +0.177 C 
ATOM     14  C   UNL     1      -3.777 -11.644  11.871  0.00  0.00    +0.192 C 
ATOM     15  C   UNL     1      -4.698  -9.959  10.436  0.00  0.00    +0.168 C 
ATOM     16  C   UNL     1      -2.445 -11.680  12.581  0.00  0.00    +0.232 C 
ATOM     17  C   UNL     1      -5.222  -9.795  11.858  0.00  0.00    +0.190 C 
ATOM     18  C   UNL     1      -1.883 -10.312  12.270  0.00  0.00    +0.207 C 
ENDROOT
BRANCH  15   7
ATOM      7  N   UNL     1      -5.647 -10.532   9.478  0.00  0.00    -0.212 N 
ATOM      8  N   UNL     1      -5.595 -11.835   9.180  0.00  0.00    -0.043 NA
ATOM      9  N   UNL     1      -7.238 -10.841   8.045  0.00  0.00    -0.101 NA
ATOM     10  N   UNL     1      -6.573 -12.020   8.300  0.00  0.00    -0.022 NA
ATOM     19  C   UNL     1      -6.647  -9.933   8.787  0.00  0.00    +0.210 A 
BRANCH  19   1
ATOM      1  S   UNL     1      -7.032  -8.262   8.903  0.00  0.00    -0.077 S 
BRANCH   1  21
ATOM     21  C   UNL     1      -8.849  -8.304   8.902  0.00  0.00    +0.151 C 
BRANCH  21  23
ATOM      6  O   UNL     1     -10.630  -6.791   9.463  0.00  0.00    -0.467 OA
ATOM     23  C   UNL     1      -9.425  -6.919   8.877  0.00  0.00    +0.115 A 
ATOM     26  C   UNL     1      -8.963  -5.752   8.370  0.00  0.00    +0.045 A 
ATOM     29  C   UNL     1      -9.967  -4.799   8.662  0.00  0.00    +0.041 A 
ATOM     30  C   UNL     1     -10.960  -5.480   9.327  0.00  0.00    +0.195 A 
ENDBRANCH  21  23
ENDBRANCH   1  21
ENDBRANCH  19   1
ENDBRANCH  15   7
BRANCH  16   5
ATOM      5  O   UNL     1      -2.551 -11.908  13.967  0.00  0.00    -0.466 OA
BRANCH   5  20
ATOM      2  S   UNL     1      -1.060 -10.575  15.740  0.00  0.00    +0.006 S 
ATOM     20  C   UNL     1      -2.486 -10.930  14.936  0.00  0.00    +0.233 C 
BRANCH  20  11
ATOM     11  N   UNL     1      -3.641 -10.235  15.235  0.00  0.00    -0.279 N 
ATOM     33  H   UNL     1      -3.882  -9.509  14.562  0.00  0.00    +0.156 HD
BRANCH  11  22
ATOM     22  C   UNL     1      -4.551 -10.354  16.314  0.00  0.00    +0.035 A 
ATOM     24  C   UNL     1      -5.779  -9.721  16.237  0.00  0.00    +0.042 A 
ATOM     25  C   UNL     1      -4.189 -11.101  17.423  0.00  0.00    +0.023 A 
ATOM     27  C   UNL     1      -6.673  -9.837  17.302  0.00  0.00    +0.054 A 
ATOM     28  C   UNL     1      -5.084 -11.217  18.487  0.00  0.00    +0.003 A 
ATOM     31  C   UNL     1      -6.326 -10.585  18.426  0.00  0.00    +0.019 A 
BRANCH  27  32
ATOM     12  N   UNL     1      -8.981  -8.663  17.188  0.00  0.00    -0.191 NA
ATOM     32  C   UNL     1      -7.946  -9.190  17.239  0.00  0.00    +0.099 C 
ENDBRANCH  27  32
ENDBRANCH  11  22
ENDBRANCH  20  11
ENDBRANCH   5  20
ENDBRANCH  16   5
TORSDOF 9
ENDMDL
MODEL 6
REMARK VINA RESULT:      -6.6     19.735     20.829
REMARK  Name = 11879542
REMARK  9 active torsions:
REMARK  status: ('A' for Active; 'I' for Inactive)
REMARK    1  A    between atoms: S_1  and  C_19
REMARK    2  A    between atoms: S_1  and  C_21
REMARK    3  A    between atoms: O_5  and  C_16
REMARK    4  A    between atoms: O_5  and  C_20
REMARK    5  A    between atoms: N_7  and  C_15
REMARK    6  A    between atoms: N_11  and  C_20
REMARK    7  A    between atoms: N_11  and  C_22
REMARK    8  A    between atoms: C_21  and  C_23
REMARK    9  A    between atoms: C_27  and  C_32
REMARK                            x       y       z     vdW  Elec       q    Type
REMARK                         _______ _______ _______ _____ _____    ______ ____
ROOT
ATOM      3  O   UNL     1      -4.111 -10.689  16.244  0.00  0.00    -0.368 OA
ATOM      4  O   UNL     1      -6.314 -12.303  14.795  0.00  0.00    -0.368 OA
ATOM     13  C   UNL     1      -5.983 -12.151  16.193  0.00  0.00    +0.177 C 
ATOM     14  C   UNL     1      -4.472 -12.078  16.281  0.00  0.00    +0.192 C 
ATOM     15  C   UNL     1      -6.457 -10.796  16.683  0.00  0.00    +0.168 C 
ATOM     16  C   UNL     1      -4.031 -12.803  15.031  0.00  0.00    +0.232 C 
ATOM     17  C   UNL     1      -5.294  -9.880  16.317  0.00  0.00    +0.190 C 
ATOM     18  C   UNL     1      -5.099 -12.403  14.040  0.00  0.00    +0.207 C 
ENDROOT
BRANCH  15   7
ATOM      7  N   UNL     1      -6.824 -10.809  18.100  0.00  0.00    -0.212 N 
ATOM      8  N   UNL     1      -5.914 -10.507  19.032  0.00  0.00    -0.043 NA
ATOM      9  N   UNL     1      -7.875 -10.978  19.984  0.00  0.00    -0.101 NA
ATOM     10  N   UNL     1      -6.563 -10.612  20.186  0.00  0.00    -0.022 NA
ATOM     19  C   UNL     1      -8.014 -11.093  18.683  0.00  0.00    +0.210 A 
BRANCH  19   1
ATOM      1  S   UNL     1      -9.433 -11.527  17.815  0.00  0.00    -0.077 S 
BRANCH   1  21
ATOM     21  C   UNL     1     -10.594 -10.232  18.344  0.00  0.00    +0.151 C 
BRANCH  21  23
ATOM      6  O   UNL     1     -11.514  -9.072  16.452  0.00  0.00    -0.467 OA
ATOM     23  C   UNL     1     -10.567  -9.061  17.406  0.00  0.00    +0.115 A 
ATOM     26  C   UNL     1      -9.760  -7.977  17.331  0.00  0.00    +0.045 A 
ATOM     29  C   UNL     1     -10.242  -7.233  16.227  0.00  0.00    +0.041 A 
ATOM     30  C   UNL     1     -11.309  -7.942  15.727  0.00  0.00    +0.195 A 
ENDBRANCH  21  23
ENDBRANCH   1  21
ENDBRANCH  19   1
ENDBRANCH  15   7
BRANCH  16   5
ATOM      5  O   UNL     1      -2.740 -12.443  14.597  0.00  0.00    -0.466 OA
BRANCH   5  20
ATOM      2  S   UNL     1      -1.854 -14.538  13.195  0.00  0.00    +0.006 S 
ATOM     20  C   UNL     1      -2.135 -12.907  13.448  0.00  0.00    +0.233 C 
BRANCH  20  11
ATOM     11  N   UNL     1      -1.761 -11.982  12.494  0.00  0.00    -0.279 N 
ATOM     33  H   UNL     1      -0.771 -11.744  12.504  0.00  0.00    +0.156 HD
BRANCH  11  22
ATOM     22  C   UNL     1      -2.514 -11.304  11.503  0.00  0.00    +0.035 A 
ATOM     24  C   UNL     1      -3.435 -12.014  10.752  0.00  0.00    +0.042 A 
ATOM     25  C   UNL     1      -2.309  -9.949  11.308  0.00  0.00    +0.023 A 
ATOM     27  C   UNL     1      -4.174 -11.346   9.775  0.00  0.00    +0.054 A 
ATOM     28  C   UNL     1      -3.050  -9.283  10.331  0.00  0.00    +0.003 A 
ATOM     31  C   UNL     1      -3.982  -9.981   9.564  0.00  0.00    +0.019 A 
BRANCH  27  32
ATOM     12  N   UNL     1      -5.907 -12.644   8.350  0.00  0.00    -0.191 NA
ATOM     32  C   UNL     1      -5.130 -12.062   8.989  0.00  0.00    +0.099 C 
ENDBRANCH  27  32
ENDBRANCH  11  22
ENDBRANCH  20  11
ENDBRANCH   5  20
ENDBRANCH  16   5
TORSDOF 9
ENDMDL
MODEL 7
REMARK VINA RESULT:      -6.5     21.667     24.513
REMARK  Name = 11879542
REMARK  9 active torsions:
REMARK  status: ('A' for Active; 'I' for Inactive)
REMARK    1  A    between atoms: S_1  and  C_19
REMARK    2  A    between atoms: S_1  and  C_21
REMARK    3  A    between atoms: O_5  and  C_16
REMARK    4  A    between atoms: O_5  and  C_20
REMARK    5  A    between atoms: N_7  and  C_15
REMARK    6  A    between atoms: N_11  and  C_20
REMARK    7  A    between atoms: N_11  and  C_22
REMARK    8  A    between atoms: C_21  and  C_23
REMARK    9  A    between atoms: C_27  and  C_32
REMARK                            x       y       z     vdW  Elec       q    Type
REMARK                         _______ _______ _______ _____ _____    ______ ____
ROOT
ATOM      3  O   UNL     1      -3.601  -9.251  11.616  0.00  0.00    -0.368 OA
ATOM      4  O   UNL     1      -3.124 -12.244  11.006  0.00  0.00    -0.368 OA
ATOM     13  C   UNL     1      -4.214 -11.350  10.686  0.00  0.00    +0.177 C 
ATOM     14  C   UNL     1      -4.385 -10.426  11.875  0.00  0.00    +0.192 C 
ATOM     15  C   UNL     1      -3.802 -10.434   9.550  0.00  0.00    +0.168 C 
ATOM     16  C   UNL     1      -3.814 -11.238  13.014  0.00  0.00    +0.232 C 
ATOM     17  C   UNL     1      -3.092  -9.296  10.275  0.00  0.00    +0.190 C 
ATOM     18  C   UNL     1      -2.675 -11.969  12.340  0.00  0.00    +0.207 C 
ENDROOT
BRANCH  15   7
ATOM      7  N   UNL     1      -4.936 -10.035   8.713  0.00  0.00    -0.212 N 
ATOM      8  N   UNL     1      -5.708  -9.005   9.076  0.00  0.00    -0.043 NA
ATOM      9  N   UNL     1      -6.429  -9.880   7.155  0.00  0.00    -0.101 NA
ATOM     10  N   UNL     1      -6.623  -8.914   8.117  0.00  0.00    -0.022 NA
ATOM     19  C   UNL     1      -5.377 -10.562   7.545  0.00  0.00    +0.210 A 
BRANCH  19   1
ATOM      1  S   UNL     1      -4.644 -11.901   6.755  0.00  0.00    -0.077 S 
BRANCH   1  21
ATOM     21  C   UNL     1      -5.320 -11.747   5.074  0.00  0.00    +0.151 C 
BRANCH  21  23
ATOM      6  O   UNL     1      -4.851 -12.425   2.817  0.00  0.00    -0.467 OA
ATOM     23  C   UNL     1      -4.340 -12.237   4.047  0.00  0.00    +0.115 A 
ATOM     26  C   UNL     1      -3.022 -12.532   4.119  0.00  0.00    +0.045 A 
ATOM     29  C   UNL     1      -2.665 -12.945   2.813  0.00  0.00    +0.041 A 
ATOM     30  C   UNL     1      -3.812 -12.862   2.059  0.00  0.00    +0.195 A 
ENDBRANCH  21  23
ENDBRANCH   1  21
ENDBRANCH  19   1
ENDBRANCH  15   7
BRANCH  16   5
ATOM      5  O   UNL     1      -3.374 -10.455  14.099  0.00  0.00    -0.466 OA
BRANCH   5  20
ATOM      2  S   UNL     1      -1.167 -10.620  15.597  0.00  0.00    +0.006 S 
ATOM     20  C   UNL     1      -2.769 -10.949  15.235  0.00  0.00    +0.233 C 
BRANCH  20  11
ATOM     11  N   UNL     1      -3.525 -11.732  16.084  0.00  0.00    -0.279 N 
ATOM     33  H   UNL     1      -3.388 -12.734  15.967  0.00  0.00    +0.156 HD
BRANCH  11  22
ATOM     22  C   UNL     1      -4.460 -11.386  17.091  0.00  0.00    +0.035 A 
ATOM     24  C   UNL     1      -5.549 -10.599  16.760  0.00  0.00    +0.042 A 
ATOM     25  C   UNL     1      -4.260 -11.841  18.384  0.00  0.00    +0.023 A 
ATOM     27  C   UNL     1      -6.468 -10.257  17.753  0.00  0.00    +0.054 A 
ATOM     28  C   UNL     1      -5.179 -11.498  19.376  0.00  0.00    +0.003 A 
ATOM     31  C   UNL     1      -6.283 -10.706  19.061  0.00  0.00    +0.019 A 
BRANCH  27  32
ATOM     12  N   UNL     1      -8.520  -8.786  17.167  0.00  0.00    -0.191 NA
ATOM     32  C   UNL     1      -7.599  -9.445  17.430  0.00  0.00    +0.099 C 
ENDBRANCH  27  32
ENDBRANCH  11  22
ENDBRANCH  20  11
ENDBRANCH   5  20
ENDBRANCH  16   5
TORSDOF 9
ENDMDL
MODEL 8
REMARK VINA RESULT:      -6.4     18.489     20.667
REMARK  Name = 11879542
REMARK  9 active torsions:
REMARK  status: ('A' for Active; 'I' for Inactive)
REMARK    1  A    between atoms: S_1  and  C_19
REMARK    2  A    between atoms: S_1  and  C_21
REMARK    3  A    between atoms: O_5  and  C_16
REMARK    4  A    between atoms: O_5  and  C_20
REMARK    5  A    between atoms: N_7  and  C_15
REMARK    6  A    between atoms: N_11  and  C_20
REMARK    7  A    between atoms: N_11  and  C_22
REMARK    8  A    between atoms: C_21  and  C_23
REMARK    9  A    between atoms: C_27  and  C_32
REMARK                            x       y       z     vdW  Elec       q    Type
REMARK                         _______ _______ _______ _____ _____    ______ ____
ROOT
ATOM      3  O   UNL     1      -6.420 -10.566  17.347  0.00  0.00    -0.368 OA
ATOM      4  O   UNL     1      -4.511 -11.962  19.337  0.00  0.00    -0.368 OA
ATOM     13  C   UNL     1      -5.051 -12.372  18.061  0.00  0.00    +0.177 C 
ATOM     14  C   UNL     1      -6.471 -11.845  17.997  0.00  0.00    +0.192 C 
ATOM     15  C   UNL     1      -4.326 -11.644  16.945  0.00  0.00    +0.168 C 
ATOM     16  C   UNL     1      -6.844 -11.715  19.455  0.00  0.00    +0.232 C 
ATOM     17  C   UNL     1      -5.097 -10.333  16.842  0.00  0.00    +0.190 C 
ATOM     18  C   UNL     1      -5.536 -11.288  20.079  0.00  0.00    +0.207 C 
ENDROOT
BRANCH  15   7
ATOM      7  N   UNL     1      -4.259 -12.432  15.713  0.00  0.00    -0.212 N 
ATOM      8  N   UNL     1      -4.902 -13.601  15.628  0.00  0.00    -0.043 NA
ATOM      9  N   UNL     1      -3.834 -13.161  13.721  0.00  0.00    -0.101 NA
ATOM     10  N   UNL     1      -4.639 -14.045  14.404  0.00  0.00    -0.022 NA
ATOM     19  C   UNL     1      -3.612 -12.169  14.551  0.00  0.00    +0.210 A 
BRANCH  19   1
ATOM      1  S   UNL     1      -2.673 -10.757  14.270  0.00  0.00    -0.077 S 
BRANCH   1  21
ATOM     21  C   UNL     1      -2.208 -10.968  12.526  0.00  0.00    +0.151 C 
BRANCH  21  23
ATOM      6  O   UNL     1      -4.320  -9.919  12.068  0.00  0.00    -0.467 OA
ATOM     23  C   UNL     1      -3.066 -10.125  11.628  0.00  0.00    +0.115 A 
ATOM     26  C   UNL     1      -2.820  -9.522  10.442  0.00  0.00    +0.045 A 
ATOM     29  C   UNL     1      -4.031  -8.874  10.100  0.00  0.00    +0.041 A 
ATOM     30  C   UNL     1      -4.912  -9.145  11.120  0.00  0.00    +0.195 A 
ENDBRANCH  21  23
ENDBRANCH   1  21
ENDBRANCH  19   1
ENDBRANCH  15   7
BRANCH  16   5
ATOM      5  O   UNL     1      -7.875 -10.786  19.693  0.00  0.00    -0.466 OA
BRANCH   5  20
ATOM      2  S   UNL     1      -9.832 -12.597  19.524  0.00  0.00    +0.006 S 
ATOM     20  C   UNL     1      -9.220 -11.038  19.529  0.00  0.00    +0.233 C 
BRANCH  20  11
ATOM     11  N   UNL     1     -10.067  -9.960  19.369  0.00  0.00    -0.279 N 
ATOM     33  H   UNL     1     -10.509  -9.640  20.228  0.00  0.00    +0.156 HD
BRANCH  11  22
ATOM     22  C   UNL     1     -10.431  -9.221  18.215  0.00  0.00    +0.035 A 
ATOM     24  C   UNL     1     -11.769  -9.095  17.888  0.00  0.00    +0.042 A 
ATOM     25  C   UNL     1      -9.438  -8.644  17.442  0.00  0.00    +0.023 A 
ATOM     27  C   UNL     1     -12.126  -8.369  16.751  0.00  0.00    +0.054 A 
ATOM     28  C   UNL     1      -9.796  -7.918  16.306  0.00  0.00    +0.003 A 
ATOM     31  C   UNL     1     -11.140  -7.781  15.960  0.00  0.00    +0.019 A 
BRANCH  27  32
ATOM     12  N   UNL     1     -14.624  -8.113  16.109  0.00  0.00    -0.191 NA
ATOM     32  C   UNL     1     -13.504  -8.228  16.397  0.00  0.00    +0.099 C 
ENDBRANCH  27  32
ENDBRANCH  11  22
ENDBRANCH  20  11
ENDBRANCH   5  20
ENDBRANCH  16   5
TORSDOF 9
ENDMDL
MODEL 9
REMARK VINA RESULT:      -6.3     19.393     20.637
REMARK  Name = 11879542
REMARK  9 active torsions:
REMARK  status: ('A' for Active; 'I' for Inactive)
REMARK    1  A    between atoms: S_1  and  C_19
REMARK    2  A    between atoms: S_1  and  C_21
REMARK    3  A    between atoms: O_5  and  C_16
REMARK    4  A    between atoms: O_5  and  C_20
REMARK    5  A    between atoms: N_7  and  C_15
REMARK    6  A    between atoms: N_11  and  C_20
REMARK    7  A    between atoms: N_11  and  C_22
REMARK    8  A    between atoms: C_21  and  C_23
REMARK    9  A    between atoms: C_27  and  C_32
REMARK                            x       y       z     vdW  Elec       q    Type
REMARK                         _______ _______ _______ _____ _____    ______ ____
ROOT
ATOM      3  O   UNL     1      -4.550 -12.917  17.555  0.00  0.00    -0.368 OA
ATOM      4  O   UNL     1      -4.253  -9.989  16.608  0.00  0.00    -0.368 OA
ATOM     13  C   UNL     1      -5.410 -10.791  16.936  0.00  0.00    +0.177 C 
ATOM     14  C   UNL     1      -5.120 -12.198  16.452  0.00  0.00    +0.192 C 
ATOM     15  C   UNL     1      -5.525 -10.924  18.442  0.00  0.00    +0.168 C 
ATOM     16  C   UNL     1      -4.110 -11.970  15.352  0.00  0.00    +0.232 C 
ATOM     17  C   UNL     1      -4.624 -12.117  18.744  0.00  0.00    +0.190 C 
ATOM     18  C   UNL     1      -3.315 -10.803  15.890  0.00  0.00    +0.207 C 
ENDROOT
BRANCH  15   7
ATOM      7  N   UNL     1      -6.914 -11.057  18.888  0.00  0.00    -0.212 N 
ATOM      8  N   UNL     1      -7.235 -11.956  19.825  0.00  0.00    -0.043 NA
ATOM      9  N   UNL     1      -9.048 -10.837  19.167  0.00  0.00    -0.101 NA
ATOM     10  N   UNL     1      -8.545 -11.817  19.993  0.00  0.00    -0.022 NA
ATOM     19  C   UNL     1      -8.019 -10.380  18.492  0.00  0.00    +0.210 A 
BRANCH  19   1
ATOM      1  S   UNL     1      -8.013  -9.140  17.301  0.00  0.00    -0.077 S 
BRANCH   1  21
ATOM     21  C   UNL     1      -9.389  -9.656  16.231  0.00  0.00    +0.151 C 
BRANCH  21  23
ATOM      6  O   UNL     1      -9.857  -7.302  16.334  0.00  0.00    -0.467 OA
ATOM     23  C   UNL     1     -10.187  -8.475  15.764  0.00  0.00    +0.115 A 
ATOM     26  C   UNL     1     -11.193  -8.356  14.866  0.00  0.00    +0.045 A 
ATOM     29  C   UNL     1     -11.530  -6.981  14.868  0.00  0.00    +0.041 A 
ATOM     30  C   UNL     1     -10.689  -6.383  15.778  0.00  0.00    +0.195 A 
ENDBRANCH  21  23
ENDBRANCH   1  21
ENDBRANCH  19   1
ENDBRANCH  15   7
BRANCH  16   5
ATOM      5  O   UNL     1      -3.298 -13.091  15.092  0.00  0.00    -0.466 OA
BRANCH   5  20
ATOM      2  S   UNL     1      -1.714 -14.672  13.632  0.00  0.00    +0.006 S 
ATOM     20  C   UNL     1      -2.888 -13.496  13.840  0.00  0.00    +0.233 C 
BRANCH  20  11
ATOM     11  N   UNL     1      -3.477 -12.902  12.741  0.00  0.00    -0.279 N 
ATOM     33  H   UNL     1      -4.299 -13.389  12.390  0.00  0.00    +0.156 HD
BRANCH  11  22
ATOM     22  C   UNL     1      -3.137 -11.734  12.015  0.00  0.00    +0.035 A 
ATOM     24  C   UNL     1      -3.905 -11.369  10.924  0.00  0.00    +0.042 A 
ATOM     25  C   UNL     1      -2.042 -10.986  12.414  0.00  0.00    +0.023 A 
ATOM     27  C   UNL     1      -3.567 -10.219  10.208  0.00  0.00    +0.054 A 
ATOM     28  C   UNL     1      -1.706  -9.837  11.699  0.00  0.00    +0.003 A 
ATOM     31  C   UNL     1      -2.468  -9.453  10.595  0.00  0.00    +0.019 A 
BRANCH  27  32
ATOM     12  N   UNL     1      -4.986  -9.507   8.160  0.00  0.00    -0.191 NA
ATOM     32  C   UNL     1      -4.349  -9.826   9.078  0.00  0.00    +0.099 C 
ENDBRANCH  27  32
ENDBRANCH  11  22
ENDBRANCH  20  11
ENDBRANCH   5  20
ENDBRANCH  16   5
TORSDOF 9
ENDMDL
MODEL 10
REMARK VINA RESULT:      -6.3     29.861     34.962
REMARK  Name = 11879542
REMARK  9 active torsions:
REMARK  status: ('A' for Active; 'I' for Inactive)
REMARK    1  A    between atoms: S_1  and  C_19
REMARK    2  A    between atoms: S_1  and  C_21
REMARK    3  A    between atoms: O_5  and  C_16
REMARK    4  A    between atoms: O_5  and  C_20
REMARK    5  A    between atoms: N_7  and  C_15
REMARK    6  A    between atoms: N_11  and  C_20
REMARK    7  A    between atoms: N_11  and  C_22
REMARK    8  A    between atoms: C_21  and  C_23
REMARK    9  A    between atoms: C_27  and  C_32
REMARK                            x       y       z     vdW  Elec       q    Type
REMARK                         _______ _______ _______ _____ _____    ______ ____
ROOT
ATOM      3  O   UNL     1      13.152   9.030   7.308  0.00  0.00    -0.368 OA
ATOM      4  O   UNL     1      13.272   7.366   4.706  0.00  0.00    -0.368 OA
ATOM     13  C   UNL     1      12.946   7.013   6.069  0.00  0.00    +0.177 C 
ATOM     14  C   UNL     1      13.859   7.830   6.962  0.00  0.00    +0.192 C 
ATOM     15  C   UNL     1      11.551   7.506   6.401  0.00  0.00    +0.168 C 
ATOM     16  C   UNL     1      15.037   8.116   6.061  0.00  0.00    +0.232 C 
ATOM     17  C   UNL     1      11.798   8.945   6.841  0.00  0.00    +0.190 C 
ATOM     18  C   UNL     1      14.372   8.285   4.715  0.00  0.00    +0.207 C 
ENDROOT
BRANCH  15   7
ATOM      7  N   UNL     1      10.876   6.656   7.384  0.00  0.00    -0.212 N 
ATOM      8  N   UNL     1      11.591   5.870   8.195  0.00  0.00    -0.043 NA
ATOM      9  N   UNL     1       9.412   5.638   8.610  0.00  0.00    -0.101 NA
ATOM     10  N   UNL     1      10.689   5.247   8.945  0.00  0.00    -0.022 NA
ATOM     19  C   UNL     1       9.553   6.512   7.640  0.00  0.00    +0.210 A 
BRANCH  19   1
ATOM      1  S   UNL     1       8.312   7.358   6.804  0.00  0.00    -0.077 S 
BRANCH   1  21
ATOM     21  C   UNL     1       7.918   6.196   5.462  0.00  0.00    +0.151 C 
BRANCH  21  23
ATOM      6  O   UNL     1       9.803   5.053   4.506  0.00  0.00    -0.467 OA
ATOM     23  C   UNL     1       9.021   6.146   4.445  0.00  0.00    +0.115 A 
ATOM     26  C   UNL     1       9.389   7.000   3.462  0.00  0.00    +0.045 A 
ATOM     29  C   UNL     1      10.507   6.391   2.844  0.00  0.00    +0.041 A 
ATOM     30  C   UNL     1      10.719   5.210   3.515  0.00  0.00    +0.195 A 
ENDBRANCH  21  23
ENDBRANCH   1  21
ENDBRANCH  19   1
ENDBRANCH  15   7
BRANCH  16   5
ATOM      5  O   UNL     1      15.771   9.257   6.439  0.00  0.00    -0.466 OA
BRANCH   5  20
ATOM      2  S   UNL     1      17.234  11.399   5.797  0.00  0.00    +0.006 S 
ATOM     20  C   UNL     1      16.846   9.771   5.746  0.00  0.00    +0.233 C 
BRANCH  20  11
ATOM     11  N   UNL     1      17.611   8.898   4.997  0.00  0.00    -0.279 N 
ATOM     33  H   UNL     1      17.162   8.571   4.144  0.00  0.00    +0.156 HD
BRANCH  11  22
ATOM     22  C   UNL     1      18.912   8.378   5.208  0.00  0.00    +0.035 A 
ATOM     24  C   UNL     1      19.589   7.799   4.150  0.00  0.00    +0.042 A 
ATOM     25  C   UNL     1      19.475   8.461   6.471  0.00  0.00    +0.023 A 
ATOM     27  C   UNL     1      20.869   7.286   4.360  0.00  0.00    +0.054 A 
ATOM     28  C   UNL     1      20.755   7.947   6.680  0.00  0.00    +0.003 A 
ATOM     31  C   UNL     1      21.452   7.359   5.624  0.00  0.00    +0.019 A 
BRANCH  27  32
ATOM     12  N   UNL     1      22.165   6.195   2.398  0.00  0.00    -0.191 NA
ATOM     32  C   UNL     1      21.583   6.684   3.278  0.00  0.00    +0.099 C 
ENDBRANCH  27  32
ENDBRANCH  11  22
ENDBRANCH  20  11
ENDBRANCH   5  20
ENDBRANCH  16   5
TORSDOF 9
ENDMDL
