MODEL 1
REMARK VINA RESULT:      -7.3      0.000      0.000
REMARK  Name = 45361026
REMARK  9 active torsions:
REMARK  status: ('A' for Active; 'I' for Inactive)
REMARK    1  A    between atoms: N_4  and  C_15
REMARK    2  A    between atoms: N_5  and  C_17
REMARK    3  A    between atoms: N_7  and  C_26
REMARK    4  A    between atoms: C_12  and  C_16
REMARK    5  A    between atoms: C_15  and  C_19
REMARK    6  A    between atoms: C_16  and  C_18
REMARK    7  A    between atoms: C_18  and  C_20
REMARK    8  A    between atoms: C_25  and  C_27
REMARK    9  A    between atoms: C_26  and  C_28
REMARK                            x       y       z     vdW  Elec       q    Type
REMARK                         _______ _______ _______ _____ _____    ______ ____
ROOT
ATOM      2  O   UNL     1      14.305  10.228  22.225  0.00  0.00    -0.274 OA
ATOM      4  N   UNL     1      11.925   9.236  21.422  0.00  0.00    -0.286 NA
ATOM      5  N   UNL     1      14.488   7.607  19.381  0.00  0.00    -0.296 NA
ATOM      6  N   UNL     1      15.426   8.242  22.035  0.00  0.00    -0.312 N 
ATOM      8  C   UNL     1      13.156   7.683  20.021  0.00  0.00    +0.084 C 
ATOM      9  C   UNL     1      13.055   8.289  21.452  0.00  0.00    +0.161 C 
ATOM     10  C   UNL     1      12.136   8.533  19.240  0.00  0.00    +0.036 C 
ATOM     11  C   UNL     1      11.091   8.873  20.282  0.00  0.00    +0.087 C 
ATOM     12  C   UNL     1      15.458   6.719  20.081  0.00  0.00    +0.074 C 
ATOM     13  C   UNL     1      14.298   9.034  21.927  0.00  0.00    +0.232 C 
ATOM     14  C   UNL     1      15.471   6.855  21.616  0.00  0.00    +0.123 C 
ATOM     17  C   UNL     1      14.368   7.216  17.966  0.00  0.00    +0.105 C 
ATOM     32  H   UNL     1      16.284   8.672  22.368  0.00  0.00    +0.149 HD
ENDROOT
BRANCH   4  15
ATOM     15  C   UNL     1      11.168   9.271  22.667  0.00  0.00    +0.120 C 
BRANCH  15  19
ATOM     19  C   UNL     1      11.066  10.666  23.222  0.00  0.00    -0.033 A 
ATOM     21  C   UNL     1      11.013  10.867  24.602  0.00  0.00    +0.005 A 
ATOM     22  C   UNL     1      11.020  11.760  22.356  0.00  0.00    +0.005 A 
ATOM     23  C   UNL     1      10.915  12.160  25.115  0.00  0.00    +0.003 A 
ATOM     24  C   UNL     1      10.922  13.053  22.870  0.00  0.00    +0.003 A 
ATOM     25  C   UNL     1      10.871  13.253  24.250  0.00  0.00    -0.050 A 
ATOM     27  C   UNL     1      10.766  14.635  24.799  0.00  0.00    +0.044 C 
ENDBRANCH  15  19
ENDBRANCH   4  15
BRANCH  12  16
ATOM     16  C   UNL     1      16.893   6.987  19.579  0.00  0.00    +0.029 C 
BRANCH  16  18
ATOM     18  C   UNL     1      17.813   5.837  19.948  0.00  0.00    +0.097 C 
BRANCH  18  20
ATOM      3  O   UNL     1      18.995   7.091  21.650  0.00  0.00    -0.276 OA
ATOM      7  N   UNL     1      20.208   5.795  20.155  0.00  0.00    -0.311 N 
ATOM     20  C   UNL     1      19.044   6.323  20.693  0.00  0.00    +0.213 C 
ATOM     33  H   UNL     1      20.151   5.152  19.370  0.00  0.00    +0.149 HD
BRANCH   7  26
ATOM     26  C   UNL     1      21.514   6.106  20.687  0.00  0.00    +0.146 C 
BRANCH  26  28
ATOM      1  S   UNL     1      22.747   5.630  23.134  0.00  0.00    -0.100 S 
ATOM     28  C   UNL     1      21.958   5.096  21.711  0.00  0.00    +0.007 A 
ATOM     29  C   UNL     1      21.819   3.725  21.680  0.00  0.00    +0.013 A 
ATOM     30  C   UNL     1      22.370   3.106  22.839  0.00  0.00    +0.008 A 
ATOM     31  C   UNL     1      22.907   4.026  23.712  0.00  0.00    +0.045 A 
ENDBRANCH  26  28
ENDBRANCH   7  26
ENDBRANCH  18  20
ENDBRANCH  16  18
ENDBRANCH  12  16
TORSDOF 7
ENDMDL
MODEL 2
REMARK VINA RESULT:      -7.1     27.938     31.760
REMARK  Name = 45361026
REMARK  9 active torsions:
REMARK  status: ('A' for Active; 'I' for Inactive)
REMARK    1  A    between atoms: N_4  and  C_15
REMARK    2  A    between atoms: N_5  and  C_17
REMARK    3  A    between atoms: N_7  and  C_26
REMARK    4  A    between atoms: C_12  and  C_16
REMARK    5  A    between atoms: C_15  and  C_19
REMARK    6  A    between atoms: C_16  and  C_18
REMARK    7  A    between atoms: C_18  and  C_20
REMARK    8  A    between atoms: C_25  and  C_27
REMARK    9  A    between atoms: C_26  and  C_28
REMARK                            x       y       z     vdW  Elec       q    Type
REMARK                         _______ _______ _______ _____ _____    ______ ____
ROOT
ATOM      2  O   UNL     1     -13.308   4.704  23.136  0.00  0.00    -0.274 OA
ATOM      4  N   UNL     1     -14.822   6.544  21.866  0.00  0.00    -0.286 NA
ATOM      5  N   UNL     1     -17.008   3.700  22.592  0.00  0.00    -0.296 NA
ATOM      6  N   UNL     1     -14.953   4.054  24.588  0.00  0.00    -0.312 N 
ATOM      8  C   UNL     1     -16.742   5.129  22.315  0.00  0.00    +0.084 C 
ATOM      9  C   UNL     1     -15.479   5.785  22.946  0.00  0.00    +0.161 C 
ATOM     10  C   UNL     1     -16.558   5.451  20.820  0.00  0.00    +0.036 C 
ATOM     11  C   UNL     1     -15.826   6.776  20.834  0.00  0.00    +0.087 C 
ATOM     12  C   UNL     1     -17.272   3.389  24.025  0.00  0.00    +0.074 C 
ATOM     13  C   UNL     1     -14.468   4.805  23.533  0.00  0.00    +0.232 C 
ATOM     14  C   UNL     1     -16.335   4.092  25.026  0.00  0.00    +0.123 C 
ATOM     17  C   UNL     1     -18.106   3.197  21.750  0.00  0.00    +0.105 C 
ATOM     32  H   UNL     1     -14.323   3.398  25.039  0.00  0.00    +0.149 HD
ENDROOT
BRANCH   4  15
ATOM     15  C   UNL     1     -14.207   7.783  22.323  0.00  0.00    +0.120 C 
BRANCH  15  19
ATOM     19  C   UNL     1     -13.101   8.232  21.405  0.00  0.00    -0.033 A 
ATOM     21  C   UNL     1     -12.923   9.589  21.139  0.00  0.00    +0.005 A 
ATOM     22  C   UNL     1     -12.257   7.289  20.818  0.00  0.00    +0.005 A 
ATOM     23  C   UNL     1     -11.900  10.004  20.285  0.00  0.00    +0.003 A 
ATOM     24  C   UNL     1     -11.234   7.703  19.965  0.00  0.00    +0.003 A 
ATOM     25  C   UNL     1     -11.055   9.062  19.699  0.00  0.00    -0.050 A 
ATOM     27  C   UNL     1      -9.962   9.505  18.787  0.00  0.00    +0.044 C 
ENDBRANCH  15  19
ENDBRANCH   4  15
BRANCH  12  16
ATOM     16  C   UNL     1     -17.164   1.869  24.276  0.00  0.00    +0.029 C 
BRANCH  16  18
ATOM     18  C   UNL     1     -18.488   1.311  24.764  0.00  0.00    +0.097 C 
BRANCH  18  20
ATOM      3  O   UNL     1     -18.766  -0.530  26.312  0.00  0.00    -0.276 OA
ATOM      7  N   UNL     1     -17.668   1.388  27.023  0.00  0.00    -0.311 N 
ATOM     20  C   UNL     1     -18.338   0.601  26.097  0.00  0.00    +0.213 C 
ATOM     33  H   UNL     1     -17.335   2.308  26.750  0.00  0.00    +0.149 HD
BRANCH   7  26
ATOM     26  C   UNL     1     -17.400   0.937  28.368  0.00  0.00    +0.146 C 
BRANCH  26  28
ATOM      1  S   UNL     1     -15.138   0.733  29.973  0.00  0.00    -0.100 S 
ATOM     28  C   UNL     1     -16.196   1.620  28.959  0.00  0.00    +0.007 A 
ATOM     29  C   UNL     1     -15.788   2.926  28.803  0.00  0.00    +0.013 A 
ATOM     30  C   UNL     1     -14.591   3.203  29.526  0.00  0.00    +0.008 A 
ATOM     31  C   UNL     1     -14.131   2.098  30.205  0.00  0.00    +0.045 A 
ENDBRANCH  26  28
ENDBRANCH   7  26
ENDBRANCH  18  20
ENDBRANCH  16  18
ENDBRANCH  12  16
TORSDOF 7
ENDMDL
MODEL 3
REMARK VINA RESULT:      -6.8      3.722     10.764
REMARK  Name = 45361026
REMARK  9 active torsions:
REMARK  status: ('A' for Active; 'I' for Inactive)
REMARK    1  A    between atoms: N_4  and  C_15
REMARK    2  A    between atoms: N_5  and  C_17
REMARK    3  A    between atoms: N_7  and  C_26
REMARK    4  A    between atoms: C_12  and  C_16
REMARK    5  A    between atoms: C_15  and  C_19
REMARK    6  A    between atoms: C_16  and  C_18
REMARK    7  A    between atoms: C_18  and  C_20
REMARK    8  A    between atoms: C_25  and  C_27
REMARK    9  A    between atoms: C_26  and  C_28
REMARK                            x       y       z     vdW  Elec       q    Type
REMARK                         _______ _______ _______ _____ _____    ______ ____
ROOT
ATOM      2  O   UNL     1      20.218   6.271  23.982  0.00  0.00    -0.274 OA
ATOM      4  N   UNL     1      21.268   5.300  21.691  0.00  0.00    -0.286 NA
ATOM      5  N   UNL     1      18.138   6.970  20.792  0.00  0.00    -0.296 NA
ATOM      6  N   UNL     1      19.447   8.211  23.045  0.00  0.00    -0.312 N 
ATOM      8  C   UNL     1      19.498   6.461  20.505  0.00  0.00    +0.084 C 
ATOM      9  C   UNL     1      20.592   6.608  21.602  0.00  0.00    +0.161 C 
ATOM     10  C   UNL     1      19.548   4.952  20.202  0.00  0.00    +0.036 C 
ATOM     11  C   UNL     1      20.998   4.592  20.445  0.00  0.00    +0.087 C 
ATOM     12  C   UNL     1      18.064   8.443  21.003  0.00  0.00    +0.074 C 
ATOM     13  C   UNL     1      20.072   6.979  22.987  0.00  0.00    +0.232 C 
ATOM     14  C   UNL     1      19.188   9.031  21.878  0.00  0.00    +0.123 C 
ATOM     17  C   UNL     1      17.191   6.556  19.744  0.00  0.00    +0.105 C 
ATOM     32  H   UNL     1      19.097   8.529  23.944  0.00  0.00    +0.149 HD
ENDROOT
BRANCH   4  15
ATOM     15  C   UNL     1      22.695   5.405  21.965  0.00  0.00    +0.120 C 
BRANCH  15  19
ATOM     19  C   UNL     1      23.366   4.058  21.968  0.00  0.00    -0.033 A 
ATOM     21  C   UNL     1      24.310   3.746  20.989  0.00  0.00    +0.005 A 
ATOM     22  C   UNL     1      23.042   3.119  22.948  0.00  0.00    +0.005 A 
ATOM     23  C   UNL     1      24.929   2.496  20.990  0.00  0.00    +0.003 A 
ATOM     24  C   UNL     1      23.661   1.869  22.949  0.00  0.00    +0.003 A 
ATOM     25  C   UNL     1      24.606   1.558  21.970  0.00  0.00    -0.050 A 
ATOM     27  C   UNL     1      25.268   0.222  21.971  0.00  0.00    +0.044 C 
ENDBRANCH  15  19
ENDBRANCH   4  15
BRANCH  12  16
ATOM     16  C   UNL     1      16.718   8.827  21.655  0.00  0.00    +0.029 C 
BRANCH  16  18
ATOM     18  C   UNL     1      16.371  10.274  21.354  0.00  0.00    +0.097 C 
BRANCH  18  20
ATOM      3  O   UNL     1      14.381  11.467  20.660  0.00  0.00    -0.276 OA
ATOM      7  N   UNL     1      14.500   9.174  20.319  0.00  0.00    -0.311 N 
ATOM     20  C   UNL     1      14.985  10.401  20.748  0.00  0.00    +0.213 C 
ATOM     33  H   UNL     1      15.078   8.344  20.418  0.00  0.00    +0.149 HD
BRANCH   7  26
ATOM     26  C   UNL     1      13.201   9.030  19.706  0.00  0.00    +0.146 C 
BRANCH  26  28
ATOM      1  S   UNL     1      10.982   8.732  21.357  0.00  0.00    -0.100 S 
ATOM     28  C   UNL     1      12.313   8.097  20.486  0.00  0.00    +0.007 A 
ATOM     29  C   UNL     1      12.411   6.729  20.615  0.00  0.00    +0.013 A 
ATOM     30  C   UNL     1      11.380   6.195  21.442  0.00  0.00    +0.008 A 
ATOM     31  C   UNL     1      10.534   7.175  21.910  0.00  0.00    +0.045 A 
ENDBRANCH  26  28
ENDBRANCH   7  26
ENDBRANCH  18  20
ENDBRANCH  16  18
ENDBRANCH  12  16
TORSDOF 7
ENDMDL
MODEL 4
REMARK VINA RESULT:      -6.7     27.254     30.197
REMARK  Name = 45361026
REMARK  9 active torsions:
REMARK  status: ('A' for Active; 'I' for Inactive)
REMARK    1  A    between atoms: N_4  and  C_15
REMARK    2  A    between atoms: N_5  and  C_17
REMARK    3  A    between atoms: N_7  and  C_26
REMARK    4  A    between atoms: C_12  and  C_16
REMARK    5  A    between atoms: C_15  and  C_19
REMARK    6  A    between atoms: C_16  and  C_18
REMARK    7  A    between atoms: C_18  and  C_20
REMARK    8  A    between atoms: C_25  and  C_27
REMARK    9  A    between atoms: C_26  and  C_28
REMARK                            x       y       z     vdW  Elec       q    Type
REMARK                         _______ _______ _______ _____ _____    ______ ____
ROOT
ATOM      2  O   UNL     1      -5.901  -9.522  13.234  0.00  0.00    -0.274 OA
ATOM      4  N   UNL     1      -3.778 -10.635  11.990  0.00  0.00    -0.286 NA
ATOM      5  N   UNL     1      -3.093 -10.786  15.582  0.00  0.00    -0.296 NA
ATOM      6  N   UNL     1      -5.908 -10.999  14.982  0.00  0.00    -0.312 N 
ATOM      8  C   UNL     1      -2.938 -11.245  14.183  0.00  0.00    +0.084 C 
ATOM      9  C   UNL     1      -4.193 -11.255  13.262  0.00  0.00    +0.161 C 
ATOM     10  C   UNL     1      -1.941 -10.409  13.359  0.00  0.00    +0.036 C 
ATOM     11  C   UNL     1      -2.324 -10.718  11.927  0.00  0.00    +0.087 C 
ATOM     12  C   UNL     1      -3.989 -11.636  16.414  0.00  0.00    +0.074 C 
ATOM     13  C   UNL     1      -5.397 -10.489  13.803  0.00  0.00    +0.232 C 
ATOM     14  C   UNL     1      -5.289 -12.084  15.718  0.00  0.00    +0.123 C 
ATOM     17  C   UNL     1      -1.781 -10.636  16.233  0.00  0.00    +0.105 C 
ATOM     32  H   UNL     1      -6.724 -10.549  15.385  0.00  0.00    +0.149 HD
ENDROOT
BRANCH   4  15
ATOM     15  C   UNL     1      -4.414 -11.232  10.822  0.00  0.00    +0.120 C 
BRANCH  15  19
ATOM     19  C   UNL     1      -5.315 -10.256  10.114  0.00  0.00    -0.033 A 
ATOM     21  C   UNL     1      -6.526 -10.690   9.575  0.00  0.00    +0.005 A 
ATOM     22  C   UNL     1      -4.936  -8.919   9.993  0.00  0.00    +0.005 A 
ATOM     23  C   UNL     1      -7.359  -9.785   8.916  0.00  0.00    +0.003 A 
ATOM     24  C   UNL     1      -5.769  -8.015   9.333  0.00  0.00    +0.003 A 
ATOM     25  C   UNL     1      -6.981  -8.449   8.796  0.00  0.00    -0.050 A 
ATOM     27  C   UNL     1      -7.872  -7.482   8.091  0.00  0.00    +0.044 C 
ENDBRANCH  15  19
ENDBRANCH   4  15
BRANCH  12  16
ATOM     16  C   UNL     1      -4.387 -10.896  17.708  0.00  0.00    +0.029 C 
BRANCH  16  18
ATOM     18  C   UNL     1      -4.604 -11.880  18.843  0.00  0.00    +0.097 C 
BRANCH  18  20
ATOM      3  O   UNL     1      -5.905 -11.342  20.814  0.00  0.00    -0.276 OA
ATOM      7  N   UNL     1      -6.991 -11.603  18.780  0.00  0.00    -0.311 N 
ATOM     20  C   UNL     1      -5.879 -11.577  19.609  0.00  0.00    +0.213 C 
ATOM     33  H   UNL     1      -6.873 -11.791  17.788  0.00  0.00    +0.149 HD
BRANCH   7  26
ATOM     26  C   UNL     1      -8.325 -11.347  19.270  0.00  0.00    +0.146 C 
BRANCH  26  28
ATOM      1  S   UNL     1      -8.109  -9.333  17.366  0.00  0.00    -0.100 S 
ATOM     28  C   UNL     1      -9.010 -10.257  18.491  0.00  0.00    +0.007 A 
ATOM     29  C   UNL     1     -10.330  -9.864  18.544  0.00  0.00    +0.013 A 
ATOM     30  C   UNL     1     -10.603  -8.789  17.650  0.00  0.00    +0.008 A 
ATOM     31  C   UNL     1      -9.484  -8.402  16.948  0.00  0.00    +0.045 A 
ENDBRANCH  26  28
ENDBRANCH   7  26
ENDBRANCH  18  20
ENDBRANCH  16  18
ENDBRANCH  12  16
TORSDOF 7
ENDMDL
MODEL 5
REMARK VINA RESULT:      -6.5      2.105      2.930
REMARK  Name = 45361026
REMARK  9 active torsions:
REMARK  status: ('A' for Active; 'I' for Inactive)
REMARK    1  A    between atoms: N_4  and  C_15
REMARK    2  A    between atoms: N_5  and  C_17
REMARK    3  A    between atoms: N_7  and  C_26
REMARK    4  A    between atoms: C_12  and  C_16
REMARK    5  A    between atoms: C_15  and  C_19
REMARK    6  A    between atoms: C_16  and  C_18
REMARK    7  A    between atoms: C_18  and  C_20
REMARK    8  A    between atoms: C_25  and  C_27
REMARK    9  A    between atoms: C_26  and  C_28
REMARK                            x       y       z     vdW  Elec       q    Type
REMARK                         _______ _______ _______ _____ _____    ______ ____
ROOT
ATOM      2  O   UNL     1      15.935   9.797  21.415  0.00  0.00    -0.274 OA
ATOM      4  N   UNL     1      13.896   8.170  20.717  0.00  0.00    -0.286 NA
ATOM      5  N   UNL     1      16.971   6.563  19.554  0.00  0.00    -0.296 NA
ATOM      6  N   UNL     1      17.369   8.100  21.964  0.00  0.00    -0.312 N 
ATOM      8  C   UNL     1      15.560   6.556  19.998  0.00  0.00    +0.084 C 
ATOM      9  C   UNL     1      15.141   7.512  21.154  0.00  0.00    +0.161 C 
ATOM     10  C   UNL     1      14.555   6.931  18.892  0.00  0.00    +0.036 C 
ATOM     11  C   UNL     1      13.319   7.341  19.664  0.00  0.00    +0.087 C 
ATOM     12  C   UNL     1      17.946   6.121  20.590  0.00  0.00    +0.074 C 
ATOM     13  C   UNL     1      16.162   8.591  21.501  0.00  0.00    +0.232 C 
ATOM     14  C   UNL     1      17.695   6.688  22.001  0.00  0.00    +0.123 C 
ATOM     17  C   UNL     1      17.138   5.771  18.324  0.00  0.00    +0.105 C 
ATOM     32  H   UNL     1      18.085   8.767  22.234  0.00  0.00    +0.149 HD
ENDROOT
BRANCH   4  15
ATOM     15  C   UNL     1      12.956   8.409  21.805  0.00  0.00    +0.120 C 
BRANCH  15  19
ATOM     19  C   UNL     1      12.392   9.804  21.762  0.00  0.00    -0.033 A 
ATOM     21  C   UNL     1      12.739  10.666  20.722  0.00  0.00    +0.005 A 
ATOM     22  C   UNL     1      11.523  10.235  22.765  0.00  0.00    +0.005 A 
ATOM     23  C   UNL     1      12.218  11.959  20.685  0.00  0.00    +0.003 A 
ATOM     24  C   UNL     1      11.002  11.529  22.728  0.00  0.00    +0.003 A 
ATOM     25  C   UNL     1      11.350  12.390  21.687  0.00  0.00    -0.050 A 
ATOM     27  C   UNL     1      10.793  13.773  21.647  0.00  0.00    +0.044 C 
ENDBRANCH  15  19
ENDBRANCH   4  15
BRANCH  12  16
ATOM     16  C   UNL     1      19.382   6.511  20.181  0.00  0.00    +0.029 C 
BRANCH  16  18
ATOM     18  C   UNL     1      20.396   5.878  21.116  0.00  0.00    +0.097 C 
BRANCH  18  20
ATOM      3  O   UNL     1      22.298   6.863  19.985  0.00  0.00    -0.276 OA
ATOM      7  N   UNL     1      22.397   4.636  20.632  0.00  0.00    -0.311 N 
ATOM     20  C   UNL     1      21.789   5.877  20.512  0.00  0.00    +0.213 C 
ATOM     33  H   UNL     1      21.906   3.880  21.100  0.00  0.00    +0.149 HD
BRANCH   7  26
ATOM     26  C   UNL     1      23.728   4.378  20.134  0.00  0.00    +0.146 C 
BRANCH  26  28
ATOM      1  S   UNL     1      25.970   3.081  21.147  0.00  0.00    -0.100 S 
ATOM     28  C   UNL     1      24.312   3.120  20.718  0.00  0.00    +0.007 A 
ATOM     29  C   UNL     1      23.682   1.922  20.977  0.00  0.00    +0.013 A 
ATOM     30  C   UNL     1      24.574   0.960  21.535  0.00  0.00    +0.008 A 
ATOM     31  C   UNL     1      25.848   1.459  21.680  0.00  0.00    +0.045 A 
ENDBRANCH  26  28
ENDBRANCH   7  26
ENDBRANCH  18  20
ENDBRANCH  16  18
ENDBRANCH  12  16
TORSDOF 7
ENDMDL
MODEL 6
REMARK VINA RESULT:      -6.5      3.113     11.126
REMARK  Name = 45361026
REMARK  9 active torsions:
REMARK  status: ('A' for Active; 'I' for Inactive)
REMARK    1  A    between atoms: N_4  and  C_15
REMARK    2  A    between atoms: N_5  and  C_17
REMARK    3  A    between atoms: N_7  and  C_26
REMARK    4  A    between atoms: C_12  and  C_16
REMARK    5  A    between atoms: C_15  and  C_19
REMARK    6  A    between atoms: C_16  and  C_18
REMARK    7  A    between atoms: C_18  and  C_20
REMARK    8  A    between atoms: C_25  and  C_27
REMARK    9  A    between atoms: C_26  and  C_28
REMARK                            x       y       z     vdW  Elec       q    Type
REMARK                         _______ _______ _______ _____ _____    ______ ____
ROOT
ATOM      2  O   UNL     1      20.078   6.296  23.735  0.00  0.00    -0.274 OA
ATOM      4  N   UNL     1      20.955   5.390  21.347  0.00  0.00    -0.286 NA
ATOM      5  N   UNL     1      17.682   6.918  20.758  0.00  0.00    -0.296 NA
ATOM      6  N   UNL     1      19.135   8.204  22.894  0.00  0.00    -0.312 N 
ATOM      8  C   UNL     1      19.031   6.475  20.341  0.00  0.00    +0.084 C 
ATOM      9  C   UNL     1      20.214   6.665  21.334  0.00  0.00    +0.161 C 
ATOM     10  C   UNL     1      19.122   4.971  20.019  0.00  0.00    +0.036 C 
ATOM     11  C   UNL     1      20.603   4.678  20.124  0.00  0.00    +0.087 C 
ATOM     12  C   UNL     1      17.560   8.385  20.991  0.00  0.00    +0.074 C 
ATOM     13  C   UNL     1      19.808   7.003  22.766  0.00  0.00    +0.232 C 
ATOM     14  C   UNL     1      18.732   9.019  21.765  0.00  0.00    +0.123 C 
ATOM     17  C   UNL     1      16.662   6.467  19.797  0.00  0.00    +0.105 C 
ATOM     32  H   UNL     1      18.856   8.499  23.825  0.00  0.00    +0.149 HD
ENDROOT
BRANCH   4  15
ATOM     15  C   UNL     1      22.395   5.560  21.490  0.00  0.00    +0.120 C 
BRANCH  15  19
ATOM     19  C   UNL     1      23.110   4.237  21.573  0.00  0.00    -0.033 A 
ATOM     21  C   UNL     1      23.987   3.853  20.559  0.00  0.00    +0.005 A 
ATOM     22  C   UNL     1      22.892   3.395  22.664  0.00  0.00    +0.005 A 
ATOM     23  C   UNL     1      24.647   2.626  20.636  0.00  0.00    +0.003 A 
ATOM     24  C   UNL     1      23.551   2.168  22.741  0.00  0.00    +0.003 A 
ATOM     25  C   UNL     1      24.430   1.784  21.726  0.00  0.00    -0.050 A 
ATOM     27  C   UNL     1      25.135   0.473  21.808  0.00  0.00    +0.044 C 
ENDBRANCH  15  19
ENDBRANCH   4  15
BRANCH  12  16
ATOM     16  C   UNL     1      16.265   8.701  21.768  0.00  0.00    +0.029 C 
BRANCH  16  18
ATOM     18  C   UNL     1      15.763  10.094  21.429  0.00  0.00    +0.097 C 
BRANCH  18  20
ATOM      3  O   UNL     1      13.752  10.361  20.107  0.00  0.00    -0.276 OA
ATOM      7  N   UNL     1      13.563   9.797  22.351  0.00  0.00    -0.311 N 
ATOM     20  C   UNL     1      14.264  10.105  21.194  0.00  0.00    +0.213 C 
ATOM     33  H   UNL     1      14.072   9.583  23.203  0.00  0.00    +0.149 HD
BRANCH   7  26
ATOM     26  C   UNL     1      12.120   9.744  22.387  0.00  0.00    +0.146 C 
BRANCH  26  28
ATOM      1  S   UNL     1      11.244  12.359  22.030  0.00  0.00    -0.100 S 
ATOM     28  C   UNL     1      11.529  10.981  23.007  0.00  0.00    +0.007 A 
ATOM     29  C   UNL     1      11.158  11.191  24.317  0.00  0.00    +0.013 A 
ATOM     30  C   UNL     1      10.634  12.500  24.522  0.00  0.00    +0.008 A 
ATOM     31  C   UNL     1      10.624  13.240  23.361  0.00  0.00    +0.045 A 
ENDBRANCH  26  28
ENDBRANCH   7  26
ENDBRANCH  18  20
ENDBRANCH  16  18
ENDBRANCH  12  16
TORSDOF 7
ENDMDL
MODEL 7
REMARK VINA RESULT:      -6.5     28.472     30.837
REMARK  Name = 45361026
REMARK  9 active torsions:
REMARK  status: ('A' for Active; 'I' for Inactive)
REMARK    1  A    between atoms: N_4  and  C_15
REMARK    2  A    between atoms: N_5  and  C_17
REMARK    3  A    between atoms: N_7  and  C_26
REMARK    4  A    between atoms: C_12  and  C_16
REMARK    5  A    between atoms: C_15  and  C_19
REMARK    6  A    between atoms: C_16  and  C_18
REMARK    7  A    between atoms: C_18  and  C_20
REMARK    8  A    between atoms: C_25  and  C_27
REMARK    9  A    between atoms: C_26  and  C_28
REMARK                            x       y       z     vdW  Elec       q    Type
REMARK                         _______ _______ _______ _____ _____    ______ ____
ROOT
ATOM      2  O   UNL     1      -5.994 -10.154  13.184  0.00  0.00    -0.274 OA
ATOM      4  N   UNL     1      -3.769 -11.491  13.927  0.00  0.00    -0.286 NA
ATOM      5  N   UNL     1      -4.313 -12.237  10.386  0.00  0.00    -0.296 NA
ATOM      6  N   UNL     1      -5.208  -9.591  11.110  0.00  0.00    -0.312 N 
ATOM      8  C   UNL     1      -3.472 -12.095  11.595  0.00  0.00    +0.084 C 
ATOM      9  C   UNL     1      -3.766 -10.917  12.569  0.00  0.00    +0.161 C 
ATOM     10  C   UNL     1      -3.525 -13.311  12.539  0.00  0.00    +0.036 C 
ATOM     11  C   UNL     1      -3.040 -12.753  13.859  0.00  0.00    +0.087 C 
ATOM     12  C   UNL     1      -4.206 -11.104   9.424  0.00  0.00    +0.074 C 
ATOM     13  C   UNL     1      -5.098 -10.208  12.341  0.00  0.00    +0.232 C 
ATOM     14  C   UNL     1      -4.206  -9.704  10.067  0.00  0.00    +0.123 C 
ATOM     17  C   UNL     1      -4.040 -13.514   9.705  0.00  0.00    +0.105 C 
ATOM     32  H   UNL     1      -6.062  -9.082  10.903  0.00  0.00    +0.149 HD
ENDROOT
BRANCH   4  15
ATOM     15  C   UNL     1      -3.220 -10.593  14.935  0.00  0.00    +0.120 C 
BRANCH  15  19
ATOM     19  C   UNL     1      -3.965 -10.693  16.240  0.00  0.00    -0.033 A 
ATOM     21  C   UNL     1      -3.423 -11.423  17.298  0.00  0.00    +0.005 A 
ATOM     22  C   UNL     1      -5.198 -10.058  16.389  0.00  0.00    +0.005 A 
ATOM     23  C   UNL     1      -4.115 -11.517  18.506  0.00  0.00    +0.003 A 
ATOM     24  C   UNL     1      -5.890 -10.153  17.596  0.00  0.00    +0.003 A 
ATOM     25  C   UNL     1      -5.348 -10.882  18.655  0.00  0.00    -0.050 A 
ATOM     27  C   UNL     1      -6.087 -10.983  19.946  0.00  0.00    +0.044 C 
ENDBRANCH  15  19
ENDBRANCH   4  15
BRANCH  12  16
ATOM     16  C   UNL     1      -5.367 -11.149   8.407  0.00  0.00    +0.029 C 
BRANCH  16  18
ATOM     18  C   UNL     1      -5.282  -9.977   7.447  0.00  0.00    +0.097 C 
BRANCH  18  20
ATOM      3  O   UNL     1      -7.407 -10.606   6.470  0.00  0.00    -0.276 OA
ATOM      7  N   UNL     1      -6.808  -8.364   6.522  0.00  0.00    -0.311 N 
ATOM     20  C   UNL     1      -6.614  -9.716   6.765  0.00  0.00    +0.213 C 
ATOM     33  H   UNL     1      -6.101  -7.696   6.816  0.00  0.00    +0.149 HD
BRANCH   7  26
ATOM     26  C   UNL     1      -7.999  -7.859   5.881  0.00  0.00    +0.146 C 
BRANCH  26  28
ATOM      1  S   UNL     1     -10.512  -6.887   6.571  0.00  0.00    -0.100 S 
ATOM     28  C   UNL     1      -8.821  -7.010   6.814  0.00  0.00    +0.007 A 
ATOM     29  C   UNL     1      -8.399  -6.273   7.899  0.00  0.00    +0.013 A 
ATOM     30  C   UNL     1      -9.479  -5.597   8.538  0.00  0.00    +0.008 A 
ATOM     31  C   UNL     1     -10.683  -5.844   7.918  0.00  0.00    +0.045 A 
ENDBRANCH  26  28
ENDBRANCH   7  26
ENDBRANCH  18  20
ENDBRANCH  16  18
ENDBRANCH  12  16
TORSDOF 7
ENDMDL
MODEL 8
REMARK VINA RESULT:      -6.5     27.944     29.983
REMARK  Name = 45361026
REMARK  9 active torsions:
REMARK  status: ('A' for Active; 'I' for Inactive)
REMARK    1  A    between atoms: N_4  and  C_15
REMARK    2  A    between atoms: N_5  and  C_17
REMARK    3  A    between atoms: N_7  and  C_26
REMARK    4  A    between atoms: C_12  and  C_16
REMARK    5  A    between atoms: C_15  and  C_19
REMARK    6  A    between atoms: C_16  and  C_18
REMARK    7  A    between atoms: C_18  and  C_20
REMARK    8  A    between atoms: C_25  and  C_27
REMARK    9  A    between atoms: C_26  and  C_28
REMARK                            x       y       z     vdW  Elec       q    Type
REMARK                         _______ _______ _______ _____ _____    ______ ____
ROOT
ATOM      2  O   UNL     1      -8.466  -9.435  14.848  0.00  0.00    -0.274 OA
ATOM      4  N   UNL     1      -9.390  -9.332  17.384  0.00  0.00    -0.286 NA
ATOM      5  N   UNL     1      -6.571 -11.665  17.384  0.00  0.00    -0.296 NA
ATOM      6  N   UNL     1      -6.259  -9.553  15.442  0.00  0.00    -0.312 N 
ATOM      8  C   UNL     1      -7.493 -10.702  18.026  0.00  0.00    +0.084 C 
ATOM      9  C   UNL     1      -7.928  -9.443  17.222  0.00  0.00    +0.161 C 
ATOM     10  C   UNL     1      -8.850 -11.310  18.429  0.00  0.00    +0.036 C 
ATOM     11  C   UNL     1      -9.749 -10.101  18.569  0.00  0.00    +0.087 C 
ATOM     12  C   UNL     1      -5.225 -11.111  17.067  0.00  0.00    +0.074 C 
ATOM     13  C   UNL     1      -7.609  -9.487  15.730  0.00  0.00    +0.232 C 
ATOM     14  C   UNL     1      -5.232  -9.697  16.456  0.00  0.00    +0.123 C 
ATOM     17  C   UNL     1      -6.443 -12.888  18.194  0.00  0.00    +0.105 C 
ATOM     32  H   UNL     1      -5.977  -9.563  14.467  0.00  0.00    +0.149 HD
ENDROOT
BRANCH   4  15
ATOM     15  C   UNL     1      -9.860  -7.954  17.459  0.00  0.00    +0.120 C 
BRANCH  15  19
ATOM     19  C   UNL     1     -11.021  -7.706  16.534  0.00  0.00    -0.033 A 
ATOM     21  C   UNL     1     -11.662  -8.780  15.915  0.00  0.00    +0.005 A 
ATOM     22  C   UNL     1     -11.454  -6.402  16.292  0.00  0.00    +0.005 A 
ATOM     23  C   UNL     1     -12.736  -8.549  15.055  0.00  0.00    +0.003 A 
ATOM     24  C   UNL     1     -12.528  -6.171  15.432  0.00  0.00    +0.003 A 
ATOM     25  C   UNL     1     -13.169  -7.246  14.815  0.00  0.00    -0.050 A 
ATOM     27  C   UNL     1     -14.317  -6.999  13.895  0.00  0.00    +0.044 C 
ENDBRANCH  15  19
ENDBRANCH   4  15
BRANCH  12  16
ATOM     16  C   UNL     1      -4.479 -12.038  16.084  0.00  0.00    +0.029 C 
BRANCH  16  18
ATOM     18  C   UNL     1      -3.036 -11.596  15.921  0.00  0.00    +0.097 C 
BRANCH  18  20
ATOM      3  O   UNL     1      -2.156 -12.937  14.106  0.00  0.00    -0.276 OA
ATOM      7  N   UNL     1      -2.553 -10.678  13.751  0.00  0.00    -0.311 N 
ATOM     20  C   UNL     1      -2.533 -11.840  14.509  0.00  0.00    +0.213 C 
ATOM     33  H   UNL     1      -2.897  -9.816  14.165  0.00  0.00    +0.149 HD
BRANCH   7  26
ATOM     26  C   UNL     1      -2.122 -10.648  12.374  0.00  0.00    +0.146 C 
BRANCH  26  28
ATOM      1  S   UNL     1      -4.800 -10.038  11.941  0.00  0.00    -0.100 S 
ATOM     28  C   UNL     1      -3.152 -10.016  11.476  0.00  0.00    +0.007 A 
ATOM     29  C   UNL     1      -2.964  -9.385  10.267  0.00  0.00    +0.013 A 
ATOM     30  C   UNL     1      -4.190  -8.914   9.714  0.00  0.00    +0.008 A 
ATOM     31  C   UNL     1      -5.267  -9.202  10.522  0.00  0.00    +0.045 A 
ENDBRANCH  26  28
ENDBRANCH   7  26
ENDBRANCH  18  20
ENDBRANCH  16  18
ENDBRANCH  12  16
TORSDOF 7
ENDMDL
MODEL 9
REMARK VINA RESULT:      -6.5     27.949     30.515
REMARK  Name = 45361026
REMARK  9 active torsions:
REMARK  status: ('A' for Active; 'I' for Inactive)
REMARK    1  A    between atoms: N_4  and  C_15
REMARK    2  A    between atoms: N_5  and  C_17
REMARK    3  A    between atoms: N_7  and  C_26
REMARK    4  A    between atoms: C_12  and  C_16
REMARK    5  A    between atoms: C_15  and  C_19
REMARK    6  A    between atoms: C_16  and  C_18
REMARK    7  A    between atoms: C_18  and  C_20
REMARK    8  A    between atoms: C_25  and  C_27
REMARK    9  A    between atoms: C_26  and  C_28
REMARK                            x       y       z     vdW  Elec       q    Type
REMARK                         _______ _______ _______ _____ _____    ______ ____
ROOT
ATOM      2  O   UNL     1      -5.547  -9.597   7.488  0.00  0.00    -0.274 OA
ATOM      4  N   UNL     1      -7.620  -8.382   8.721  0.00  0.00    -0.286 NA
ATOM      5  N   UNL     1      -5.873 -10.338  11.274  0.00  0.00    -0.296 NA
ATOM      6  N   UNL     1      -4.092  -9.339   9.235  0.00  0.00    -0.312 N 
ATOM      8  C   UNL     1      -6.737  -9.227  10.819  0.00  0.00    +0.084 C 
ATOM      9  C   UNL     1      -6.369  -8.495   9.495  0.00  0.00    +0.161 C 
ATOM     10  C   UNL     1      -8.199  -9.639  10.561  0.00  0.00    +0.036 C 
ATOM     11  C   UNL     1      -8.722  -8.538   9.664  0.00  0.00    +0.087 C 
ATOM     12  C   UNL     1      -4.477  -9.936  11.608  0.00  0.00    +0.074 C 
ATOM     13  C   UNL     1      -5.329  -9.204   8.633  0.00  0.00    +0.232 C 
ATOM     14  C   UNL     1      -3.827  -8.960  10.610  0.00  0.00    +0.123 C 
ATOM     17  C   UNL     1      -6.485 -11.048  12.410  0.00  0.00    +0.105 C 
ATOM     32  H   UNL     1      -3.347  -9.782   8.706  0.00  0.00    +0.149 HD
ENDROOT
BRANCH   4  15
ATOM     15  C   UNL     1      -7.718  -7.144   7.960  0.00  0.00    +0.120 C 
BRANCH  15  19
ATOM     19  C   UNL     1      -8.481  -7.334   6.676  0.00  0.00    -0.033 A 
ATOM     21  C   UNL     1      -7.867  -7.944   5.583  0.00  0.00    +0.005 A 
ATOM     22  C   UNL     1      -9.803  -6.898   6.580  0.00  0.00    +0.005 A 
ATOM     23  C   UNL     1      -8.574  -8.117   4.393  0.00  0.00    +0.003 A 
ATOM     24  C   UNL     1     -10.510  -7.071   5.390  0.00  0.00    +0.003 A 
ATOM     25  C   UNL     1      -9.895  -7.682   4.297  0.00  0.00    -0.050 A 
ATOM     27  C   UNL     1     -10.651  -7.868   3.024  0.00  0.00    +0.044 C 
ENDBRANCH  15  19
ENDBRANCH   4  15
BRANCH  12  16
ATOM     16  C   UNL     1      -3.567 -11.178  11.704  0.00  0.00    +0.029 C 
BRANCH  16  18
ATOM     18  C   UNL     1      -2.211 -10.805  12.276  0.00  0.00    +0.097 C 
BRANCH  18  20
ATOM      3  O   UNL     1      -1.629 -12.415  13.989  0.00  0.00    -0.276 OA
ATOM      7  N   UNL     1      -2.442 -10.335  14.622  0.00  0.00    -0.311 N 
ATOM     20  C   UNL     1      -2.051 -11.298  13.703  0.00  0.00    +0.213 C 
ATOM     33  H   UNL     1      -2.765  -9.430  14.294  0.00  0.00    +0.149 HD
BRANCH   7  26
ATOM     26  C   UNL     1      -2.386 -10.562  16.047  0.00  0.00    +0.146 C 
BRANCH  26  28
ATOM      1  S   UNL     1      -5.122 -10.090  15.879  0.00  0.00    -0.100 S 
ATOM     28  C   UNL     1      -3.754 -10.793  16.633  0.00  0.00    +0.007 A 
ATOM     29  C   UNL     1      -4.097 -11.525  17.748  0.00  0.00    +0.013 A 
ATOM     30  C   UNL     1      -5.502 -11.509  17.987  0.00  0.00    +0.008 A 
ATOM     31  C   UNL     1      -6.178 -10.765  17.046  0.00  0.00    +0.045 A 
ENDBRANCH  26  28
ENDBRANCH   7  26
ENDBRANCH  18  20
ENDBRANCH  16  18
ENDBRANCH  12  16
TORSDOF 7
ENDMDL
MODEL 10
REMARK VINA RESULT:      -6.4     27.997     30.297
REMARK  Name = 45361026
REMARK  9 active torsions:
REMARK  status: ('A' for Active; 'I' for Inactive)
REMARK    1  A    between atoms: N_4  and  C_15
REMARK    2  A    between atoms: N_5  and  C_17
REMARK    3  A    between atoms: N_7  and  C_26
REMARK    4  A    between atoms: C_12  and  C_16
REMARK    5  A    between atoms: C_15  and  C_19
REMARK    6  A    between atoms: C_16  and  C_18
REMARK    7  A    between atoms: C_18  and  C_20
REMARK    8  A    between atoms: C_25  and  C_27
REMARK    9  A    between atoms: C_26  and  C_28
REMARK                            x       y       z     vdW  Elec       q    Type
REMARK                         _______ _______ _______ _____ _____    ______ ____
ROOT
ATOM      2  O   UNL     1      -8.807 -11.125  15.601  0.00  0.00    -0.274 OA
ATOM      4  N   UNL     1      -9.052 -10.798  18.270  0.00  0.00    -0.286 NA
ATOM      5  N   UNL     1      -5.548 -11.637  17.629  0.00  0.00    -0.296 NA
ATOM      6  N   UNL     1      -6.743 -10.147  15.466  0.00  0.00    -0.312 N 
ATOM      8  C   UNL     1      -6.641 -11.029  18.420  0.00  0.00    +0.084 C 
ATOM      9  C   UNL     1      -7.798 -10.316  17.662  0.00  0.00    +0.161 C 
ATOM     10  C   UNL     1      -7.407 -12.034  19.302  0.00  0.00    +0.036 C 
ATOM     11  C   UNL     1      -8.714 -11.326  19.587  0.00  0.00    +0.087 C 
ATOM     12  C   UNL     1      -4.746 -10.663  16.837  0.00  0.00    +0.074 C 
ATOM     13  C   UNL     1      -7.852 -10.589  16.162  0.00  0.00    +0.232 C 
ATOM     14  C   UNL     1      -5.569  -9.586  16.106  0.00  0.00    +0.123 C 
ATOM     17  C   UNL     1      -4.668 -12.447  18.487  0.00  0.00    +0.105 C 
ATOM     32  H   UNL     1      -6.725 -10.278  14.459  0.00  0.00    +0.149 HD
ENDROOT
BRANCH   4  15
ATOM     15  C   UNL     1     -10.091  -9.778  18.337  0.00  0.00    +0.120 C 
BRANCH  15  19
ATOM     19  C   UNL     1     -11.363 -10.312  18.941  0.00  0.00    -0.033 A 
ATOM     21  C   UNL     1     -11.846  -9.777  20.135  0.00  0.00    +0.005 A 
ATOM     22  C   UNL     1     -12.056 -11.343  18.307  0.00  0.00    +0.005 A 
ATOM     23  C   UNL     1     -13.023 -10.274  20.696  0.00  0.00    +0.003 A 
ATOM     24  C   UNL     1     -13.233 -11.840  18.867  0.00  0.00    +0.003 A 
ATOM     25  C   UNL     1     -13.716 -11.305  20.062  0.00  0.00    -0.050 A 
ATOM     27  C   UNL     1     -14.974 -11.836  20.661  0.00  0.00    +0.044 C 
ENDBRANCH  15  19
ENDBRANCH   4  15
BRANCH  12  16
ATOM     16  C   UNL     1      -3.898 -11.399  15.777  0.00  0.00    +0.029 C 
BRANCH  16  18
ATOM     18  C   UNL     1      -2.422 -11.101  15.970  0.00  0.00    +0.097 C 
BRANCH  18  20
ATOM      3  O   UNL     1      -1.016  -9.492  14.830  0.00  0.00    -0.276 OA
ATOM      7  N   UNL     1      -2.321 -10.943  13.573  0.00  0.00    -0.311 N 
ATOM     20  C   UNL     1      -1.829 -10.410  14.755  0.00  0.00    +0.213 C 
ATOM     33  H   UNL     1      -2.981 -11.714  13.607  0.00  0.00    +0.149 HD
BRANCH   7  26
ATOM     26  C   UNL     1      -1.910 -10.455  12.277  0.00  0.00    +0.146 C 
BRANCH  26  28
ATOM      1  S   UNL     1      -4.673 -10.241  12.036  0.00  0.00    -0.100 S 
ATOM     28  C   UNL     1      -3.081  -9.978  11.460  0.00  0.00    +0.007 A 
ATOM     29  C   UNL     1      -3.071  -9.323  10.248  0.00  0.00    +0.013 A 
ATOM     30  C   UNL     1      -4.388  -9.035   9.785  0.00  0.00    +0.008 A 
ATOM     31  C   UNL     1      -5.353  -9.479  10.661  0.00  0.00    +0.045 A 
ENDBRANCH  26  28
ENDBRANCH   7  26
ENDBRANCH  18  20
ENDBRANCH  16  18
ENDBRANCH  12  16
TORSDOF 7
ENDMDL
