MODEL 1
REMARK VINA RESULT:      -6.6      0.000      0.000
REMARK  Name = 40781693
REMARK  8 active torsions:
REMARK  status: ('A' for Active; 'I' for Inactive)
REMARK    1  A    between atoms: O_5  and  C_26
REMARK    2  A    between atoms: N_8  and  C_10
REMARK    3  A    between atoms: C_15  and  C_17
REMARK    4  A    between atoms: C_15  and  C_20
REMARK    5  A    between atoms: C_15  and  C_22
REMARK    6  A    between atoms: C_15  and  C_23
REMARK    7  A    between atoms: C_17  and  C_18
REMARK    8  A    between atoms: C_20  and  C_26
REMARK                            x       y       z     vdW  Elec       q    Type
REMARK                         _______ _______ _______ _____ _____    ______ ____
ROOT
ATOM      1 CL   UNL     1      21.360   5.727  21.509  0.00  0.00    -0.083 Cl
ATOM      2  O   UNL     1      16.104  10.675  22.404  0.00  0.00    -0.273 OA
ATOM      3  O   UNL     1      15.092   6.223  19.671  0.00  0.00    -0.270 OA
ATOM      7  N   UNL     1      15.233   8.489  20.038  0.00  0.00    -0.284 N 
ATOM      9  N   UNL     1      17.381   8.831  22.033  0.00  0.00    -0.283 N 
ATOM     10  C   UNL     1      13.632  10.232  20.057  0.00  0.00    +0.092 C 
ATOM     11  C   UNL     1      15.993   9.711  20.198  0.00  0.00    +0.164 C 
ATOM     12  C   UNL     1      15.019  10.825  19.797  0.00  0.00    +0.055 C 
ATOM     13  C   UNL     1      13.833   8.758  19.731  0.00  0.00    +0.131 C 
ATOM     14  C   UNL     1      16.449   9.768  21.644  0.00  0.00    +0.238 C 
ATOM     16  C   UNL     1      15.757   7.215  19.973  0.00  0.00    +0.249 C 
ATOM     19  C   UNL     1      17.193   7.026  20.303  0.00  0.00    +0.058 A 
ATOM     21  C   UNL     1      17.875   7.724  21.313  0.00  0.00    +0.047 A 
ATOM     24  C   UNL     1      17.832   5.953  19.652  0.00  0.00    +0.016 A 
ATOM     25  C   UNL     1      19.157   7.285  21.693  0.00  0.00    +0.044 A 
ATOM     27  C   UNL     1      19.121   5.563  20.010  0.00  0.00    +0.021 A 
ATOM     28  C   UNL     1      19.780   6.220  21.040  0.00  0.00    +0.043 A 
ATOM     30  H   UNL     1      17.839   9.022  22.921  0.00  0.00    +0.155 HD
ENDROOT
BRANCH  10   8
ATOM      4  O   UNL     1      10.951  10.018  21.082  0.00  0.00    -0.276 OA
ATOM      8  N   UNL     1      13.211  10.419  21.425  0.00  0.00    -0.311 N 
ATOM     18  C   UNL     1      11.890  10.294  21.825  0.00  0.00    +0.214 C 
ATOM     29  H   UNL     1      13.921  10.605  22.126  0.00  0.00    +0.149 HD
BRANCH  18  17
ATOM     17  C   UNL     1      11.691  10.532  23.313  0.00  0.00    +0.102 C 
BRANCH  17  15
ATOM     15  C   UNL     1      11.712  12.022  23.741  0.00  0.00    -0.017 C 
ATOM     22  C   UNL     1      11.144  12.913  22.616  0.00  0.00    +0.012 C 
ATOM     23  C   UNL     1      10.785  12.178  24.966  0.00  0.00    +0.012 C 
BRANCH  15  20
ATOM     20  C   UNL     1      13.133  12.530  24.082  0.00  0.00    +0.127 C 
BRANCH  20  26
ATOM      6  O   UNL     1      13.664  12.012  26.387  0.00  0.00    -0.251 OA
ATOM     26  C   UNL     1      13.826  11.778  25.197  0.00  0.00    +0.305 C 
BRANCH  26   5
ATOM      5  O   UNL     1      14.660  10.810  24.740  0.00  0.00    -0.481 OA
ATOM     31  H   UNL     1      14.348   9.913  24.984  0.00  0.00    +0.295 HD
ENDBRANCH  26   5
ENDBRANCH  20  26
ENDBRANCH  15  20
ENDBRANCH  17  15
ENDBRANCH  18  17
ENDBRANCH  10   8
TORSDOF 6
ENDMDL
MODEL 2
REMARK VINA RESULT:      -6.3     17.353     20.338
REMARK  Name = 40781693
REMARK  8 active torsions:
REMARK  status: ('A' for Active; 'I' for Inactive)
REMARK    1  A    between atoms: O_5  and  C_26
REMARK    2  A    between atoms: N_8  and  C_10
REMARK    3  A    between atoms: C_15  and  C_17
REMARK    4  A    between atoms: C_15  and  C_20
REMARK    5  A    between atoms: C_15  and  C_22
REMARK    6  A    between atoms: C_15  and  C_23
REMARK    7  A    between atoms: C_17  and  C_18
REMARK    8  A    between atoms: C_20  and  C_26
REMARK                            x       y       z     vdW  Elec       q    Type
REMARK                         _______ _______ _______ _____ _____    ______ ____
ROOT
ATOM      1 CL   UNL     1       9.029   4.470   9.876  0.00  0.00    -0.083 Cl
ATOM      2  O   UNL     1      11.342   4.626   2.981  0.00  0.00    -0.273 OA
ATOM      3  O   UNL     1      10.791   9.179   5.678  0.00  0.00    -0.270 OA
ATOM      7  N   UNL     1      10.447   7.687   3.963  0.00  0.00    -0.284 N 
ATOM      9  N   UNL     1      10.817   5.014   5.158  0.00  0.00    -0.283 N 
ATOM     10  C   UNL     1      10.888   7.756   1.639  0.00  0.00    +0.092 C 
ATOM     11  C   UNL     1       9.864   6.477   3.421  0.00  0.00    +0.164 C 
ATOM     12  C   UNL     1       9.786   6.730   1.910  0.00  0.00    +0.055 C 
ATOM     13  C   UNL     1      10.885   8.596   2.910  0.00  0.00    +0.131 C 
ATOM     14  C   UNL     1      10.770   5.327   3.817  0.00  0.00    +0.238 C 
ATOM     16  C   UNL     1      10.430   8.068   5.288  0.00  0.00    +0.249 C 
ATOM     19  C   UNL     1       9.972   7.081   6.299  0.00  0.00    +0.058 A 
ATOM     21  C   UNL     1      10.247   5.705   6.248  0.00  0.00    +0.047 A 
ATOM     24  C   UNL     1       9.372   7.624   7.451  0.00  0.00    +0.016 A 
ATOM     25  C   UNL     1       9.973   4.917   7.381  0.00  0.00    +0.044 A 
ATOM     27  C   UNL     1       9.065   6.818   8.546  0.00  0.00    +0.021 A 
ATOM     28  C   UNL     1       9.378   5.467   8.518  0.00  0.00    +0.043 A 
ATOM     30  H   UNL     1      11.238   4.114   5.377  0.00  0.00    +0.155 HD
ENDROOT
BRANCH  10   8
ATOM      4  O   UNL     1      12.399   7.721  -0.811  0.00  0.00    -0.276 OA
ATOM      8  N   UNL     1      12.170   7.130   1.421  0.00  0.00    -0.311 N 
ATOM     18  C   UNL     1      12.824   7.167   0.199  0.00  0.00    +0.214 C 
ATOM     29  H   UNL     1      12.629   6.684   2.209  0.00  0.00    +0.149 HD
BRANCH  18  17
ATOM     17  C   UNL     1      14.160   6.441   0.213  0.00  0.00    +0.102 C 
BRANCH  17  15
ATOM     15  C   UNL     1      14.190   5.119  -0.596  0.00  0.00    -0.017 C 
ATOM     22  C   UNL     1      12.759   4.575  -0.790  0.00  0.00    +0.012 C 
ATOM     23  C   UNL     1      14.758   5.433  -1.997  0.00  0.00    +0.012 C 
BRANCH  15  20
ATOM     20  C   UNL     1      15.034   4.016   0.085  0.00  0.00    +0.127 C 
BRANCH  20  26
ATOM      6  O   UNL     1      13.726   2.804   1.723  0.00  0.00    -0.251 OA
ATOM     26  C   UNL     1      14.584   3.642   1.480  0.00  0.00    +0.305 C 
BRANCH  26   5
ATOM      5  O   UNL     1      15.229   4.341   2.447  0.00  0.00    -0.481 OA
ATOM     31  H   UNL     1      16.158   4.045   2.555  0.00  0.00    +0.295 HD
ENDBRANCH  26   5
ENDBRANCH  20  26
ENDBRANCH  15  20
ENDBRANCH  17  15
ENDBRANCH  18  17
ENDBRANCH  10   8
TORSDOF 6
ENDMDL
MODEL 3
REMARK VINA RESULT:      -6.3      1.949      2.769
REMARK  Name = 40781693
REMARK  8 active torsions:
REMARK  status: ('A' for Active; 'I' for Inactive)
REMARK    1  A    between atoms: O_5  and  C_26
REMARK    2  A    between atoms: N_8  and  C_10
REMARK    3  A    between atoms: C_15  and  C_17
REMARK    4  A    between atoms: C_15  and  C_20
REMARK    5  A    between atoms: C_15  and  C_22
REMARK    6  A    between atoms: C_15  and  C_23
REMARK    7  A    between atoms: C_17  and  C_18
REMARK    8  A    between atoms: C_20  and  C_26
REMARK                            x       y       z     vdW  Elec       q    Type
REMARK                         _______ _______ _______ _____ _____    ______ ____
ROOT
ATOM      1 CL   UNL     1      18.969   6.451  20.382  0.00  0.00    -0.083 Cl
ATOM      2  O   UNL     1      14.545  11.596  23.003  0.00  0.00    -0.273 OA
ATOM      3  O   UNL     1      12.536   6.892  21.537  0.00  0.00    -0.270 OA
ATOM      7  N   UNL     1      12.762   9.180  21.547  0.00  0.00    -0.284 N 
ATOM      9  N   UNL     1      15.569   9.692  22.303  0.00  0.00    -0.283 N 
ATOM     10  C   UNL     1      11.293  10.954  22.095  0.00  0.00    +0.092 C 
ATOM     11  C   UNL     1      13.476  10.394  21.209  0.00  0.00    +0.164 C 
ATOM     12  C   UNL     1      12.394  11.480  21.171  0.00  0.00    +0.055 C 
ATOM     13  C   UNL     1      11.368   9.448  21.879  0.00  0.00    +0.131 C 
ATOM     14  C   UNL     1      14.535  10.602  22.276  0.00  0.00    +0.238 C 
ATOM     16  C   UNL     1      13.237   7.895  21.393  0.00  0.00    +0.249 C 
ATOM     19  C   UNL     1      14.672   7.709  21.057  0.00  0.00    +0.058 A 
ATOM     21  C   UNL     1      15.716   8.498  21.565  0.00  0.00    +0.047 A 
ATOM     24  C   UNL     1      14.977   6.555  20.311  0.00  0.00    +0.016 A 
ATOM     25  C   UNL     1      17.043   8.074  21.369  0.00  0.00    +0.044 A 
ATOM     27  C   UNL     1      16.300   6.176  20.087  0.00  0.00    +0.021 A 
ATOM     28  C   UNL     1      17.334   6.928  20.627  0.00  0.00    +0.043 A 
ATOM     30  H   UNL     1      16.374   9.969  22.860  0.00  0.00    +0.155 HD
ENDROOT
BRANCH  10   8
ATOM      4  O   UNL     1      10.166  13.179  23.530  0.00  0.00    -0.276 OA
ATOM      8  N   UNL     1      11.531  11.303  23.475  0.00  0.00    -0.311 N 
ATOM     18  C   UNL     1      10.939  12.401  24.083  0.00  0.00    +0.214 C 
ATOM     29  H   UNL     1      12.120  10.693  24.032  0.00  0.00    +0.149 HD
BRANCH  18  17
ATOM     17  C   UNL     1      11.337  12.564  25.540  0.00  0.00    +0.102 C 
BRANCH  17  15
ATOM     15  C   UNL     1      12.322  13.729  25.818  0.00  0.00    -0.017 C 
ATOM     22  C   UNL     1      12.944  14.233  24.499  0.00  0.00    +0.012 C 
ATOM     23  C   UNL     1      11.515  14.897  26.425  0.00  0.00    +0.012 C 
BRANCH  15  20
ATOM     20  C   UNL     1      13.475  13.328  26.769  0.00  0.00    +0.127 C 
BRANCH  20  26
ATOM      6  O   UNL     1      15.662  12.626  26.004  0.00  0.00    -0.251 OA
ATOM     26  C   UNL     1      14.479  12.363  26.178  0.00  0.00    +0.305 C 
BRANCH  26   5
ATOM      5  O   UNL     1      13.931  11.167  25.850  0.00  0.00    -0.481 OA
ATOM     31  H   UNL     1      13.456  10.762  26.606  0.00  0.00    +0.295 HD
ENDBRANCH  26   5
ENDBRANCH  20  26
ENDBRANCH  15  20
ENDBRANCH  17  15
ENDBRANCH  18  17
ENDBRANCH  10   8
TORSDOF 6
ENDMDL
MODEL 4
REMARK VINA RESULT:      -6.1     28.684     30.367
REMARK  Name = 40781693
REMARK  8 active torsions:
REMARK  status: ('A' for Active; 'I' for Inactive)
REMARK    1  A    between atoms: O_5  and  C_26
REMARK    2  A    between atoms: N_8  and  C_10
REMARK    3  A    between atoms: C_15  and  C_17
REMARK    4  A    between atoms: C_15  and  C_20
REMARK    5  A    between atoms: C_15  and  C_22
REMARK    6  A    between atoms: C_15  and  C_23
REMARK    7  A    between atoms: C_17  and  C_18
REMARK    8  A    between atoms: C_20  and  C_26
REMARK                            x       y       z     vdW  Elec       q    Type
REMARK                         _______ _______ _______ _____ _____    ______ ____
ROOT
ATOM      1 CL   UNL     1      -3.605  -9.683   9.695  0.00  0.00    -0.083 Cl
ATOM      2  O   UNL     1      -7.695 -11.604  15.395  0.00  0.00    -0.273 OA
ATOM      3  O   UNL     1      -2.571 -10.370  16.127  0.00  0.00    -0.270 OA
ATOM      7  N   UNL     1      -4.464 -11.672  16.224  0.00  0.00    -0.284 N 
ATOM      9  N   UNL     1      -6.133 -10.809  13.948  0.00  0.00    -0.283 N 
ATOM     10  C   UNL     1      -5.704 -12.600  18.014  0.00  0.00    +0.092 C 
ATOM     11  C   UNL     1      -5.471 -12.508  15.605  0.00  0.00    +0.164 C 
ATOM     12  C   UNL     1      -5.980 -13.404  16.741  0.00  0.00    +0.055 C 
ATOM     13  C   UNL     1      -4.418 -11.859  17.670  0.00  0.00    +0.131 C 
ATOM     14  C   UNL     1      -6.521 -11.583  15.020  0.00  0.00    +0.238 C 
ATOM     16  C   UNL     1      -3.509 -10.932  15.559  0.00  0.00    +0.249 C 
ATOM     19  C   UNL     1      -3.628 -10.788  14.086  0.00  0.00    +0.058 A 
ATOM     21  C   UNL     1      -4.844 -10.646  13.397  0.00  0.00    +0.047 A 
ATOM     24  C   UNL     1      -2.416 -10.622  13.390  0.00  0.00    +0.016 A 
ATOM     25  C   UNL     1      -4.815 -10.273  12.041  0.00  0.00    +0.044 A 
ATOM     27  C   UNL     1      -2.407 -10.298  12.034  0.00  0.00    +0.021 A 
ATOM     28  C   UNL     1      -3.606 -10.110  11.362  0.00  0.00    +0.043 A 
ATOM     30  H   UNL     1      -6.893 -10.374  13.431  0.00  0.00    +0.155 HD
ENDROOT
BRANCH  10   8
ATOM      4  O   UNL     1      -7.855 -13.020  19.880  0.00  0.00    -0.276 OA
ATOM      8  N   UNL     1      -6.778 -11.684  18.318  0.00  0.00    -0.311 N 
ATOM     18  C   UNL     1      -7.774 -11.976  19.238  0.00  0.00    +0.214 C 
ATOM     29  H   UNL     1      -6.774 -10.772  17.873  0.00  0.00    +0.149 HD
BRANCH  18  17
ATOM     17  C   UNL     1      -8.791 -10.858  19.393  0.00  0.00    +0.102 C 
BRANCH  17  15
ATOM     15  C   UNL     1      -9.993 -10.933  18.416  0.00  0.00    -0.017 C 
ATOM     22  C   UNL     1     -10.185 -12.378  17.910  0.00  0.00    +0.012 C 
ATOM     23  C   UNL     1     -11.265 -10.544  19.199  0.00  0.00    +0.012 C 
BRANCH  15  20
ATOM     20  C   UNL     1      -9.825 -10.013  17.183  0.00  0.00    +0.127 C 
BRANCH  20  26
ATOM      6  O   UNL     1      -7.663  -8.923  17.164  0.00  0.00    -0.251 OA
ATOM     26  C   UNL     1      -8.866  -8.859  17.378  0.00  0.00    +0.305 C 
BRANCH  26   5
ATOM      5  O   UNL     1      -9.479  -7.735  17.825  0.00  0.00    -0.481 OA
ATOM     31  H   UNL     1     -10.419  -7.896  18.054  0.00  0.00    +0.295 HD
ENDBRANCH  26   5
ENDBRANCH  20  26
ENDBRANCH  15  20
ENDBRANCH  17  15
ENDBRANCH  18  17
ENDBRANCH  10   8
TORSDOF 6
ENDMDL
MODEL 5
REMARK VINA RESULT:      -6.1      1.486      2.127
REMARK  Name = 40781693
REMARK  8 active torsions:
REMARK  status: ('A' for Active; 'I' for Inactive)
REMARK    1  A    between atoms: O_5  and  C_26
REMARK    2  A    between atoms: N_8  and  C_10
REMARK    3  A    between atoms: C_15  and  C_17
REMARK    4  A    between atoms: C_15  and  C_20
REMARK    5  A    between atoms: C_15  and  C_22
REMARK    6  A    between atoms: C_15  and  C_23
REMARK    7  A    between atoms: C_17  and  C_18
REMARK    8  A    between atoms: C_20  and  C_26
REMARK                            x       y       z     vdW  Elec       q    Type
REMARK                         _______ _______ _______ _____ _____    ______ ____
ROOT
ATOM      1 CL   UNL     1      20.230   5.208  20.464  0.00  0.00    -0.083 Cl
ATOM      2  O   UNL     1      16.302  11.077  22.208  0.00  0.00    -0.273 OA
ATOM      3  O   UNL     1      13.985   7.017  19.667  0.00  0.00    -0.270 OA
ATOM      7  N   UNL     1      14.641   9.194  20.011  0.00  0.00    -0.284 N 
ATOM      9  N   UNL     1      17.101   9.029  21.633  0.00  0.00    -0.283 N 
ATOM     10  C   UNL     1      13.453  11.221  20.293  0.00  0.00    +0.092 C 
ATOM     11  C   UNL     1      15.649  10.233  20.048  0.00  0.00    +0.164 C 
ATOM     12  C   UNL     1      14.872  11.533  19.812  0.00  0.00    +0.055 C 
ATOM     13  C   UNL     1      13.295   9.749  19.936  0.00  0.00    +0.131 C 
ATOM     14  C   UNL     1      16.330  10.147  21.401  0.00  0.00    +0.238 C 
ATOM     16  C   UNL     1      14.877   7.844  19.859  0.00  0.00    +0.249 C 
ATOM     19  C   UNL     1      16.278   7.359  19.952  0.00  0.00    +0.058 A 
ATOM     21  C   UNL     1      17.239   7.870  20.840  0.00  0.00    +0.047 A 
ATOM     24  C   UNL     1      16.573   6.203  19.204  0.00  0.00    +0.016 A 
ATOM     25  C   UNL     1      18.448   7.170  21.005  0.00  0.00    +0.044 A 
ATOM     27  C   UNL     1      17.796   5.550  19.348  0.00  0.00    +0.021 A 
ATOM     28  C   UNL     1      18.729   6.025  20.258  0.00  0.00    +0.043 A 
ATOM     30  H   UNL     1      17.724   9.092  22.435  0.00  0.00    +0.155 HD
ENDROOT
BRANCH  10   8
ATOM      4  O   UNL     1      13.282  13.761  21.636  0.00  0.00    -0.276 OA
ATOM      8  N   UNL     1      13.301  11.442  21.711  0.00  0.00    -0.311 N 
ATOM     18  C   UNL     1      13.227  12.710  22.268  0.00  0.00    +0.214 C 
ATOM     29  H   UNL     1      13.198  10.633  22.316  0.00  0.00    +0.149 HD
BRANCH  18  17
ATOM     17  C   UNL     1      13.063  12.690  23.779  0.00  0.00    +0.102 C 
BRANCH  17  15
ATOM     15  C   UNL     1      11.731  13.291  24.296  0.00  0.00    -0.017 C 
ATOM     22  C   UNL     1      11.868  13.708  25.776  0.00  0.00    +0.012 C 
ATOM     23  C   UNL     1      11.440  14.570  23.481  0.00  0.00    +0.012 C 
BRANCH  15  20
ATOM     20  C   UNL     1      10.543  12.307  24.185  0.00  0.00    +0.127 C 
BRANCH  20  26
ATOM      6  O   UNL     1      10.919  10.171  23.108  0.00  0.00    -0.251 OA
ATOM     26  C   UNL     1      10.931  10.846  24.129  0.00  0.00    +0.305 C 
BRANCH  26   5
ATOM      5  O   UNL     1      11.293  10.350  25.339  0.00  0.00    -0.481 OA
ATOM     31  H   UNL     1      10.774  10.751  26.069  0.00  0.00    +0.295 HD
ENDBRANCH  26   5
ENDBRANCH  20  26
ENDBRANCH  15  20
ENDBRANCH  17  15
ENDBRANCH  18  17
ENDBRANCH  10   8
TORSDOF 6
ENDMDL
MODEL 6
REMARK VINA RESULT:      -6.0     17.652     19.645
REMARK  Name = 40781693
REMARK  8 active torsions:
REMARK  status: ('A' for Active; 'I' for Inactive)
REMARK    1  A    between atoms: O_5  and  C_26
REMARK    2  A    between atoms: N_8  and  C_10
REMARK    3  A    between atoms: C_15  and  C_17
REMARK    4  A    between atoms: C_15  and  C_20
REMARK    5  A    between atoms: C_15  and  C_22
REMARK    6  A    between atoms: C_15  and  C_23
REMARK    7  A    between atoms: C_17  and  C_18
REMARK    8  A    between atoms: C_20  and  C_26
REMARK                            x       y       z     vdW  Elec       q    Type
REMARK                         _______ _______ _______ _____ _____    ______ ____
ROOT
ATOM      1 CL   UNL     1      18.216   6.730  -1.497  0.00  0.00    -0.083 Cl
ATOM      2  O   UNL     1      12.271   7.868   2.537  0.00  0.00    -0.273 OA
ATOM      3  O   UNL     1      14.068   2.909   1.836  0.00  0.00    -0.270 OA
ATOM      7  N   UNL     1      12.543   4.630   1.781  0.00  0.00    -0.284 N 
ATOM      9  N   UNL     1      14.145   7.094   1.511  0.00  0.00    -0.283 N 
ATOM     10  C   UNL     1      10.444   4.972   2.818  0.00  0.00    +0.092 C 
ATOM     11  C   UNL     1      12.031   5.864   1.222  0.00  0.00    +0.164 C 
ATOM     12  C   UNL     1      10.537   5.854   1.571  0.00  0.00    +0.055 C 
ATOM     13  C   UNL     1      11.538   3.940   2.581  0.00  0.00    +0.131 C 
ATOM     14  C   UNL     1      12.814   6.999   1.853  0.00  0.00    +0.238 C 
ATOM     16  C   UNL     1      13.748   4.039   1.463  0.00  0.00    +0.249 C 
ATOM     19  C   UNL     1      14.718   4.811   0.645  0.00  0.00    +0.058 A 
ATOM     21  C   UNL     1      14.931   6.194   0.761  0.00  0.00    +0.047 A 
ATOM     24  C   UNL     1      15.575   4.045  -0.168  0.00  0.00    +0.016 A 
ATOM     25  C   UNL     1      16.041   6.765   0.111  0.00  0.00    +0.044 A 
ATOM     27  C   UNL     1      16.642   4.637  -0.841  0.00  0.00    +0.021 A 
ATOM     28  C   UNL     1      16.884   5.995  -0.692  0.00  0.00    +0.043 A 
ATOM     30  H   UNL     1      14.592   7.975   1.753  0.00  0.00    +0.155 HD
ENDROOT
BRANCH  10   8
ATOM      4  O   UNL     1       9.800   4.154   5.501  0.00  0.00    -0.276 OA
ATOM      8  N   UNL     1      10.675   5.720   4.030  0.00  0.00    -0.311 N 
ATOM     18  C   UNL     1      10.329   5.241   5.284  0.00  0.00    +0.214 C 
ATOM     29  H   UNL     1      11.152   6.614   3.961  0.00  0.00    +0.149 HD
BRANCH  18  17
ATOM     17  C   UNL     1      10.674   6.204   6.409  0.00  0.00    +0.102 C 
BRANCH  17  15
ATOM     15  C   UNL     1       9.464   6.971   7.001  0.00  0.00    -0.017 C 
ATOM     22  C   UNL     1       9.028   6.337   8.339  0.00  0.00    +0.012 C 
ATOM     23  C   UNL     1       9.920   8.416   7.301  0.00  0.00    +0.012 C 
BRANCH  15  20
ATOM     20  C   UNL     1       8.239   6.985   6.056  0.00  0.00    +0.127 C 
BRANCH  20  26
ATOM      6  O   UNL     1       8.991   8.215   4.111  0.00  0.00    -0.251 OA
ATOM     26  C   UNL     1       8.220   8.121   5.057  0.00  0.00    +0.305 C 
BRANCH  26   5
ATOM      5  O   UNL     1       7.257   9.039   5.320  0.00  0.00    -0.481 OA
ATOM     31  H   UNL     1       6.470   8.633   5.741  0.00  0.00    +0.295 HD
ENDBRANCH  26   5
ENDBRANCH  20  26
ENDBRANCH  15  20
ENDBRANCH  17  15
ENDBRANCH  18  17
ENDBRANCH  10   8
TORSDOF 6
ENDMDL
MODEL 7
REMARK VINA RESULT:      -5.9     28.984     31.193
REMARK  Name = 40781693
REMARK  8 active torsions:
REMARK  status: ('A' for Active; 'I' for Inactive)
REMARK    1  A    between atoms: O_5  and  C_26
REMARK    2  A    between atoms: N_8  and  C_10
REMARK    3  A    between atoms: C_15  and  C_17
REMARK    4  A    between atoms: C_15  and  C_20
REMARK    5  A    between atoms: C_15  and  C_22
REMARK    6  A    between atoms: C_15  and  C_23
REMARK    7  A    between atoms: C_17  and  C_18
REMARK    8  A    between atoms: C_20  and  C_26
REMARK                            x       y       z     vdW  Elec       q    Type
REMARK                         _______ _______ _______ _____ _____    ______ ____
ROOT
ATOM      1 CL   UNL     1     -13.061  -9.560  20.340  0.00  0.00    -0.083 Cl
ATOM      2  O   UNL     1      -6.770  -9.172  16.708  0.00  0.00    -0.273 OA
ATOM      3  O   UNL     1      -8.410 -13.850  18.643  0.00  0.00    -0.270 OA
ATOM      7  N   UNL     1      -6.979 -12.076  18.338  0.00  0.00    -0.284 N 
ATOM      9  N   UNL     1      -8.709  -9.761  17.739  0.00  0.00    -0.283 N 
ATOM     10  C   UNL     1      -4.796 -11.887  17.442  0.00  0.00    +0.092 C 
ATOM     11  C   UNL     1      -6.585 -10.700  18.562  0.00  0.00    +0.164 C 
ATOM     12  C   UNL     1      -5.064 -10.698  18.367  0.00  0.00    +0.055 C 
ATOM     13  C   UNL     1      -5.863 -12.888  17.866  0.00  0.00    +0.131 C 
ATOM     14  C   UNL     1      -7.345  -9.850  17.562  0.00  0.00    +0.238 C 
ATOM     16  C   UNL     1      -8.183 -12.640  18.702  0.00  0.00    +0.249 C 
ATOM     19  C   UNL     1      -9.270 -11.742  19.170  0.00  0.00    +0.058 A 
ATOM     21  C   UNL     1      -9.531 -10.468  18.642  0.00  0.00    +0.047 A 
ATOM     24  C   UNL     1     -10.174 -12.309  20.088  0.00  0.00    +0.016 A 
ATOM     25  C   UNL     1     -10.729  -9.820  18.995  0.00  0.00    +0.044 A 
ATOM     27  C   UNL     1     -11.334 -11.631  20.463  0.00  0.00    +0.021 A 
ATOM     28  C   UNL     1     -11.618 -10.392  19.906  0.00  0.00    +0.043 A 
ATOM     30  H   UNL     1      -9.165  -9.019  17.213  0.00  0.00    +0.155 HD
ENDROOT
BRANCH  10   8
ATOM      4  O   UNL     1      -2.696 -11.015  15.678  0.00  0.00    -0.276 OA
ATOM      8  N   UNL     1      -4.928 -11.531  16.050  0.00  0.00    -0.311 N 
ATOM     18  C   UNL     1      -3.853 -11.120  15.277  0.00  0.00    +0.214 C 
ATOM     29  H   UNL     1      -5.838 -11.630  15.611  0.00  0.00    +0.149 HD
BRANCH  18  17
ATOM     17  C   UNL     1      -4.236 -10.802  13.841  0.00  0.00    +0.102 C 
BRANCH  17  15
ATOM     15  C   UNL     1      -3.787 -11.859  12.799  0.00  0.00    -0.017 C 
ATOM     22  C   UNL     1      -3.997 -13.284  13.355  0.00  0.00    +0.012 C 
ATOM     23  C   UNL     1      -4.688 -11.712  11.554  0.00  0.00    +0.012 C 
BRANCH  15  20
ATOM     20  C   UNL     1      -2.299 -11.717  12.399  0.00  0.00    +0.127 C 
BRANCH  20  26
ATOM      6  O   UNL     1      -1.987  -9.654  11.170  0.00  0.00    -0.251 OA
ATOM     26  C   UNL     1      -1.828 -10.293  12.202  0.00  0.00    +0.305 C 
BRANCH  26   5
ATOM      5  O   UNL     1      -1.200  -9.790  13.293  0.00  0.00    -0.481 OA
ATOM     31  H   UNL     1      -1.755  -9.134  13.766  0.00  0.00    +0.295 HD
ENDBRANCH  26   5
ENDBRANCH  20  26
ENDBRANCH  15  20
ENDBRANCH  17  15
ENDBRANCH  18  17
ENDBRANCH  10   8
TORSDOF 6
ENDMDL
MODEL 8
REMARK VINA RESULT:      -5.9     28.497     30.344
REMARK  Name = 40781693
REMARK  8 active torsions:
REMARK  status: ('A' for Active; 'I' for Inactive)
REMARK    1  A    between atoms: O_5  and  C_26
REMARK    2  A    between atoms: N_8  and  C_10
REMARK    3  A    between atoms: C_15  and  C_17
REMARK    4  A    between atoms: C_15  and  C_20
REMARK    5  A    between atoms: C_15  and  C_22
REMARK    6  A    between atoms: C_15  and  C_23
REMARK    7  A    between atoms: C_17  and  C_18
REMARK    8  A    between atoms: C_20  and  C_26
REMARK                            x       y       z     vdW  Elec       q    Type
REMARK                         _______ _______ _______ _____ _____    ______ ____
ROOT
ATOM      1 CL   UNL     1      -8.066 -11.547   6.565  0.00  0.00    -0.083 Cl
ATOM      2  O   UNL     1      -5.658 -12.410  13.375  0.00  0.00    -0.273 OA
ATOM      3  O   UNL     1      -3.298  -8.873  10.175  0.00  0.00    -0.270 OA
ATOM      7  N   UNL     1      -3.433 -10.690  11.579  0.00  0.00    -0.284 N 
ATOM      9  N   UNL     1      -6.183 -11.719  11.274  0.00  0.00    -0.283 N 
ATOM     10  C   UNL     1      -2.456 -11.198  13.673  0.00  0.00    +0.092 C 
ATOM     11  C   UNL     1      -3.815 -12.058  11.863  0.00  0.00    +0.164 C 
ATOM     12  C   UNL     1      -2.860 -12.501  12.978  0.00  0.00    +0.055 C 
ATOM     13  C   UNL     1      -2.440 -10.197  12.525  0.00  0.00    +0.131 C 
ATOM     14  C   UNL     1      -5.278 -12.040  12.263  0.00  0.00    +0.238 C 
ATOM     16  C   UNL     1      -3.780  -9.972  10.453  0.00  0.00    +0.249 C 
ATOM     19  C   UNL     1      -4.803 -10.544   9.540  0.00  0.00    +0.058 A 
ATOM     21  C   UNL     1      -5.934 -11.261   9.963  0.00  0.00    +0.047 A 
ATOM     24  C   UNL     1      -4.682 -10.180   8.186  0.00  0.00    +0.016 A 
ATOM     25  C   UNL     1      -6.949 -11.536   9.029  0.00  0.00    +0.044 A 
ATOM     27  C   UNL     1      -5.677 -10.502   7.265  0.00  0.00    +0.021 A 
ATOM     28  C   UNL     1      -6.818 -11.170   7.689  0.00  0.00    +0.043 A 
ATOM     30  H   UNL     1      -7.154 -11.931  11.492  0.00  0.00    +0.155 HD
ENDROOT
BRANCH  10   8
ATOM      4  O   UNL     1      -1.977 -11.090  16.509  0.00  0.00    -0.276 OA
ATOM      8  N   UNL     1      -3.399 -10.816  14.696  0.00  0.00    -0.311 N 
ATOM     18  C   UNL     1      -3.075 -10.794  16.044  0.00  0.00    +0.214 C 
ATOM     29  H   UNL     1      -4.323 -10.507  14.409  0.00  0.00    +0.149 HD
BRANCH  18  17
ATOM     17  C   UNL     1      -4.228 -10.355  16.931  0.00  0.00    +0.102 C 
BRANCH  17  15
ATOM     15  C   UNL     1      -4.946 -11.505  17.682  0.00  0.00    -0.017 C 
ATOM     22  C   UNL     1      -4.938 -12.791  16.829  0.00  0.00    +0.012 C 
ATOM     23  C   UNL     1      -4.147 -11.801  18.970  0.00  0.00    +0.012 C 
BRANCH  15  20
ATOM     20  C   UNL     1      -6.415 -11.172  18.032  0.00  0.00    +0.127 C 
BRANCH  20  26
ATOM      6  O   UNL     1      -7.121 -12.068  20.168  0.00  0.00    -0.251 OA
ATOM     26  C   UNL     1      -6.718 -11.116  19.513  0.00  0.00    +0.305 C 
BRANCH  26   5
ATOM      5  O   UNL     1      -6.503  -9.889  20.048  0.00  0.00    -0.481 OA
ATOM     31  H   UNL     1      -6.149  -9.257  19.386  0.00  0.00    +0.295 HD
ENDBRANCH  26   5
ENDBRANCH  20  26
ENDBRANCH  15  20
ENDBRANCH  17  15
ENDBRANCH  18  17
ENDBRANCH  10   8
TORSDOF 6
ENDMDL
MODEL 9
REMARK VINA RESULT:      -5.9     18.542     20.565
REMARK  Name = 40781693
REMARK  8 active torsions:
REMARK  status: ('A' for Active; 'I' for Inactive)
REMARK    1  A    between atoms: O_5  and  C_26
REMARK    2  A    between atoms: N_8  and  C_10
REMARK    3  A    between atoms: C_15  and  C_17
REMARK    4  A    between atoms: C_15  and  C_20
REMARK    5  A    between atoms: C_15  and  C_22
REMARK    6  A    between atoms: C_15  and  C_23
REMARK    7  A    between atoms: C_17  and  C_18
REMARK    8  A    between atoms: C_20  and  C_26
REMARK                            x       y       z     vdW  Elec       q    Type
REMARK                         _______ _______ _______ _____ _____    ______ ____
ROOT
ATOM      1 CL   UNL     1      15.286   7.679  -4.415  0.00  0.00    -0.083 Cl
ATOM      2  O   UNL     1      10.863   6.993   1.319  0.00  0.00    -0.273 OA
ATOM      3  O   UNL     1      14.787   3.475   0.584  0.00  0.00    -0.270 OA
ATOM      7  N   UNL     1      12.623   4.191   0.883  0.00  0.00    -0.284 N 
ATOM      9  N   UNL     1      12.540   6.929  -0.214  0.00  0.00    -0.283 N 
ATOM     10  C   UNL     1      10.997   3.789   2.556  0.00  0.00    +0.092 C 
ATOM     11  C   UNL     1      11.412   4.830   0.410  0.00  0.00    +0.164 C 
ATOM     12  C   UNL     1      10.295   4.223   1.267  0.00  0.00    +0.055 C 
ATOM     13  C   UNL     1      12.375   3.368   2.061  0.00  0.00    +0.131 C 
ATOM     14  C   UNL     1      11.597   6.325   0.588  0.00  0.00    +0.238 C 
ATOM     16  C   UNL     1      13.834   4.168   0.225  0.00  0.00    +0.249 C 
ATOM     19  C   UNL     1      14.006   5.039  -0.966  0.00  0.00    +0.058 A 
ATOM     21  C   UNL     1      13.470   6.331  -1.090  0.00  0.00    +0.047 A 
ATOM     24  C   UNL     1      14.907   4.568  -1.940  0.00  0.00    +0.016 A 
ATOM     25  C   UNL     1      13.904   7.145  -2.152  0.00  0.00    +0.044 A 
ATOM     27  C   UNL     1      15.289   5.373  -3.011  0.00  0.00    +0.021 A 
ATOM     28  C   UNL     1      14.798   6.667  -3.111  0.00  0.00    +0.043 A 
ATOM     30  H   UNL     1      12.491   7.945  -0.248  0.00  0.00    +0.155 HD
ENDROOT
BRANCH  10   8
ATOM      4  O   UNL     1       9.919   3.816   5.225  0.00  0.00    -0.276 OA
ATOM      8  N   UNL     1      11.085   4.865   3.513  0.00  0.00    -0.311 N 
ATOM     18  C   UNL     1      10.531   4.786   4.783  0.00  0.00    +0.214 C 
ATOM     29  H   UNL     1      11.613   5.694   3.260  0.00  0.00    +0.149 HD
BRANCH  18  17
ATOM     17  C   UNL     1      10.755   6.039   5.612  0.00  0.00    +0.102 C 
BRANCH  17  15
ATOM     15  C   UNL     1       9.482   6.604   6.293  0.00  0.00    -0.017 C 
ATOM     22  C   UNL     1       9.643   8.114   6.567  0.00  0.00    +0.012 C 
ATOM     23  C   UNL     1       8.304   6.436   5.309  0.00  0.00    +0.012 C 
BRANCH  15  20
ATOM     20  C   UNL     1       9.157   5.906   7.635  0.00  0.00    +0.127 C 
BRANCH  20  26
ATOM      6  O   UNL     1      11.245   5.800   8.855  0.00  0.00    -0.251 OA
ATOM     26  C   UNL     1      10.330   5.214   8.291  0.00  0.00    +0.305 C 
BRANCH  26   5
ATOM      5  O   UNL     1      10.270   3.863   8.188  0.00  0.00    -0.481 OA
ATOM     31  H   UNL     1      10.857   3.524   7.478  0.00  0.00    +0.295 HD
ENDBRANCH  26   5
ENDBRANCH  20  26
ENDBRANCH  15  20
ENDBRANCH  17  15
ENDBRANCH  18  17
ENDBRANCH  10   8
TORSDOF 6
ENDMDL
MODEL 10
REMARK VINA RESULT:      -5.8     17.228     19.208
REMARK  Name = 40781693
REMARK  8 active torsions:
REMARK  status: ('A' for Active; 'I' for Inactive)
REMARK    1  A    between atoms: O_5  and  C_26
REMARK    2  A    between atoms: N_8  and  C_10
REMARK    3  A    between atoms: C_15  and  C_17
REMARK    4  A    between atoms: C_15  and  C_20
REMARK    5  A    between atoms: C_15  and  C_22
REMARK    6  A    between atoms: C_15  and  C_23
REMARK    7  A    between atoms: C_17  and  C_18
REMARK    8  A    between atoms: C_20  and  C_26
REMARK                            x       y       z     vdW  Elec       q    Type
REMARK                         _______ _______ _______ _____ _____    ______ ____
ROOT
ATOM      1 CL   UNL     1      18.084   6.718  -1.289  0.00  0.00    -0.083 Cl
ATOM      2  O   UNL     1      12.454   7.685   3.214  0.00  0.00    -0.273 OA
ATOM      3  O   UNL     1      13.743   2.773   1.626  0.00  0.00    -0.270 OA
ATOM      7  N   UNL     1      12.386   4.604   1.935  0.00  0.00    -0.284 N 
ATOM      9  N   UNL     1      14.201   6.931   1.970  0.00  0.00    -0.283 N 
ATOM     10  C   UNL     1      10.376   4.949   3.134  0.00  0.00    +0.092 C 
ATOM     11  C   UNL     1      11.969   5.952   1.611  0.00  0.00    +0.164 C 
ATOM     12  C   UNL     1      10.498   6.013   2.041  0.00  0.00    +0.055 C 
ATOM     13  C   UNL     1      11.357   3.880   2.671  0.00  0.00    +0.131 C 
ATOM     14  C   UNL     1      12.882   6.897   2.369  0.00  0.00    +0.238 C 
ATOM     16  C   UNL     1      13.515   3.971   1.457  0.00  0.00    +0.249 C 
ATOM     19  C   UNL     1      14.517   4.781   0.718  0.00  0.00    +0.058 A 
ATOM     21  C   UNL     1      14.865   6.103   1.041  0.00  0.00    +0.047 A 
ATOM     24  C   UNL     1      15.262   4.089  -0.255  0.00  0.00    +0.016 A 
ATOM     25  C   UNL     1      15.995   6.675   0.428  0.00  0.00    +0.044 A 
ATOM     27  C   UNL     1      16.350   4.689  -0.886  0.00  0.00    +0.021 A 
ATOM     28  C   UNL     1      16.725   5.979  -0.536  0.00  0.00    +0.043 A 
ATOM     30  H   UNL     1      14.738   7.719   2.324  0.00  0.00    +0.155 HD
ENDROOT
BRANCH  10   8
ATOM      4  O   UNL     1       8.569   5.646   5.263  0.00  0.00    -0.276 OA
ATOM      8  N   UNL     1      10.729   5.466   4.434  0.00  0.00    -0.311 N 
ATOM     18  C   UNL     1       9.783   5.773   5.400  0.00  0.00    +0.214 C 
ATOM     29  H   UNL     1      11.713   5.563   4.663  0.00  0.00    +0.149 HD
BRANCH  18  17
ATOM     17  C   UNL     1      10.394   6.297   6.690  0.00  0.00    +0.102 C 
BRANCH  17  15
ATOM     15  C   UNL     1      10.659   7.824   6.710  0.00  0.00    -0.017 C 
ATOM     22  C   UNL     1      10.176   8.471   5.394  0.00  0.00    +0.012 C 
ATOM     23  C   UNL     1       9.826   8.436   7.857  0.00  0.00    +0.012 C 
BRANCH  15  20
ATOM     20  C   UNL     1      12.155   8.173   6.894  0.00  0.00    +0.127 C 
BRANCH  20  26
ATOM      6  O   UNL     1      13.479   6.335   7.750  0.00  0.00    -0.251 OA
ATOM     26  C   UNL     1      13.099   6.996   6.792  0.00  0.00    +0.305 C 
BRANCH  26   5
ATOM      5  O   UNL     1      13.492   6.745   5.518  0.00  0.00    -0.481 OA
ATOM     31  H   UNL     1      14.110   5.984   5.469  0.00  0.00    +0.295 HD
ENDBRANCH  26   5
ENDBRANCH  20  26
ENDBRANCH  15  20
ENDBRANCH  17  15
ENDBRANCH  18  17
ENDBRANCH  10   8
TORSDOF 6
ENDMDL
