MODEL 1
REMARK VINA RESULT:      -7.2      0.000      0.000
REMARK  Name = 40777899
REMARK  10 active torsions:
REMARK  status: ('A' for Active; 'I' for Inactive)
REMARK    1  A    between atoms: O_3  and  C_12
REMARK    2  A    between atoms: O_4  and  C_13
REMARK    3  A    between atoms: O_5  and  C_22
REMARK    4  A    between atoms: O_5  and  C_24
REMARK    5  A    between atoms: N_9  and  C_21
REMARK    6  A    between atoms: N_10  and  C_25
REMARK    7  A    between atoms: C_11  and  C_16
REMARK    8  A    between atoms: C_14  and  C_21
REMARK    9  A    between atoms: C_15  and  C_22
REMARK   10  A    between atoms: C_16  and  C_20
REMARK                            x       y       z     vdW  Elec       q    Type
REMARK                         _______ _______ _______ _____ _____    ______ ____
ROOT
ATOM      2  O   UNL     1      12.388   7.375  19.177  0.00  0.00    -0.366 OA
ATOM     11  C   UNL     1      13.706   7.057  19.658  0.00  0.00    +0.159 C 
ATOM     12  C   UNL     1      13.684   7.353  21.147  0.00  0.00    +0.175 C 
ATOM     13  C   UNL     1      12.270   6.951  21.515  0.00  0.00    +0.176 C 
ATOM     14  C   UNL     1      11.479   7.425  20.300  0.00  0.00    +0.167 C 
ENDROOT
BRANCH  12   3
ATOM      3  O   UNL     1      14.672   6.627  21.847  0.00  0.00    -0.387 OA
ATOM     31  H   UNL     1      15.371   7.254  22.099  0.00  0.00    +0.210 HD
ENDBRANCH  12   3
BRANCH  13   4
ATOM      4  O   UNL     1      12.162   5.530  21.587  0.00  0.00    -0.387 OA
ATOM     32  H   UNL     1      13.008   5.192  21.927  0.00  0.00    +0.210 HD
ENDBRANCH  13   4
BRANCH  11  16
ATOM     16  C   UNL     1      14.738   7.871  18.897  0.00  0.00    +0.130 C 
BRANCH  16  20
ATOM      6  O   UNL     1      14.012   7.130  16.755  0.00  0.00    -0.276 OA
ATOM      8  N   UNL     1      14.180   9.415  17.080  0.00  0.00    -0.296 N 
ATOM     15  C   UNL     1      13.842   9.803  15.709  0.00  0.00    +0.102 C 
ATOM     17  C   UNL     1      14.278  11.269  15.629  0.00  0.00    +0.026 C 
ATOM     18  C   UNL     1      14.485  10.583  17.902  0.00  0.00    +0.108 C 
ATOM     19  C   UNL     1      14.074  11.776  17.052  0.00  0.00    +0.021 C 
ATOM     20  C   UNL     1      14.278   8.091  17.479  0.00  0.00    +0.218 C 
BRANCH  15  22
ATOM     22  C   UNL     1      12.350   9.629  15.432  0.00  0.00    +0.181 C 
BRANCH  22   5
ATOM      5  O   UNL     1      11.694   9.359  16.657  0.00  0.00    -0.381 OA
ATOM     24  C   UNL     1      10.507   8.599  16.464  0.00  0.00    +0.194 C 
ENDBRANCH  22   5
ENDBRANCH  15  22
ENDBRANCH  16  20
ENDBRANCH  11  16
BRANCH  14  21
ATOM     21  C   UNL     1      10.984   8.859  20.435  0.00  0.00    +0.140 C 
BRANCH  21   9
ATOM      7  O   UNL     1      12.046  11.279  21.538  0.00  0.00    -0.253 OA
ATOM      9  N   UNL     1      10.942   9.265  21.809  0.00  0.00    -0.297 N 
ATOM     10  N   UNL     1      11.295  10.597  23.656  0.00  0.00    -0.269 N 
ATOM     23  C   UNL     1      11.486  10.472  22.277  0.00  0.00    +0.304 C 
ATOM     33  H   UNL     1      10.483   8.651  22.475  0.00  0.00    +0.150 HD
ATOM     34  H   UNL     1      10.811   9.834  24.121  0.00  0.00    +0.156 HD
BRANCH  10  25
ATOM      1  F   UNL     1      10.263  14.560  26.164  0.00  0.00    -0.205 F 
ATOM     25  C   UNL     1      11.698  11.664  24.494  0.00  0.00    +0.037 A 
ATOM     26  C   UNL     1      10.763  12.605  24.923  0.00  0.00    +0.061 A 
ATOM     27  C   UNL     1      13.031  11.772  24.893  0.00  0.00    +0.023 A 
ATOM     28  C   UNL     1      11.160  13.655  25.751  0.00  0.00    +0.125 A 
ATOM     29  C   UNL     1      13.428  12.822  25.721  0.00  0.00    +0.005 A 
ATOM     30  C   UNL     1      12.493  13.763  26.150  0.00  0.00    +0.038 A 
ENDBRANCH  10  25
ENDBRANCH  21   9
ENDBRANCH  14  21
TORSDOF 9
ENDMDL
MODEL 2
REMARK VINA RESULT:      -7.1      4.977      8.237
REMARK  Name = 40777899
REMARK  10 active torsions:
REMARK  status: ('A' for Active; 'I' for Inactive)
REMARK    1  A    between atoms: O_3  and  C_12
REMARK    2  A    between atoms: O_4  and  C_13
REMARK    3  A    between atoms: O_5  and  C_22
REMARK    4  A    between atoms: O_5  and  C_24
REMARK    5  A    between atoms: N_9  and  C_21
REMARK    6  A    between atoms: N_10  and  C_25
REMARK    7  A    between atoms: C_11  and  C_16
REMARK    8  A    between atoms: C_14  and  C_21
REMARK    9  A    between atoms: C_15  and  C_22
REMARK   10  A    between atoms: C_16  and  C_20
REMARK                            x       y       z     vdW  Elec       q    Type
REMARK                         _______ _______ _______ _____ _____    ______ ____
ROOT
ATOM      2  O   UNL     1      13.833   7.924  21.235  0.00  0.00    -0.366 OA
ATOM     11  C   UNL     1      12.643   8.680  20.950  0.00  0.00    +0.159 C 
ATOM     12  C   UNL     1      12.172   8.206  19.586  0.00  0.00    +0.175 C 
ATOM     13  C   UNL     1      12.537   6.736  19.632  0.00  0.00    +0.176 C 
ATOM     14  C   UNL     1      13.870   6.764  20.373  0.00  0.00    +0.167 C 
ENDROOT
BRANCH  12   3
ATOM      3  O   UNL     1      10.792   8.433  19.393  0.00  0.00    -0.387 OA
ATOM     31  H   UNL     1      10.398   8.593  20.267  0.00  0.00    +0.210 HD
ENDBRANCH  12   3
BRANCH  13   4
ATOM      4  O   UNL     1      11.600   6.018  20.434  0.00  0.00    -0.387 OA
ATOM     32  H   UNL     1      10.749   6.486  20.375  0.00  0.00    +0.210 HD
ENDBRANCH  13   4
BRANCH  11  16
ATOM     16  C   UNL     1      12.956  10.165  20.996  0.00  0.00    +0.130 C 
BRANCH  16  20
ATOM      6  O   UNL     1      11.230  10.306  22.629  0.00  0.00    -0.276 OA
ATOM      8  N   UNL     1      11.711  12.227  21.433  0.00  0.00    -0.296 N 
ATOM     15  C   UNL     1      10.651  13.055  22.014  0.00  0.00    +0.102 C 
ATOM     17  C   UNL     1      10.565  14.253  21.065  0.00  0.00    +0.026 C 
ATOM     18  C   UNL     1      12.461  12.963  20.420  0.00  0.00    +0.108 C 
ATOM     19  C   UNL     1      11.993  14.404  20.556  0.00  0.00    +0.021 C 
ATOM     20  C   UNL     1      11.884  10.894  21.766  0.00  0.00    +0.218 C 
BRANCH  15  22
ATOM     22  C   UNL     1      10.990  13.474  23.443  0.00  0.00    +0.181 C 
BRANCH  22   5
ATOM      5  O   UNL     1      10.127  12.786  24.329  0.00  0.00    -0.381 OA
ATOM     24  C   UNL     1      10.820  12.306  25.475  0.00  0.00    +0.194 C 
ENDBRANCH  22   5
ENDBRANCH  15  22
ENDBRANCH  16  20
ENDBRANCH  11  16
BRANCH  14  21
ATOM     21  C   UNL     1      15.065   6.913  19.442  0.00  0.00    +0.140 C 
BRANCH  21   9
ATOM      7  O   UNL     1      17.581   5.734  18.745  0.00  0.00    -0.253 OA
ATOM      9  N   UNL     1      16.289   7.006  20.182  0.00  0.00    -0.297 N 
ATOM     10  N   UNL     1      18.510   6.660  20.692  0.00  0.00    -0.269 N 
ATOM     23  C   UNL     1      17.488   6.398  19.775  0.00  0.00    +0.304 C 
ATOM     33  H   UNL     1      16.290   7.549  21.040  0.00  0.00    +0.150 HD
ATOM     34  H   UNL     1      18.266   7.230  21.498  0.00  0.00    +0.156 HD
BRANCH  10  25
ATOM      1  F   UNL     1      23.202   7.629  20.369  0.00  0.00    -0.205 F 
ATOM     25  C   UNL     1      19.856   6.227  20.639  0.00  0.00    +0.037 A 
ATOM     26  C   UNL     1      20.885   7.161  20.527  0.00  0.00    +0.061 A 
ATOM     27  C   UNL     1      20.153   4.865  20.700  0.00  0.00    +0.023 A 
ATOM     28  C   UNL     1      22.213   6.733  20.476  0.00  0.00    +0.125 A 
ATOM     29  C   UNL     1      21.480   4.438  20.649  0.00  0.00    +0.005 A 
ATOM     30  C   UNL     1      22.509   5.371  20.537  0.00  0.00    +0.038 A 
ENDBRANCH  10  25
ENDBRANCH  21   9
ENDBRANCH  14  21
TORSDOF 9
ENDMDL
MODEL 3
REMARK VINA RESULT:      -7.1     13.466     17.565
REMARK  Name = 40777899
REMARK  10 active torsions:
REMARK  status: ('A' for Active; 'I' for Inactive)
REMARK    1  A    between atoms: O_3  and  C_12
REMARK    2  A    between atoms: O_4  and  C_13
REMARK    3  A    between atoms: O_5  and  C_22
REMARK    4  A    between atoms: O_5  and  C_24
REMARK    5  A    between atoms: N_9  and  C_21
REMARK    6  A    between atoms: N_10  and  C_25
REMARK    7  A    between atoms: C_11  and  C_16
REMARK    8  A    between atoms: C_14  and  C_21
REMARK    9  A    between atoms: C_15  and  C_22
REMARK   10  A    between atoms: C_16  and  C_20
REMARK                            x       y       z     vdW  Elec       q    Type
REMARK                         _______ _______ _______ _____ _____    ______ ____
ROOT
ATOM      2  O   UNL     1      12.064   4.179   2.545  0.00  0.00    -0.366 OA
ATOM     11  C   UNL     1      11.016   5.139   2.771  0.00  0.00    +0.159 C 
ATOM     12  C   UNL     1      10.935   5.966   1.500  0.00  0.00    +0.175 C 
ATOM     13  C   UNL     1      11.243   4.927   0.441  0.00  0.00    +0.176 C 
ATOM     14  C   UNL     1      12.317   4.087   1.124  0.00  0.00    +0.167 C 
ENDROOT
BRANCH  12   3
ATOM      3  O   UNL     1       9.668   6.569   1.340  0.00  0.00    -0.387 OA
ATOM     31  H   UNL     1       9.648   6.973   0.456  0.00  0.00    +0.210 HD
ENDBRANCH  12   3
BRANCH  13   4
ATOM      4  O   UNL     1      10.105   4.096   0.217  0.00  0.00    -0.387 OA
ATOM     32  H   UNL     1       9.324   4.674   0.193  0.00  0.00    +0.210 HD
ENDBRANCH  13   4
BRANCH  11  16
ATOM     16  C   UNL     1      11.333   5.962   4.007  0.00  0.00    +0.130 C 
BRANCH  16  20
ATOM      6  O   UNL     1      10.171   4.279   5.224  0.00  0.00    -0.276 OA
ATOM      8  N   UNL     1      10.271   6.388   6.171  0.00  0.00    -0.296 N 
ATOM     15  C   UNL     1       9.431   6.089   7.333  0.00  0.00    +0.102 C 
ATOM     17  C   UNL     1       9.064   7.471   7.881  0.00  0.00    +0.026 C 
ATOM     18  C   UNL     1      10.685   7.788   6.164  0.00  0.00    +0.108 C 
ATOM     19  C   UNL     1      10.276   8.324   7.527  0.00  0.00    +0.021 C 
ATOM     20  C   UNL     1      10.538   5.455   5.182  0.00  0.00    +0.218 C 
BRANCH  15  22
ATOM     22  C   UNL     1      10.178   5.241   8.359  0.00  0.00    +0.181 C 
BRANCH  22   5
ATOM      5  O   UNL     1       9.277   4.293   8.900  0.00  0.00    -0.381 OA
ATOM     24  C   UNL     1       8.948   4.589  10.253  0.00  0.00    +0.194 C 
ENDBRANCH  22   5
ENDBRANCH  15  22
ENDBRANCH  16  20
ENDBRANCH  11  16
BRANCH  14  21
ATOM     21  C   UNL     1      13.727   4.600   0.868  0.00  0.00    +0.140 C 
BRANCH  21   9
ATOM      7  O   UNL     1      14.280   7.240   1.829  0.00  0.00    -0.253 OA
ATOM      9  N   UNL     1      14.384   4.945   2.094  0.00  0.00    -0.297 N 
ATOM     10  N   UNL     1      15.276   6.295   3.734  0.00  0.00    -0.269 N 
ATOM     23  C   UNL     1      14.621   6.268   2.500  0.00  0.00    +0.304 C 
ATOM     33  H   UNL     1      14.683   4.191   2.705  0.00  0.00    +0.150 HD
ATOM     34  H   UNL     1      15.488   5.397   4.159  0.00  0.00    +0.156 HD
BRANCH  10  25
ATOM      1  F   UNL     1      14.372   9.724   6.972  0.00  0.00    -0.205 F 
ATOM     25  C   UNL     1      15.687   7.430   4.473  0.00  0.00    +0.037 A 
ATOM     26  C   UNL     1      14.809   8.030   5.375  0.00  0.00    +0.061 A 
ATOM     27  C   UNL     1      16.971   7.947   4.301  0.00  0.00    +0.023 A 
ATOM     28  C   UNL     1      15.215   9.147   6.105  0.00  0.00    +0.125 A 
ATOM     29  C   UNL     1      17.377   9.064   5.031  0.00  0.00    +0.005 A 
ATOM     30  C   UNL     1      16.499   9.664   5.933  0.00  0.00    +0.038 A 
ENDBRANCH  10  25
ENDBRANCH  21   9
ENDBRANCH  14  21
TORSDOF 9
ENDMDL
MODEL 4
REMARK VINA RESULT:      -7.0      1.918      2.526
REMARK  Name = 40777899
REMARK  10 active torsions:
REMARK  status: ('A' for Active; 'I' for Inactive)
REMARK    1  A    between atoms: O_3  and  C_12
REMARK    2  A    between atoms: O_4  and  C_13
REMARK    3  A    between atoms: O_5  and  C_22
REMARK    4  A    between atoms: O_5  and  C_24
REMARK    5  A    between atoms: N_9  and  C_21
REMARK    6  A    between atoms: N_10  and  C_25
REMARK    7  A    between atoms: C_11  and  C_16
REMARK    8  A    between atoms: C_14  and  C_21
REMARK    9  A    between atoms: C_15  and  C_22
REMARK   10  A    between atoms: C_16  and  C_20
REMARK                            x       y       z     vdW  Elec       q    Type
REMARK                         _______ _______ _______ _____ _____    ______ ____
ROOT
ATOM      2  O   UNL     1      12.042   6.794  19.301  0.00  0.00    -0.366 OA
ATOM     11  C   UNL     1      13.012   7.710  18.762  0.00  0.00    +0.159 C 
ATOM     12  C   UNL     1      13.814   8.206  19.952  0.00  0.00    +0.175 C 
ATOM     13  C   UNL     1      13.861   6.968  20.824  0.00  0.00    +0.176 C 
ATOM     14  C   UNL     1      12.467   6.384  20.621  0.00  0.00    +0.167 C 
ENDROOT
BRANCH  12   3
ATOM      3  O   UNL     1      15.092   8.671  19.573  0.00  0.00    -0.387 OA
ATOM     31  H   UNL     1      15.652   8.666  20.367  0.00  0.00    +0.210 HD
ENDBRANCH  12   3
BRANCH  13   4
ATOM      4  O   UNL     1      14.811   6.036  20.310  0.00  0.00    -0.387 OA
ATOM     32  H   UNL     1      15.101   5.479  21.052  0.00  0.00    +0.210 HD
ENDBRANCH  13   4
BRANCH  11  16
ATOM     16  C   UNL     1      12.302   8.821  18.008  0.00  0.00    +0.130 C 
BRANCH  16  20
ATOM      6  O   UNL     1      13.163   8.456  15.819  0.00  0.00    -0.276 OA
ATOM      8  N   UNL     1      13.733  10.443  16.860  0.00  0.00    -0.296 N 
ATOM     15  C   UNL     1      14.626  10.931  15.807  0.00  0.00    +0.102 C 
ATOM     17  C   UNL     1      15.404  12.062  16.488  0.00  0.00    +0.026 C 
ATOM     18  C   UNL     1      13.689  11.367  17.989  0.00  0.00    +0.108 C 
ATOM     19  C   UNL     1      14.409  12.615  17.500  0.00  0.00    +0.021 C 
ATOM     20  C   UNL     1      13.103   9.211  16.791  0.00  0.00    +0.218 C 
BRANCH  15  22
ATOM     22  C   UNL     1      13.843  11.420  14.592  0.00  0.00    +0.181 C 
BRANCH  22   5
ATOM      5  O   UNL     1      14.716  11.453  13.478  0.00  0.00    -0.381 OA
ATOM     24  C   UNL     1      14.573  12.655  12.730  0.00  0.00    +0.194 C 
ENDBRANCH  22   5
ENDBRANCH  15  22
ENDBRANCH  16  20
ENDBRANCH  11  16
BRANCH  14  21
ATOM     21  C   UNL     1      11.449   6.911  21.622  0.00  0.00    +0.140 C 
BRANCH  21   9
ATOM      7  O   UNL     1       9.881   9.199  22.339  0.00  0.00    -0.253 OA
ATOM      9  N   UNL     1      11.918   8.107  22.258  0.00  0.00    -0.297 N 
ATOM     10  N   UNL     1      11.821  10.212  23.191  0.00  0.00    -0.269 N 
ATOM     23  C   UNL     1      11.086   9.191  22.580  0.00  0.00    +0.304 C 
ATOM     33  H   UNL     1      12.903   8.165  22.498  0.00  0.00    +0.150 HD
ATOM     34  H   UNL     1      12.816  10.046  23.317  0.00  0.00    +0.156 HD
BRANCH  10  25
ATOM      1  F   UNL     1      10.224  14.661  22.345  0.00  0.00    -0.205 F 
ATOM     25  C   UNL     1      11.347  11.460  23.660  0.00  0.00    +0.037 A 
ATOM     26  C   UNL     1      11.013  12.465  22.753  0.00  0.00    +0.061 A 
ATOM     27  C   UNL     1      11.213  11.684  25.031  0.00  0.00    +0.023 A 
ATOM     28  C   UNL     1      10.545  13.695  23.216  0.00  0.00    +0.125 A 
ATOM     29  C   UNL     1      10.744  12.914  25.493  0.00  0.00    +0.005 A 
ATOM     30  C   UNL     1      10.410  13.919  24.586  0.00  0.00    +0.038 A 
ENDBRANCH  10  25
ENDBRANCH  21   9
ENDBRANCH  14  21
TORSDOF 9
ENDMDL
MODEL 5
REMARK VINA RESULT:      -7.0      3.386      8.284
REMARK  Name = 40777899
REMARK  10 active torsions:
REMARK  status: ('A' for Active; 'I' for Inactive)
REMARK    1  A    between atoms: O_3  and  C_12
REMARK    2  A    between atoms: O_4  and  C_13
REMARK    3  A    between atoms: O_5  and  C_22
REMARK    4  A    between atoms: O_5  and  C_24
REMARK    5  A    between atoms: N_9  and  C_21
REMARK    6  A    between atoms: N_10  and  C_25
REMARK    7  A    between atoms: C_11  and  C_16
REMARK    8  A    between atoms: C_14  and  C_21
REMARK    9  A    between atoms: C_15  and  C_22
REMARK   10  A    between atoms: C_16  and  C_20
REMARK                            x       y       z     vdW  Elec       q    Type
REMARK                         _______ _______ _______ _____ _____    ______ ____
ROOT
ATOM      2  O   UNL     1      13.227   8.562  20.318  0.00  0.00    -0.366 OA
ATOM     11  C   UNL     1      12.090   8.742  21.180  0.00  0.00    +0.159 C 
ATOM     12  C   UNL     1      11.043   7.757  20.690  0.00  0.00    +0.175 C 
ATOM     13  C   UNL     1      11.904   6.586  20.261  0.00  0.00    +0.176 C 
ATOM     14  C   UNL     1      13.109   7.289  19.644  0.00  0.00    +0.167 C 
ENDROOT
BRANCH  12   3
ATOM      3  O   UNL     1      10.113   7.426  21.699  0.00  0.00    -0.387 OA
ATOM     31  H   UNL     1      10.472   6.667  22.189  0.00  0.00    +0.210 HD
ENDBRANCH  12   3
BRANCH  13   4
ATOM      4  O   UNL     1      12.353   5.857  21.403  0.00  0.00    -0.387 OA
ATOM     32  H   UNL     1      13.185   6.265  21.698  0.00  0.00    +0.210 HD
ENDBRANCH  13   4
BRANCH  11  16
ATOM     16  C   UNL     1      11.629  10.187  21.126  0.00  0.00    +0.130 C 
BRANCH  16  20
ATOM      6  O   UNL     1      11.049   9.827  23.406  0.00  0.00    -0.276 OA
ATOM      8  N   UNL     1      11.028  12.012  22.645  0.00  0.00    -0.296 N 
ATOM     15  C   UNL     1      10.528  12.614  23.883  0.00  0.00    +0.102 C 
ATOM     17  C   UNL     1      10.082  14.014  23.450  0.00  0.00    +0.026 C 
ATOM     18  C   UNL     1      11.205  13.016  21.601  0.00  0.00    +0.108 C 
ATOM     19  C   UNL     1      11.034  14.351  22.310  0.00  0.00    +0.021 C 
ATOM     20  C   UNL     1      11.208  10.646  22.500  0.00  0.00    +0.218 C 
BRANCH  15  22
ATOM     22  C   UNL     1      11.611  12.661  24.958  0.00  0.00    +0.181 C 
BRANCH  22   5
ATOM      5  O   UNL     1      11.259  13.651  25.907  0.00  0.00    -0.381 OA
ATOM     24  C   UNL     1      12.391  14.405  26.328  0.00  0.00    +0.194 C 
ENDBRANCH  22   5
ENDBRANCH  15  22
ENDBRANCH  16  20
ENDBRANCH  11  16
BRANCH  14  21
ATOM     21  C   UNL     1      12.941   7.562  18.156  0.00  0.00    +0.140 C 
BRANCH  21   9
ATOM      7  O   UNL     1      13.420   8.501  15.492  0.00  0.00    -0.253 OA
ATOM      9  N   UNL     1      13.568   8.795  17.782  0.00  0.00    -0.297 N 
ATOM     10  N   UNL     1      14.401  10.435  16.393  0.00  0.00    -0.269 N 
ATOM     23  C   UNL     1      13.769   9.189  16.449  0.00  0.00    +0.304 C 
ATOM     33  H   UNL     1      13.872   9.421  18.522  0.00  0.00    +0.150 HD
ATOM     34  H   UNL     1      14.625  10.874  17.282  0.00  0.00    +0.156 HD
BRANCH  10  25
ATOM      1  F   UNL     1      17.772  12.054  13.380  0.00  0.00    -0.205 F 
ATOM     25  C   UNL     1      14.774  11.167  15.241  0.00  0.00    +0.037 A 
ATOM     26  C   UNL     1      16.116  11.252  14.872  0.00  0.00    +0.061 A 
ATOM     27  C   UNL     1      13.798  11.803  14.473  0.00  0.00    +0.023 A 
ATOM     28  C   UNL     1      16.483  11.973  13.735  0.00  0.00    +0.125 A 
ATOM     29  C   UNL     1      14.165  12.524  13.336  0.00  0.00    +0.005 A 
ATOM     30  C   UNL     1      15.506  12.609  12.967  0.00  0.00    +0.038 A 
ENDBRANCH  10  25
ENDBRANCH  21   9
ENDBRANCH  14  21
TORSDOF 9
ENDMDL
MODEL 6
REMARK VINA RESULT:      -7.0      2.189      3.672
REMARK  Name = 40777899
REMARK  10 active torsions:
REMARK  status: ('A' for Active; 'I' for Inactive)
REMARK    1  A    between atoms: O_3  and  C_12
REMARK    2  A    between atoms: O_4  and  C_13
REMARK    3  A    between atoms: O_5  and  C_22
REMARK    4  A    between atoms: O_5  and  C_24
REMARK    5  A    between atoms: N_9  and  C_21
REMARK    6  A    between atoms: N_10  and  C_25
REMARK    7  A    between atoms: C_11  and  C_16
REMARK    8  A    between atoms: C_14  and  C_21
REMARK    9  A    between atoms: C_15  and  C_22
REMARK   10  A    between atoms: C_16  and  C_20
REMARK                            x       y       z     vdW  Elec       q    Type
REMARK                         _______ _______ _______ _____ _____    ______ ____
ROOT
ATOM      2  O   UNL     1      12.410   7.245  19.158  0.00  0.00    -0.366 OA
ATOM     11  C   UNL     1      13.708   6.976  19.717  0.00  0.00    +0.159 C 
ATOM     12  C   UNL     1      13.628   7.406  21.171  0.00  0.00    +0.175 C 
ATOM     13  C   UNL     1      12.200   7.036  21.518  0.00  0.00    +0.176 C 
ATOM     14  C   UNL     1      11.458   7.395  20.236  0.00  0.00    +0.167 C 
ENDROOT
BRANCH  12   3
ATOM      3  O   UNL     1      14.587   6.749  21.972  0.00  0.00    -0.387 OA
ATOM     31  H   UNL     1      14.686   5.846  21.626  0.00  0.00    +0.210 HD
ENDBRANCH  12   3
BRANCH  13   4
ATOM      4  O   UNL     1      12.088   5.627  21.715  0.00  0.00    -0.387 OA
ATOM     32  H   UNL     1      12.989   5.260  21.702  0.00  0.00    +0.210 HD
ENDBRANCH  13   4
BRANCH  11  16
ATOM     16  C   UNL     1      14.770   7.719  18.926  0.00  0.00    +0.130 C 
BRANCH  16  20
ATOM      6  O   UNL     1      13.988   9.960  19.105  0.00  0.00    -0.276 OA
ATOM      8  N   UNL     1      15.972   9.446  20.178  0.00  0.00    -0.296 N 
ATOM     15  C   UNL     1      16.266  10.804  20.642  0.00  0.00    +0.102 C 
ATOM     17  C   UNL     1      17.742  10.737  21.047  0.00  0.00    +0.026 C 
ATOM     18  C   UNL     1      17.032   8.516  20.556  0.00  0.00    +0.108 C 
ATOM     19  C   UNL     1      17.914   9.298  21.518  0.00  0.00    +0.021 C 
ATOM     20  C   UNL     1      14.863   9.146  19.403  0.00  0.00    +0.218 C 
BRANCH  15  22
ATOM     22  C   UNL     1      15.366  11.203  21.809  0.00  0.00    +0.181 C 
BRANCH  22   5
ATOM      5  O   UNL     1      16.035  12.186  22.576  0.00  0.00    -0.381 OA
ATOM     24  C   UNL     1      15.132  13.159  23.091  0.00  0.00    +0.194 C 
ENDBRANCH  22   5
ENDBRANCH  15  22
ENDBRANCH  16  20
ENDBRANCH  11  16
BRANCH  14  21
ATOM     21  C   UNL     1      10.959   8.834  20.220  0.00  0.00    +0.140 C 
BRANCH  21   9
ATOM      7  O   UNL     1      11.784  11.353  21.304  0.00  0.00    -0.253 OA
ATOM      9  N   UNL     1      10.721   9.314  21.548  0.00  0.00    -0.297 N 
ATOM     10  N   UNL     1      10.780  10.760  23.342  0.00  0.00    -0.269 N 
ATOM     23  C   UNL     1      11.158  10.566  22.010  0.00  0.00    +0.304 C 
ATOM     33  H   UNL     1      10.198   8.720  22.185  0.00  0.00    +0.150 HD
ATOM     34  H   UNL     1      10.263  10.005  23.785  0.00  0.00    +0.156 HD
BRANCH  10  25
ATOM      1  F   UNL     1      13.445  13.025  26.633  0.00  0.00    -0.205 F 
ATOM     25  C   UNL     1      11.032  11.887  24.159  0.00  0.00    +0.037 A 
ATOM     26  C   UNL     1      12.136  11.900  25.010  0.00  0.00    +0.061 A 
ATOM     27  C   UNL     1      10.175  12.988  24.112  0.00  0.00    +0.023 A 
ATOM     28  C   UNL     1      12.384  13.012  25.815  0.00  0.00    +0.125 A 
ATOM     29  C   UNL     1      10.423  14.100  24.917  0.00  0.00    +0.005 A 
ATOM     30  C   UNL     1      11.527  14.112  25.768  0.00  0.00    +0.038 A 
ENDBRANCH  10  25
ENDBRANCH  21   9
ENDBRANCH  14  21
TORSDOF 9
ENDMDL
MODEL 7
REMARK VINA RESULT:      -6.9     25.536     28.100
REMARK  Name = 40777899
REMARK  10 active torsions:
REMARK  status: ('A' for Active; 'I' for Inactive)
REMARK    1  A    between atoms: O_3  and  C_12
REMARK    2  A    between atoms: O_4  and  C_13
REMARK    3  A    between atoms: O_5  and  C_22
REMARK    4  A    between atoms: O_5  and  C_24
REMARK    5  A    between atoms: N_9  and  C_21
REMARK    6  A    between atoms: N_10  and  C_25
REMARK    7  A    between atoms: C_11  and  C_16
REMARK    8  A    between atoms: C_14  and  C_21
REMARK    9  A    between atoms: C_15  and  C_22
REMARK   10  A    between atoms: C_16  and  C_20
REMARK                            x       y       z     vdW  Elec       q    Type
REMARK                         _______ _______ _______ _____ _____    ______ ____
ROOT
ATOM      2  O   UNL     1      -4.535  -9.424  11.460  0.00  0.00    -0.366 OA
ATOM     11  C   UNL     1      -4.077  -9.956  10.204  0.00  0.00    +0.159 C 
ATOM     12  C   UNL     1      -5.285  -9.934   9.283  0.00  0.00    +0.175 C 
ATOM     13  C   UNL     1      -5.987  -8.669   9.734  0.00  0.00    +0.176 C 
ATOM     14  C   UNL     1      -5.771  -8.706  11.243  0.00  0.00    +0.167 C 
ENDROOT
BRANCH  12   3
ATOM      3  O   UNL     1      -4.914  -9.912   7.921  0.00  0.00    -0.387 OA
ATOM     31  H   UNL     1      -4.500 -10.768   7.719  0.00  0.00    +0.210 HD
ENDBRANCH  12   3
BRANCH  13   4
ATOM      4  O   UNL     1      -5.316  -7.520   9.218  0.00  0.00    -0.387 OA
ATOM     32  H   UNL     1      -4.663  -7.243   9.883  0.00  0.00    +0.210 HD
ENDBRANCH  13   4
BRANCH  11  16
ATOM     16  C   UNL     1      -3.505 -11.346  10.414  0.00  0.00    +0.130 C 
BRANCH  16  20
ATOM      6  O   UNL     1      -1.830 -10.414  11.825  0.00  0.00    -0.276 OA
ATOM      8  N   UNL     1      -2.710 -12.463  12.443  0.00  0.00    -0.296 N 
ATOM     15  C   UNL     1      -1.839 -12.676  13.601  0.00  0.00    +0.102 C 
ATOM     17  C   UNL     1      -2.011 -14.164  13.915  0.00  0.00    +0.026 C 
ATOM     18  C   UNL     1      -3.606 -13.598  12.239  0.00  0.00    +0.108 C 
ATOM     19  C   UNL     1      -3.444 -14.452  13.486  0.00  0.00    +0.021 C 
ATOM     20  C   UNL     1      -2.600 -11.354  11.620  0.00  0.00    +0.218 C 
BRANCH  15  22
ATOM     22  C   UNL     1      -2.243 -11.787  14.775  0.00  0.00    +0.181 C 
BRANCH  22   5
ATOM      5  O   UNL     1      -1.068 -11.337  15.423  0.00  0.00    -0.381 OA
ATOM     24  C   UNL     1      -1.038  -9.919  15.538  0.00  0.00    +0.194 C 
ENDBRANCH  22   5
ENDBRANCH  15  22
ENDBRANCH  16  20
ENDBRANCH  11  16
BRANCH  14  21
ATOM     21  C   UNL     1      -6.876  -9.446  11.985  0.00  0.00    +0.140 C 
BRANCH  21   9
ATOM      7  O   UNL     1      -6.021 -11.239  14.049  0.00  0.00    -0.253 OA
ATOM      9  N   UNL     1      -6.828  -9.174  13.391  0.00  0.00    -0.297 N 
ATOM     10  N   UNL     1      -6.458  -9.561  15.632  0.00  0.00    -0.269 N 
ATOM     23  C   UNL     1      -6.396 -10.107  14.347  0.00  0.00    +0.304 C 
ATOM     33  H   UNL     1      -7.112  -8.252  13.709  0.00  0.00    +0.150 HD
ATOM     34  H   UNL     1      -6.793  -8.604  15.706  0.00  0.00    +0.156 HD
BRANCH  10  25
ATOM      1  F   UNL     1      -7.706 -11.406  19.886  0.00  0.00    -0.205 F 
ATOM     25  C   UNL     1      -6.110 -10.181  16.855  0.00  0.00    +0.037 A 
ATOM     26  C   UNL     1      -7.100 -10.493  17.786  0.00  0.00    +0.061 A 
ATOM     27  C   UNL     1      -4.775 -10.481  17.129  0.00  0.00    +0.023 A 
ATOM     28  C   UNL     1      -6.756 -11.105  18.992  0.00  0.00    +0.125 A 
ATOM     29  C   UNL     1      -4.431 -11.094  18.335  0.00  0.00    +0.005 A 
ATOM     30  C   UNL     1      -5.421 -11.406  19.265  0.00  0.00    +0.038 A 
ENDBRANCH  10  25
ENDBRANCH  21   9
ENDBRANCH  14  21
TORSDOF 9
ENDMDL
MODEL 8
REMARK VINA RESULT:      -6.8     16.085     19.976
REMARK  Name = 40777899
REMARK  10 active torsions:
REMARK  status: ('A' for Active; 'I' for Inactive)
REMARK    1  A    between atoms: O_3  and  C_12
REMARK    2  A    between atoms: O_4  and  C_13
REMARK    3  A    between atoms: O_5  and  C_22
REMARK    4  A    between atoms: O_5  and  C_24
REMARK    5  A    between atoms: N_9  and  C_21
REMARK    6  A    between atoms: N_10  and  C_25
REMARK    7  A    between atoms: C_11  and  C_16
REMARK    8  A    between atoms: C_14  and  C_21
REMARK    9  A    between atoms: C_15  and  C_22
REMARK   10  A    between atoms: C_16  and  C_20
REMARK                            x       y       z     vdW  Elec       q    Type
REMARK                         _______ _______ _______ _____ _____    ______ ____
ROOT
ATOM      2  O   UNL     1      13.348   3.279  -0.088  0.00  0.00    -0.366 OA
ATOM     11  C   UNL     1      14.523   3.963  -0.557  0.00  0.00    +0.159 C 
ATOM     12  C   UNL     1      14.945   4.881   0.577  0.00  0.00    +0.175 C 
ATOM     13  C   UNL     1      14.588   4.046   1.791  0.00  0.00    +0.176 C 
ATOM     14  C   UNL     1      13.284   3.389   1.352  0.00  0.00    +0.167 C 
ENDROOT
BRANCH  12   3
ATOM      3  O   UNL     1      16.315   5.212   0.510  0.00  0.00    -0.387 OA
ATOM     31  H   UNL     1      16.631   5.334   1.421  0.00  0.00    +0.210 HD
ENDBRANCH  12   3
BRANCH  13   4
ATOM      4  O   UNL     1      15.558   3.018   1.987  0.00  0.00    -0.387 OA
ATOM     32  H   UNL     1      15.993   2.863   1.131  0.00  0.00    +0.210 HD
ENDBRANCH  13   4
BRANCH  11  16
ATOM     16  C   UNL     1      14.205   4.704  -1.844  0.00  0.00    +0.130 C 
BRANCH  16  20
ATOM      6  O   UNL     1      12.375   6.063  -1.160  0.00  0.00    -0.276 OA
ATOM      8  N   UNL     1      11.928   4.381  -2.684  0.00  0.00    -0.296 N 
ATOM     15  C   UNL     1      10.479   4.588  -2.741  0.00  0.00    +0.102 C 
ATOM     17  C   UNL     1       9.956   3.313  -3.408  0.00  0.00    +0.026 C 
ATOM     18  C   UNL     1      12.335   3.257  -3.523  0.00  0.00    +0.108 C 
ATOM     19  C   UNL     1      11.096   2.905  -4.333  0.00  0.00    +0.021 C 
ATOM     20  C   UNL     1      12.756   5.120  -1.855  0.00  0.00    +0.218 C 
BRANCH  15  22
ATOM     22  C   UNL     1      10.125   5.843  -3.537  0.00  0.00    +0.181 C 
BRANCH  22   5
ATOM      5  O   UNL     1       8.913   6.369  -3.030  0.00  0.00    -0.381 OA
ATOM     24  C   UNL     1       9.133   7.220  -1.911  0.00  0.00    +0.194 C 
ENDBRANCH  22   5
ENDBRANCH  15  22
ENDBRANCH  16  20
ENDBRANCH  11  16
BRANCH  14  21
ATOM     21  C   UNL     1      12.054   4.215   1.702  0.00  0.00    +0.140 C 
BRANCH  21   9
ATOM      7  O   UNL     1       9.911   5.214   3.319  0.00  0.00    -0.253 OA
ATOM      9  N   UNL     1      12.162   4.773   3.017  0.00  0.00    -0.297 N 
ATOM     10  N   UNL     1      11.471   5.729   4.997  0.00  0.00    -0.269 N 
ATOM     23  C   UNL     1      11.061   5.244   3.752  0.00  0.00    +0.304 C 
ATOM     33  H   UNL     1      13.082   4.819   3.443  0.00  0.00    +0.150 HD
ATOM     34  H   UNL     1      12.466   5.682   5.201  0.00  0.00    +0.156 HD
BRANCH  10  25
ATOM      1  F   UNL     1       9.041   5.275   9.114  0.00  0.00    -0.205 F 
ATOM     25  C   UNL     1      10.666   6.285   6.019  0.00  0.00    +0.037 A 
ATOM     26  C   UNL     1      10.242   5.489   7.083  0.00  0.00    +0.061 A 
ATOM     27  C   UNL     1      10.297   7.629   5.963  0.00  0.00    +0.023 A 
ATOM     28  C   UNL     1       9.449   6.038   8.092  0.00  0.00    +0.125 A 
ATOM     29  C   UNL     1       9.505   8.178   6.972  0.00  0.00    +0.005 A 
ATOM     30  C   UNL     1       9.081   7.383   8.036  0.00  0.00    +0.038 A 
ENDBRANCH  10  25
ENDBRANCH  21   9
ENDBRANCH  14  21
TORSDOF 9
ENDMDL
MODEL 9
REMARK VINA RESULT:      -6.8      4.364      7.406
REMARK  Name = 40777899
REMARK  10 active torsions:
REMARK  status: ('A' for Active; 'I' for Inactive)
REMARK    1  A    between atoms: O_3  and  C_12
REMARK    2  A    between atoms: O_4  and  C_13
REMARK    3  A    between atoms: O_5  and  C_22
REMARK    4  A    between atoms: O_5  and  C_24
REMARK    5  A    between atoms: N_9  and  C_21
REMARK    6  A    between atoms: N_10  and  C_25
REMARK    7  A    between atoms: C_11  and  C_16
REMARK    8  A    between atoms: C_14  and  C_21
REMARK    9  A    between atoms: C_15  and  C_22
REMARK   10  A    between atoms: C_16  and  C_20
REMARK                            x       y       z     vdW  Elec       q    Type
REMARK                         _______ _______ _______ _____ _____    ______ ____
ROOT
ATOM      2  O   UNL     1      13.337   6.536  20.055  0.00  0.00    -0.366 OA
ATOM     11  C   UNL     1      12.063   7.149  20.321  0.00  0.00    +0.159 C 
ATOM     12  C   UNL     1      11.956   8.312  19.351  0.00  0.00    +0.175 C 
ATOM     13  C   UNL     1      12.656   7.753  18.129  0.00  0.00    +0.176 C 
ATOM     14  C   UNL     1      13.799   6.959  18.753  0.00  0.00    +0.167 C 
ENDROOT
BRANCH  12   3
ATOM      3  O   UNL     1      10.615   8.679  19.108  0.00  0.00    -0.387 OA
ATOM     31  H   UNL     1      10.075   8.293  19.818  0.00  0.00    +0.210 HD
ENDBRANCH  12   3
BRANCH  13   4
ATOM      4  O   UNL     1      11.801   6.837  17.445  0.00  0.00    -0.387 OA
ATOM     32  H   UNL     1      10.958   7.292  17.283  0.00  0.00    +0.210 HD
ENDBRANCH  13   4
BRANCH  11  16
ATOM     16  C   UNL     1      11.993   7.572  21.778  0.00  0.00    +0.130 C 
BRANCH  16  20
ATOM      6  O   UNL     1      14.217   8.357  22.098  0.00  0.00    -0.276 OA
ATOM      8  N   UNL     1      12.515   9.918  22.243  0.00  0.00    -0.296 N 
ATOM     15  C   UNL     1      13.363  11.053  22.616  0.00  0.00    +0.102 C 
ATOM     17  C   UNL     1      12.367  12.095  23.133  0.00  0.00    +0.026 C 
ATOM     18  C   UNL     1      11.107  10.300  22.201  0.00  0.00    +0.108 C 
ATOM     19  C   UNL     1      11.110  11.817  22.318  0.00  0.00    +0.021 C 
ATOM     20  C   UNL     1      13.019   8.641  22.055  0.00  0.00    +0.218 C 
BRANCH  15  22
ATOM     22  C   UNL     1      14.166  11.566  21.423  0.00  0.00    +0.181 C 
BRANCH  22   5
ATOM      5  O   UNL     1      15.539  11.326  21.670  0.00  0.00    -0.381 OA
ATOM     24  C   UNL     1      15.868  11.506  23.043  0.00  0.00    +0.194 C 
ENDBRANCH  22   5
ENDBRANCH  15  22
ENDBRANCH  16  20
ENDBRANCH  11  16
BRANCH  14  21
ATOM     21  C   UNL     1      15.060   7.789  18.952  0.00  0.00    +0.140 C 
BRANCH  21   9
ATOM      7  O   UNL     1      17.216   8.451  20.717  0.00  0.00    -0.253 OA
ATOM      9  N   UNL     1      16.178   6.958  19.288  0.00  0.00    -0.297 N 
ATOM     10  N   UNL     1      18.154   6.339  20.301  0.00  0.00    -0.269 N 
ATOM     23  C   UNL     1      17.201   7.353  20.165  0.00  0.00    +0.304 C 
ATOM     33  H   UNL     1      16.225   6.031  18.877  0.00  0.00    +0.150 HD
ATOM     34  H   UNL     1      17.992   5.487  19.771  0.00  0.00    +0.156 HD
BRANCH  10  25
ATOM      1  F   UNL     1      20.370   7.158  24.481  0.00  0.00    -0.205 F 
ATOM     25  C   UNL     1      19.328   6.352  21.090  0.00  0.00    +0.037 A 
ATOM     26  C   UNL     1      19.269   6.758  22.423  0.00  0.00    +0.061 A 
ATOM     27  C   UNL     1      20.545   5.956  20.535  0.00  0.00    +0.023 A 
ATOM     28  C   UNL     1      20.427   6.768  23.201  0.00  0.00    +0.125 A 
ATOM     29  C   UNL     1      21.703   5.967  21.313  0.00  0.00    +0.005 A 
ATOM     30  C   UNL     1      21.644   6.373  22.646  0.00  0.00    +0.038 A 
ENDBRANCH  10  25
ENDBRANCH  21   9
ENDBRANCH  14  21
TORSDOF 9
ENDMDL
MODEL 10
REMARK VINA RESULT:      -6.7      4.146      7.909
REMARK  Name = 40777899
REMARK  10 active torsions:
REMARK  status: ('A' for Active; 'I' for Inactive)
REMARK    1  A    between atoms: O_3  and  C_12
REMARK    2  A    between atoms: O_4  and  C_13
REMARK    3  A    between atoms: O_5  and  C_22
REMARK    4  A    between atoms: O_5  and  C_24
REMARK    5  A    between atoms: N_9  and  C_21
REMARK    6  A    between atoms: N_10  and  C_25
REMARK    7  A    between atoms: C_11  and  C_16
REMARK    8  A    between atoms: C_14  and  C_21
REMARK    9  A    between atoms: C_15  and  C_22
REMARK   10  A    between atoms: C_16  and  C_20
REMARK                            x       y       z     vdW  Elec       q    Type
REMARK                         _______ _______ _______ _____ _____    ______ ____
ROOT
ATOM      2  O   UNL     1      11.228   8.852  20.083  0.00  0.00    -0.366 OA
ATOM     11  C   UNL     1      11.834  10.145  20.263  0.00  0.00    +0.159 C 
ATOM     12  C   UNL     1      13.232  10.028  19.682  0.00  0.00    +0.175 C 
ATOM     13  C   UNL     1      12.998   9.094  18.513  0.00  0.00    +0.176 C 
ATOM     14  C   UNL     1      11.974   8.119  19.085  0.00  0.00    +0.167 C 
ENDROOT
BRANCH  12   3
ATOM      3  O   UNL     1      13.754  11.283  19.300  0.00  0.00    -0.387 OA
ATOM     31  H   UNL     1      14.402  11.125  18.592  0.00  0.00    +0.210 HD
ENDBRANCH  12   3
BRANCH  13   4
ATOM      4  O   UNL     1      12.386   9.797  17.433  0.00  0.00    -0.387 OA
ATOM     32  H   UNL     1      12.862  10.638  17.327  0.00  0.00    +0.210 HD
ENDBRANCH  13   4
BRANCH  11  16
ATOM     16  C   UNL     1      11.822  10.516  21.735  0.00  0.00    +0.130 C 
BRANCH  16  20
ATOM      6  O   UNL     1      11.578  12.736  20.913  0.00  0.00    -0.276 OA
ATOM      8  N   UNL     1      11.266  12.411  23.183  0.00  0.00    -0.296 N 
ATOM     15  C   UNL     1      11.072  13.821  23.528  0.00  0.00    +0.102 C 
ATOM     17  C   UNL     1      11.234  13.848  25.050  0.00  0.00    +0.026 C 
ATOM     18  C   UNL     1      11.220  11.564  24.371  0.00  0.00    +0.108 C 
ATOM     19  C   UNL     1      10.727  12.477  25.483  0.00  0.00    +0.021 C 
ATOM     20  C   UNL     1      11.548  11.990  21.893  0.00  0.00    +0.218 C 
BRANCH  15  22
ATOM     22  C   UNL     1       9.698  14.320  23.085  0.00  0.00    +0.181 C 
BRANCH  22   5
ATOM      5  O   UNL     1       9.876  15.478  22.290  0.00  0.00    -0.381 OA
ATOM     24  C   UNL     1       9.273  15.337  21.009  0.00  0.00    +0.194 C 
ENDBRANCH  22   5
ENDBRANCH  15  22
ENDBRANCH  16  20
ENDBRANCH  11  16
BRANCH  14  21
ATOM     21  C   UNL     1      12.612   6.918  19.768  0.00  0.00    +0.140 C 
BRANCH  21   9
ATOM      7  O   UNL     1      14.924   7.012  21.456  0.00  0.00    -0.253 OA
ATOM      9  N   UNL     1      13.977   6.755  19.362  0.00  0.00    -0.297 N 
ATOM     10  N   UNL     1      16.268   6.621  19.571  0.00  0.00    -0.269 N 
ATOM     23  C   UNL     1      15.062   6.815  20.251  0.00  0.00    +0.304 C 
ATOM     33  H   UNL     1      14.165   6.577  18.380  0.00  0.00    +0.150 HD
ATOM     34  H   UNL     1      16.207   6.469  18.568  0.00  0.00    +0.156 HD
BRANCH  10  25
ATOM      1  F   UNL     1      20.543   4.503  20.122  0.00  0.00    -0.205 F 
ATOM     25  C   UNL     1      17.576   6.609  20.110  0.00  0.00    +0.037 A 
ATOM     26  C   UNL     1      18.431   5.540  19.846  0.00  0.00    +0.061 A 
ATOM     27  C   UNL     1      18.011   7.670  20.906  0.00  0.00    +0.023 A 
ATOM     28  C   UNL     1      19.721   5.530  20.376  0.00  0.00    +0.125 A 
ATOM     29  C   UNL     1      19.302   7.659  21.436  0.00  0.00    +0.005 A 
ATOM     30  C   UNL     1      20.156   6.590  21.172  0.00  0.00    +0.038 A 
ENDBRANCH  10  25
ENDBRANCH  21   9
ENDBRANCH  14  21
TORSDOF 9
ENDMDL
