MODEL 1
REMARK VINA RESULT:      -6.3      0.000      0.000
REMARK  Name = 75536722
REMARK  8 active torsions:
REMARK  status: ('A' for Active; 'I' for Inactive)
REMARK    1  A    between atoms: O_2  and  C_12
REMARK    2  A    between atoms: N_4  and  C_7
REMARK    3  A    between atoms: N_4  and  C_8
REMARK    4  A    between atoms: N_5  and  C_15
REMARK    5  A    between atoms: N_6  and  C_17
REMARK    6  A    between atoms: C_13  and  C_15
REMARK    7  A    between atoms: C_17  and  C_18
REMARK    8  A    between atoms: C_17  and  C_19
REMARK                            x       y       z     vdW  Elec       q    Type
REMARK                         _______ _______ _______ _____ _____    ______ ____
ROOT
ATOM      1  O   UNL     1      13.131   9.225  19.378  0.00  0.00    -0.371 OA
ATOM      8  C   UNL     1      14.077   7.048  19.336  0.00  0.00    +0.111 C 
ATOM     12  C   UNL     1      12.709   6.980  19.989  0.00  0.00    +0.164 C 
ATOM     13  C   UNL     1      12.070   8.259  19.464  0.00  0.00    +0.165 C 
ATOM     14  C   UNL     1      14.388   8.531  19.442  0.00  0.00    +0.181 C 
ENDROOT
BRANCH  12   2
ATOM      2  O   UNL     1      11.977   5.831  19.608  0.00  0.00    -0.388 OA
ATOM     21  H   UNL     1      12.203   5.108  20.217  0.00  0.00    +0.210 HD
ENDBRANCH  12   2
BRANCH   8   4
ATOM      4  N   UNL     1      15.074   6.211  19.984  0.00  0.00    -0.306 NA
ATOM     20  H   UNL     1      14.991   5.266  19.607  0.00  0.00    +0.123 HD
BRANCH   4   7
ATOM      7  C   UNL     1      16.396   6.787  19.785  0.00  0.00    +0.054 C 
ATOM      9  C   UNL     1      17.285   5.772  19.034  0.00  0.00    +0.019 C 
ATOM     10  C   UNL     1      17.264   6.512  21.032  0.00  0.00    +0.019 C 
ATOM     11  C   UNL     1      18.394   6.122  20.053  0.00  0.00    +0.003 C 
ENDBRANCH   4   7
ENDBRANCH   8   4
BRANCH  13  15
ATOM     15  C   UNL     1      10.965   8.790  20.360  0.00  0.00    +0.140 C 
BRANCH  15   5
ATOM      3  O   UNL     1      11.155  11.420  21.533  0.00  0.00    -0.253 OA
ATOM      5  N   UNL     1      11.464   9.121  21.663  0.00  0.00    -0.297 N 
ATOM      6  N   UNL     1      12.049  10.463  23.448  0.00  0.00    -0.297 N 
ATOM     16  C   UNL     1      11.523  10.427  22.160  0.00  0.00    +0.300 C 
ATOM     22  H   UNL     1      11.805   8.367  22.252  0.00  0.00    +0.150 HD
ATOM     23  H   UNL     1      12.253   9.581  23.911  0.00  0.00    +0.150 HD
BRANCH   6  17
ATOM     17  C   UNL     1      12.219  11.689  24.191  0.00  0.00    +0.068 C 
ATOM     18  C   UNL     1      13.596  11.731  24.839  0.00  0.00    +0.027 C 
ATOM     19  C   UNL     1      11.116  11.841  25.231  0.00  0.00    +0.027 C 
ENDBRANCH   6  17
ENDBRANCH  15   5
ENDBRANCH  13  15
TORSDOF 6
ENDMDL
MODEL 2
REMARK VINA RESULT:      -5.8      1.459      6.594
REMARK  Name = 75536722
REMARK  8 active torsions:
REMARK  status: ('A' for Active; 'I' for Inactive)
REMARK    1  A    between atoms: O_2  and  C_12
REMARK    2  A    between atoms: N_4  and  C_7
REMARK    3  A    between atoms: N_4  and  C_8
REMARK    4  A    between atoms: N_5  and  C_15
REMARK    5  A    between atoms: N_6  and  C_17
REMARK    6  A    between atoms: C_13  and  C_15
REMARK    7  A    between atoms: C_17  and  C_18
REMARK    8  A    between atoms: C_17  and  C_19
REMARK                            x       y       z     vdW  Elec       q    Type
REMARK                         _______ _______ _______ _____ _____    ______ ____
ROOT
ATOM      1  O   UNL     1      10.612   7.414  20.955  0.00  0.00    -0.371 OA
ATOM      8  C   UNL     1      11.495   9.351  22.007  0.00  0.00    +0.111 C 
ATOM     12  C   UNL     1      12.548   8.766  21.084  0.00  0.00    +0.164 C 
ATOM     13  C   UNL     1      11.685   7.929  20.149  0.00  0.00    +0.165 C 
ATOM     14  C   UNL     1      10.554   8.170  22.177  0.00  0.00    +0.181 C 
ENDROOT
BRANCH  12   2
ATOM      2  O   UNL     1      13.273   9.759  20.383  0.00  0.00    -0.388 OA
ATOM     21  H   UNL     1      12.642  10.417  20.046  0.00  0.00    +0.210 HD
ENDBRANCH  12   2
BRANCH   8   4
ATOM      4  N   UNL     1      12.031   9.836  23.269  0.00  0.00    -0.306 NA
ATOM     20  H   UNL     1      12.934   9.388  23.425  0.00  0.00    +0.123 HD
BRANCH   4   7
ATOM      7  C   UNL     1      12.115  11.289  23.237  0.00  0.00    +0.054 C 
ATOM      9  C   UNL     1      11.217  11.875  24.348  0.00  0.00    +0.019 C 
ATOM     10  C   UNL     1      11.089  11.835  22.221  0.00  0.00    +0.019 C 
ATOM     11  C   UNL     1      10.721  12.889  23.291  0.00  0.00    +0.003 C 
ENDBRANCH   4   7
ENDBRANCH   8   4
BRANCH  13  15
ATOM     15  C   UNL     1      12.440   6.779  19.505  0.00  0.00    +0.140 C 
BRANCH  15   5
ATOM      3  O   UNL     1      15.066   7.324  18.441  0.00  0.00    -0.253 OA
ATOM      5  N   UNL     1      13.699   6.553  20.153  0.00  0.00    -0.297 N 
ATOM      6  N   UNL     1      15.992   6.529  20.413  0.00  0.00    -0.297 N 
ATOM     16  C   UNL     1      14.934   6.846  19.567  0.00  0.00    +0.300 C 
ATOM     22  H   UNL     1      13.693   6.146  21.084  0.00  0.00    +0.150 HD
ATOM     23  H   UNL     1      15.778   6.210  21.355  0.00  0.00    +0.150 HD
BRANCH   6  17
ATOM     17  C   UNL     1      17.374   6.733  20.050  0.00  0.00    +0.068 C 
ATOM     18  C   UNL     1      17.873   5.578  19.192  0.00  0.00    +0.027 C 
ATOM     19  C   UNL     1      18.234   6.908  21.295  0.00  0.00    +0.027 C 
ENDBRANCH   6  17
ENDBRANCH  15   5
ENDBRANCH  13  15
TORSDOF 6
ENDMDL
MODEL 3
REMARK VINA RESULT:      -5.7     26.776     29.057
REMARK  Name = 75536722
REMARK  8 active torsions:
REMARK  status: ('A' for Active; 'I' for Inactive)
REMARK    1  A    between atoms: O_2  and  C_12
REMARK    2  A    between atoms: N_4  and  C_7
REMARK    3  A    between atoms: N_4  and  C_8
REMARK    4  A    between atoms: N_5  and  C_15
REMARK    5  A    between atoms: N_6  and  C_17
REMARK    6  A    between atoms: C_13  and  C_15
REMARK    7  A    between atoms: C_17  and  C_18
REMARK    8  A    between atoms: C_17  and  C_19
REMARK                            x       y       z     vdW  Elec       q    Type
REMARK                         _______ _______ _______ _____ _____    ______ ____
ROOT
ATOM      1  O   UNL     1     -16.534   4.282  22.212  0.00  0.00    -0.371 OA
ATOM      8  C   UNL     1     -14.508   5.520  22.175  0.00  0.00    +0.111 C 
ATOM     12  C   UNL     1     -14.699   4.925  23.558  0.00  0.00    +0.164 C 
ATOM     13  C   UNL     1     -15.676   3.797  23.259  0.00  0.00    +0.165 C 
ATOM     14  C   UNL     1     -15.917   5.435  21.614  0.00  0.00    +0.181 C 
ENDROOT
BRANCH  12   2
ATOM      2  O   UNL     1     -13.492   4.442  24.117  0.00  0.00    -0.388 OA
ATOM     21  H   UNL     1     -12.763   5.005  23.804  0.00  0.00    +0.210 HD
ENDBRANCH  12   2
BRANCH   8   4
ATOM      4  N   UNL     1     -13.985   6.877  22.191  0.00  0.00    -0.306 NA
ATOM     20  H   UNL     1     -13.374   6.973  23.002  0.00  0.00    +0.123 HD
BRANCH   4   7
ATOM      7  C   UNL     1     -13.308   7.153  20.933  0.00  0.00    +0.054 C 
ATOM      9  C   UNL     1     -11.941   6.434  20.924  0.00  0.00    +0.019 C 
ATOM     10  C   UNL     1     -12.527   8.479  21.055  0.00  0.00    +0.019 C 
ATOM     11  C   UNL     1     -11.352   7.750  20.364  0.00  0.00    +0.003 C 
ENDBRANCH   4   7
ENDBRANCH   8   4
BRANCH  13  15
ATOM     15  C   UNL     1     -16.513   3.392  24.461  0.00  0.00    +0.140 C 
BRANCH  15   5
ATOM      3  O   UNL     1     -17.288   2.474  27.084  0.00  0.00    -0.253 OA
ATOM      5  N   UNL     1     -15.779   3.548  25.683  0.00  0.00    -0.297 N 
ATOM      6  N   UNL     1     -15.320   3.359  27.937  0.00  0.00    -0.297 N 
ATOM     16  C   UNL     1     -16.225   3.072  26.919  0.00  0.00    +0.300 C 
ATOM     22  H   UNL     1     -14.892   4.043  25.650  0.00  0.00    +0.150 HD
ATOM     23  H   UNL     1     -14.434   3.790  27.687  0.00  0.00    +0.150 HD
BRANCH   6  17
ATOM     17  C   UNL     1     -15.540   2.977  29.311  0.00  0.00    +0.068 C 
ATOM     18  C   UNL     1     -15.113   4.098  30.249  0.00  0.00    +0.027 C 
ATOM     19  C   UNL     1     -14.805   1.681  29.631  0.00  0.00    +0.027 C 
ENDBRANCH   6  17
ENDBRANCH  15   5
ENDBRANCH  13  15
TORSDOF 6
ENDMDL
MODEL 4
REMARK VINA RESULT:      -5.6      3.419      6.770
REMARK  Name = 75536722
REMARK  8 active torsions:
REMARK  status: ('A' for Active; 'I' for Inactive)
REMARK    1  A    between atoms: O_2  and  C_12
REMARK    2  A    between atoms: N_4  and  C_7
REMARK    3  A    between atoms: N_4  and  C_8
REMARK    4  A    between atoms: N_5  and  C_15
REMARK    5  A    between atoms: N_6  and  C_17
REMARK    6  A    between atoms: C_13  and  C_15
REMARK    7  A    between atoms: C_17  and  C_18
REMARK    8  A    between atoms: C_17  and  C_19
REMARK                            x       y       z     vdW  Elec       q    Type
REMARK                         _______ _______ _______ _____ _____    ______ ____
ROOT
ATOM      1  O   UNL     1      15.571   7.548  18.848  0.00  0.00    -0.371 OA
ATOM      8  C   UNL     1      13.720   7.362  20.323  0.00  0.00    +0.111 C 
ATOM     12  C   UNL     1      14.941   6.748  20.982  0.00  0.00    +0.164 C 
ATOM     13  C   UNL     1      16.063   7.407  20.191  0.00  0.00    +0.165 C 
ATOM     14  C   UNL     1      14.143   7.382  18.864  0.00  0.00    +0.181 C 
ENDROOT
BRANCH  12   2
ATOM      2  O   UNL     1      15.025   7.046  22.363  0.00  0.00    -0.388 OA
ATOM     21  H   UNL     1      14.208   6.740  22.791  0.00  0.00    +0.210 HD
ENDBRANCH  12   2
BRANCH   8   4
ATOM      4  N   UNL     1      12.495   6.610  20.548  0.00  0.00    -0.306 NA
ATOM     20  H   UNL     1      12.627   6.028  21.375  0.00  0.00    +0.123 HD
BRANCH   4   7
ATOM      7  C   UNL     1      11.374   7.531  20.673  0.00  0.00    +0.054 C 
ATOM      9  C   UNL     1      11.848   8.812  21.392  0.00  0.00    +0.019 C 
ATOM     10  C   UNL     1      10.580   7.194  21.953  0.00  0.00    +0.019 C 
ATOM     11  C   UNL     1      10.553   8.714  22.231  0.00  0.00    +0.003 C 
ENDBRANCH   4   7
ENDBRANCH   8   4
BRANCH  13  15
ATOM     15  C   UNL     1      17.348   6.598  20.184  0.00  0.00    +0.140 C 
BRANCH  15   5
ATOM      3  O   UNL     1      19.903   7.618  21.056  0.00  0.00    -0.253 OA
ATOM      5  N   UNL     1      17.913   6.505  21.499  0.00  0.00    -0.297 N 
ATOM      6  N   UNL     1      19.465   6.798  23.182  0.00  0.00    -0.297 N 
ATOM     16  C   UNL     1      19.163   7.028  21.842  0.00  0.00    +0.300 C 
ATOM     22  H   UNL     1      17.381   6.021  22.216  0.00  0.00    +0.150 HD
ATOM     23  H   UNL     1      18.755   6.368  23.769  0.00  0.00    +0.150 HD
BRANCH   6  17
ATOM     17  C   UNL     1      20.697   7.236  23.793  0.00  0.00    +0.068 C 
ATOM     18  C   UNL     1      21.769   6.163  23.654  0.00  0.00    +0.027 C 
ATOM     19  C   UNL     1      20.469   7.602  25.254  0.00  0.00    +0.027 C 
ENDBRANCH   6  17
ENDBRANCH  15   5
ENDBRANCH  13  15
TORSDOF 6
ENDMDL
MODEL 5
REMARK VINA RESULT:      -5.5     15.089     17.729
REMARK  Name = 75536722
REMARK  8 active torsions:
REMARK  status: ('A' for Active; 'I' for Inactive)
REMARK    1  A    between atoms: O_2  and  C_12
REMARK    2  A    between atoms: N_4  and  C_7
REMARK    3  A    between atoms: N_4  and  C_8
REMARK    4  A    between atoms: N_5  and  C_15
REMARK    5  A    between atoms: N_6  and  C_17
REMARK    6  A    between atoms: C_13  and  C_15
REMARK    7  A    between atoms: C_17  and  C_18
REMARK    8  A    between atoms: C_17  and  C_19
REMARK                            x       y       z     vdW  Elec       q    Type
REMARK                         _______ _______ _______ _____ _____    ______ ____
ROOT
ATOM      1  O   UNL     1      11.371   8.334   4.668  0.00  0.00    -0.371 OA
ATOM      8  C   UNL     1      11.032   6.571   6.222  0.00  0.00    +0.111 C 
ATOM     12  C   UNL     1      12.497   6.611   5.831  0.00  0.00    +0.164 C 
ATOM     13  C   UNL     1      12.622   8.036   5.308  0.00  0.00    +0.165 C 
ATOM     14  C   UNL     1      10.397   7.365   5.092  0.00  0.00    +0.181 C 
ENDROOT
BRANCH  12   2
ATOM      2  O   UNL     1      13.362   6.374   6.926  0.00  0.00    -0.388 OA
ATOM     21  H   UNL     1      14.239   6.142   6.578  0.00  0.00    +0.210 HD
ENDBRANCH  12   2
BRANCH   8   4
ATOM      4  N   UNL     1      10.496   5.224   6.339  0.00  0.00    -0.306 NA
ATOM     20  H   UNL     1      11.270   4.590   6.539  0.00  0.00    +0.123 HD
BRANCH   4   7
ATOM      7  C   UNL     1       9.462   5.199   7.364  0.00  0.00    +0.054 C 
ATOM      9  C   UNL     1       9.855   6.162   8.505  0.00  0.00    +0.019 C 
ATOM     10  C   UNL     1       9.745   4.040   8.343  0.00  0.00    +0.019 C 
ATOM     11  C   UNL     1       9.430   5.039   9.480  0.00  0.00    +0.003 C 
ENDBRANCH   4   7
ENDBRANCH   8   4
BRANCH  13  15
ATOM     15  C   UNL     1      13.760   8.215   4.318  0.00  0.00    +0.140 C 
BRANCH  15   5
ATOM      3  O   UNL     1      13.078   6.963   1.809  0.00  0.00    -0.253 OA
ATOM      5  N   UNL     1      14.227   6.951   3.827  0.00  0.00    -0.297 N 
ATOM      6  N   UNL     1      14.448   5.177   2.368  0.00  0.00    -0.297 N 
ATOM     16  C   UNL     1      13.848   6.412   2.594  0.00  0.00    +0.300 C 
ATOM     22  H   UNL     1      14.859   6.412   4.413  0.00  0.00    +0.150 HD
ATOM     23  H   UNL     1      15.129   4.840   3.043  0.00  0.00    +0.150 HD
BRANCH   6  17
ATOM     17  C   UNL     1      14.224   4.405   1.168  0.00  0.00    +0.068 C 
ATOM     18  C   UNL     1      13.269   3.253   1.449  0.00  0.00    +0.027 C 
ATOM     19  C   UNL     1      15.545   3.902   0.601  0.00  0.00    +0.027 C 
ENDBRANCH   6  17
ENDBRANCH  15   5
ENDBRANCH  13  15
TORSDOF 6
ENDMDL
MODEL 6
REMARK VINA RESULT:      -5.5     29.819     31.797
REMARK  Name = 75536722
REMARK  8 active torsions:
REMARK  status: ('A' for Active; 'I' for Inactive)
REMARK    1  A    between atoms: O_2  and  C_12
REMARK    2  A    between atoms: N_4  and  C_7
REMARK    3  A    between atoms: N_4  and  C_8
REMARK    4  A    between atoms: N_5  and  C_15
REMARK    5  A    between atoms: N_6  and  C_17
REMARK    6  A    between atoms: C_13  and  C_15
REMARK    7  A    between atoms: C_17  and  C_18
REMARK    8  A    between atoms: C_17  and  C_19
REMARK                            x       y       z     vdW  Elec       q    Type
REMARK                         _______ _______ _______ _____ _____    ______ ____
ROOT
ATOM      1  O   UNL     1     -13.158   3.881  31.982  0.00  0.00    -0.371 OA
ATOM      8  C   UNL     1     -14.537   3.870  33.914  0.00  0.00    +0.111 C 
ATOM     12  C   UNL     1     -14.767   2.588  33.136  0.00  0.00    +0.164 C 
ATOM     13  C   UNL     1     -13.495   2.521  32.302  0.00  0.00    +0.165 C 
ATOM     14  C   UNL     1     -13.893   4.752  32.858  0.00  0.00    +0.181 C 
ENDROOT
BRANCH  12   2
ATOM      2  O   UNL     1     -14.907   1.457  33.975  0.00  0.00    -0.388 OA
ATOM     21  H   UNL     1     -15.497   0.822  33.535  0.00  0.00    +0.210 HD
ENDBRANCH  12   2
BRANCH   8   4
ATOM      4  N   UNL     1     -15.755   4.443  34.465  0.00  0.00    -0.306 NA
ATOM     20  H   UNL     1     -15.492   5.168  35.133  0.00  0.00    +0.123 HD
BRANCH   4   7
ATOM      7  C   UNL     1     -16.591   4.944  33.383  0.00  0.00    +0.054 C 
ATOM      9  C   UNL     1     -17.059   6.375  33.724  0.00  0.00    +0.019 C 
ATOM     10  C   UNL     1     -18.049   4.491  33.615  0.00  0.00    +0.019 C 
ATOM     11  C   UNL     1     -18.463   5.935  33.249  0.00  0.00    +0.003 C 
ENDBRANCH   4   7
ENDBRANCH   8   4
BRANCH  13  15
ATOM     15  C   UNL     1     -13.658   1.718  31.022  0.00  0.00    +0.140 C 
BRANCH  15   5
ATOM      3  O   UNL     1     -16.060   1.590  29.429  0.00  0.00    -0.253 OA
ATOM      5  N   UNL     1     -14.009   2.563  29.918  0.00  0.00    -0.297 N 
ATOM      6  N   UNL     1     -15.284   3.382  28.178  0.00  0.00    -0.297 N 
ATOM     16  C   UNL     1     -15.198   2.436  29.195  0.00  0.00    +0.300 C 
ATOM     22  H   UNL     1     -13.351   3.285  29.639  0.00  0.00    +0.150 HD
ATOM     23  H   UNL     1     -14.555   4.088  28.112  0.00  0.00    +0.150 HD
BRANCH   6  17
ATOM     17  C   UNL     1     -16.413   3.469  27.281  0.00  0.00    +0.068 C 
ATOM     18  C   UNL     1     -15.968   3.236  25.844  0.00  0.00    +0.027 C 
ATOM     19  C   UNL     1     -17.113   4.813  27.432  0.00  0.00    +0.027 C 
ENDBRANCH   6  17
ENDBRANCH  15   5
ENDBRANCH  13  15
TORSDOF 6
ENDMDL
MODEL 7
REMARK VINA RESULT:      -5.4     26.067     28.616
REMARK  Name = 75536722
REMARK  8 active torsions:
REMARK  status: ('A' for Active; 'I' for Inactive)
REMARK    1  A    between atoms: O_2  and  C_12
REMARK    2  A    between atoms: N_4  and  C_7
REMARK    3  A    between atoms: N_4  and  C_8
REMARK    4  A    between atoms: N_5  and  C_15
REMARK    5  A    between atoms: N_6  and  C_17
REMARK    6  A    between atoms: C_13  and  C_15
REMARK    7  A    between atoms: C_17  and  C_18
REMARK    8  A    between atoms: C_17  and  C_19
REMARK                            x       y       z     vdW  Elec       q    Type
REMARK                         _______ _______ _______ _____ _____    ______ ____
ROOT
ATOM      1  O   UNL     1      -8.664 -10.967  18.790  0.00  0.00    -0.371 OA
ATOM      8  C   UNL     1      -9.292  -9.121  17.435  0.00  0.00    +0.111 C 
ATOM     12  C   UNL     1      -7.782  -9.267  17.404  0.00  0.00    +0.164 C 
ATOM     13  C   UNL     1      -7.619 -10.718  17.836  0.00  0.00    +0.165 C 
ATOM     14  C   UNL     1      -9.646  -9.923  18.676  0.00  0.00    +0.181 C 
ENDROOT
BRANCH  12   2
ATOM      2  O   UNL     1      -7.237  -9.035  16.118  0.00  0.00    -0.388 OA
ATOM     21  H   UNL     1      -6.625  -9.762  15.911  0.00  0.00    +0.210 HD
ENDBRANCH  12   2
BRANCH   8   4
ATOM      4  N   UNL     1      -9.743  -7.740  17.505  0.00  0.00    -0.306 NA
ATOM     20  H   UNL     1      -8.997  -7.143  17.147  0.00  0.00    +0.123 HD
BRANCH   4   7
ATOM      7  C   UNL     1     -10.989  -7.597  16.765  0.00  0.00    +0.054 C 
ATOM      9  C   UNL     1     -10.715  -7.822  15.262  0.00  0.00    +0.019 C 
ATOM     10  C   UNL     1     -11.211  -6.107  16.426  0.00  0.00    +0.019 C 
ATOM     11  C   UNL     1     -11.597  -6.578  15.005  0.00  0.00    +0.003 C 
ENDBRANCH   4   7
ENDBRANCH   8   4
BRANCH  13  15
ATOM     15  C   UNL     1      -6.268 -11.008  18.467  0.00  0.00    +0.140 C 
BRANCH  15   5
ATOM      3  O   UNL     1      -4.391 -12.352  16.736  0.00  0.00    -0.253 OA
ATOM      5  N   UNL     1      -5.203 -10.410  17.717  0.00  0.00    -0.297 N 
ATOM      6  N   UNL     1      -3.393 -10.307  16.288  0.00  0.00    -0.297 N 
ATOM     16  C   UNL     1      -4.332 -11.134  16.897  0.00  0.00    +0.300 C 
ATOM     22  H   UNL     1      -5.065  -9.406  17.796  0.00  0.00    +0.150 HD
ATOM     23  H   UNL     1      -3.474  -9.302  16.424  0.00  0.00    +0.150 HD
BRANCH   6  17
ATOM     17  C   UNL     1      -2.377 -10.803  15.390  0.00  0.00    +0.068 C 
ATOM     18  C   UNL     1      -1.042 -10.128  15.675  0.00  0.00    +0.027 C 
ATOM     19  C   UNL     1      -2.799 -10.602  13.941  0.00  0.00    +0.027 C 
ENDBRANCH   6  17
ENDBRANCH  15   5
ENDBRANCH  13  15
TORSDOF 6
ENDMDL
MODEL 8
REMARK VINA RESULT:      -5.3      2.804      5.542
REMARK  Name = 75536722
REMARK  8 active torsions:
REMARK  status: ('A' for Active; 'I' for Inactive)
REMARK    1  A    between atoms: O_2  and  C_12
REMARK    2  A    between atoms: N_4  and  C_7
REMARK    3  A    between atoms: N_4  and  C_8
REMARK    4  A    between atoms: N_5  and  C_15
REMARK    5  A    between atoms: N_6  and  C_17
REMARK    6  A    between atoms: C_13  and  C_15
REMARK    7  A    between atoms: C_17  and  C_18
REMARK    8  A    between atoms: C_17  and  C_19
REMARK                            x       y       z     vdW  Elec       q    Type
REMARK                         _______ _______ _______ _____ _____    ______ ____
ROOT
ATOM      1  O   UNL     1      13.637   6.937  20.459  0.00  0.00    -0.371 OA
ATOM      8  C   UNL     1      12.040   7.954  21.891  0.00  0.00    +0.111 C 
ATOM     12  C   UNL     1      11.618   8.167  20.449  0.00  0.00    +0.164 C 
ATOM     13  C   UNL     1      12.393   7.058  19.751  0.00  0.00    +0.165 C 
ATOM     14  C   UNL     1      13.509   7.604  21.726  0.00  0.00    +0.181 C 
ENDROOT
BRANCH  12   2
ATOM      2  O   UNL     1      10.222   8.033  20.262  0.00  0.00    -0.388 OA
ATOM     21  H   UNL     1      10.029   8.133  19.315  0.00  0.00    +0.210 HD
ENDBRANCH  12   2
BRANCH   8   4
ATOM      4  N   UNL     1      11.826   9.117  22.739  0.00  0.00    -0.306 NA
ATOM     20  H   UNL     1      12.277   8.943  23.637  0.00  0.00    +0.123 HD
BRANCH   4   7
ATOM      7  C   UNL     1      12.331  10.307  22.070  0.00  0.00    +0.054 C 
ATOM      9  C   UNL     1      13.160  11.139  23.072  0.00  0.00    +0.019 C 
ATOM     10  C   UNL     1      11.265  11.421  22.140  0.00  0.00    +0.019 C 
ATOM     11  C   UNL     1      12.417  12.379  22.523  0.00  0.00    +0.003 C 
ENDBRANCH   4   7
ENDBRANCH   8   4
BRANCH  13  15
ATOM     15  C   UNL     1      12.663   7.345  18.284  0.00  0.00    +0.140 C 
BRANCH  15   5
ATOM      3  O   UNL     1      14.727   9.356  18.443  0.00  0.00    -0.253 OA
ATOM      5  N   UNL     1      12.532   8.744  17.995  0.00  0.00    -0.297 N 
ATOM      6  N   UNL     1      13.183  10.945  17.757  0.00  0.00    -0.297 N 
ATOM     16  C   UNL     1      13.586   9.657  18.096  0.00  0.00    +0.300 C 
ATOM     22  H   UNL     1      11.620   9.092  17.713  0.00  0.00    +0.150 HD
ATOM     23  H   UNL     1      12.238  11.080  17.410  0.00  0.00    +0.150 HD
BRANCH   6  17
ATOM     17  C   UNL     1      14.079  12.077  17.779  0.00  0.00    +0.068 C 
ATOM     18  C   UNL     1      13.513  13.186  18.655  0.00  0.00    +0.027 C 
ATOM     19  C   UNL     1      14.347  12.574  16.364  0.00  0.00    +0.027 C 
ENDBRANCH   6  17
ENDBRANCH  15   5
ENDBRANCH  13  15
TORSDOF 6
ENDMDL
MODEL 9
REMARK VINA RESULT:      -5.3     25.896     28.226
REMARK  Name = 75536722
REMARK  8 active torsions:
REMARK  status: ('A' for Active; 'I' for Inactive)
REMARK    1  A    between atoms: O_2  and  C_12
REMARK    2  A    between atoms: N_4  and  C_7
REMARK    3  A    between atoms: N_4  and  C_8
REMARK    4  A    between atoms: N_5  and  C_15
REMARK    5  A    between atoms: N_6  and  C_17
REMARK    6  A    between atoms: C_13  and  C_15
REMARK    7  A    between atoms: C_17  and  C_18
REMARK    8  A    between atoms: C_17  and  C_19
REMARK                            x       y       z     vdW  Elec       q    Type
REMARK                         _______ _______ _______ _____ _____    ______ ____
ROOT
ATOM      1  O   UNL     1      -5.304 -11.723  18.161  0.00  0.00    -0.371 OA
ATOM      8  C   UNL     1      -7.182 -10.407  17.547  0.00  0.00    +0.111 C 
ATOM     12  C   UNL     1      -5.966  -9.923  16.778  0.00  0.00    +0.164 C 
ATOM     13  C   UNL     1      -5.058 -11.142  16.870  0.00  0.00    +0.165 C 
ATOM     14  C   UNL     1      -6.532 -11.185  18.678  0.00  0.00    +0.181 C 
ENDROOT
BRANCH  12   2
ATOM      2  O   UNL     1      -6.265  -9.588  15.436  0.00  0.00    -0.388 OA
ATOM     21  H   UNL     1      -7.137  -9.160  15.415  0.00  0.00    +0.210 HD
ENDBRANCH  12   2
BRANCH   8   4
ATOM      4  N   UNL     1      -8.040  -9.331  18.017  0.00  0.00    -0.306 NA
ATOM     20  H   UNL     1      -7.519  -8.456  17.954  0.00  0.00    +0.123 HD
BRANCH   4   7
ATOM      7  C   UNL     1      -9.272  -9.315  17.241  0.00  0.00    +0.054 C 
ATOM      9  C   UNL     1      -9.673  -7.852  16.954  0.00  0.00    +0.019 C 
ATOM     10  C   UNL     1     -10.479  -9.381  18.201  0.00  0.00    +0.019 C 
ATOM     11  C   UNL     1     -11.112  -8.263  17.341  0.00  0.00    +0.003 C 
ENDBRANCH   4   7
ENDBRANCH   8   4
BRANCH  13  15
ATOM     15  C   UNL     1      -3.584 -10.804  16.732  0.00  0.00    +0.140 C 
BRANCH  15   5
ATOM      3  O   UNL     1      -2.332 -12.138  14.501  0.00  0.00    -0.253 OA
ATOM      5  N   UNL     1      -3.295 -10.246  15.443  0.00  0.00    -0.297 N 
ATOM      6  N   UNL     1      -2.521 -10.182  13.269  0.00  0.00    -0.297 N 
ATOM     16  C   UNL     1      -2.683 -10.963  14.410  0.00  0.00    +0.300 C 
ATOM     22  H   UNL     1      -3.536  -9.274  15.276  0.00  0.00    +0.150 HD
ATOM     23  H   UNL     1      -2.914  -9.244  13.267  0.00  0.00    +0.150 HD
BRANCH   6  17
ATOM     17  C   UNL     1      -1.916 -10.681  12.057  0.00  0.00    +0.068 C 
ATOM     18  C   UNL     1      -1.224  -9.551  11.306  0.00  0.00    +0.027 C 
ATOM     19  C   UNL     1      -2.956 -11.369  11.184  0.00  0.00    +0.027 C 
ENDBRANCH   6  17
ENDBRANCH  15   5
ENDBRANCH  13  15
TORSDOF 6
ENDMDL
MODEL 10
REMARK VINA RESULT:      -5.2     15.231     17.991
REMARK  Name = 75536722
REMARK  8 active torsions:
REMARK  status: ('A' for Active; 'I' for Inactive)
REMARK    1  A    between atoms: O_2  and  C_12
REMARK    2  A    between atoms: N_4  and  C_7
REMARK    3  A    between atoms: N_4  and  C_8
REMARK    4  A    between atoms: N_5  and  C_15
REMARK    5  A    between atoms: N_6  and  C_17
REMARK    6  A    between atoms: C_13  and  C_15
REMARK    7  A    between atoms: C_17  and  C_18
REMARK    8  A    between atoms: C_17  and  C_19
REMARK                            x       y       z     vdW  Elec       q    Type
REMARK                         _______ _______ _______ _____ _____    ______ ____
ROOT
ATOM      1  O   UNL     1      13.353   8.950   5.197  0.00  0.00    -0.371 OA
ATOM      8  C   UNL     1      12.233   7.399   6.604  0.00  0.00    +0.111 C 
ATOM     12  C   UNL     1      13.594   6.839   6.236  0.00  0.00    +0.164 C 
ATOM     13  C   UNL     1      14.332   8.108   5.828  0.00  0.00    +0.165 C 
ATOM     14  C   UNL     1      12.044   8.459   5.532  0.00  0.00    +0.181 C 
ENDROOT
BRANCH  12   2
ATOM      2  O   UNL     1      14.229   6.187   7.319  0.00  0.00    -0.388 OA
ATOM     21  H   UNL     1      15.163   6.048   7.088  0.00  0.00    +0.210 HD
ENDBRANCH  12   2
BRANCH   8   4
ATOM      4  N   UNL     1      11.175   6.402   6.609  0.00  0.00    -0.306 NA
ATOM     20  H   UNL     1      10.891   6.243   7.576  0.00  0.00    +0.123 HD
BRANCH   4   7
ATOM      7  C   UNL     1      10.078   6.852   5.763  0.00  0.00    +0.054 C 
ATOM      9  C   UNL     1       8.795   6.969   6.613  0.00  0.00    +0.019 C 
ATOM     10  C   UNL     1       9.427   5.629   5.082  0.00  0.00    +0.019 C 
ATOM     11  C   UNL     1       8.064   6.260   5.451  0.00  0.00    +0.003 C 
ENDBRANCH   4   7
ENDBRANCH   8   4
BRANCH  13  15
ATOM     15  C   UNL     1      15.482   7.851   4.869  0.00  0.00    +0.140 C 
BRANCH  15   5
ATOM      3  O   UNL     1      14.558   7.301   2.191  0.00  0.00    -0.253 OA
ATOM      5  N   UNL     1      15.362   6.567   4.242  0.00  0.00    -0.297 N 
ATOM      6  N   UNL     1      14.887   5.038   2.580  0.00  0.00    -0.297 N 
ATOM     16  C   UNL     1      14.904   6.384   2.935  0.00  0.00    +0.300 C 
ATOM     22  H   UNL     1      15.612   5.744   4.784  0.00  0.00    +0.150 HD
ATOM     23  H   UNL     1      15.265   4.361   3.238  0.00  0.00    +0.150 HD
BRANCH   6  17
ATOM     17  C   UNL     1      14.456   4.575   1.282  0.00  0.00    +0.068 C 
ATOM     18  C   UNL     1      13.511   3.390   1.429  0.00  0.00    +0.027 C 
ATOM     19  C   UNL     1      15.657   4.219   0.415  0.00  0.00    +0.027 C 
ENDBRANCH   6  17
ENDBRANCH  15   5
ENDBRANCH  13  15
TORSDOF 6
ENDMDL
