MODEL 1
REMARK VINA RESULT:      -6.3      0.000      0.000
REMARK  Name = 45784034
REMARK  15 active torsions:
REMARK  status: ('A' for Active; 'I' for Inactive)
REMARK    1  A    between atoms: O_2  and  C_25
REMARK    2  A    between atoms: O_2  and  C_29
REMARK    3  A    between atoms: N_3  and  C_12
REMARK    4  A    between atoms: N_4  and  C_24
REMARK    5  A    between atoms: C_7  and  C_11
REMARK    6  A    between atoms: C_8  and  C_12
REMARK    7  A    between atoms: C_10  and  C_15
REMARK    8  A    between atoms: C_11  and  C_18
REMARK    9  A    between atoms: C_11  and  C_19
REMARK   10  A    between atoms: C_14  and  C_22
REMARK   11  A    between atoms: C_15  and  C_23
REMARK   12  A    between atoms: C_24  and  C_25
REMARK   13  A    between atoms: C_26  and  C_27
REMARK   14  A    between atoms: C_27  and  C_28
REMARK   15  A    between atoms: C_28  and  C_30
REMARK                            x       y       z     vdW  Elec       q    Type
REMARK                         _______ _______ _______ _____ _____    ______ ____
ROOT
ATOM      7  C   UNL     1      13.835   9.359  18.255  0.00  0.00    +0.000 C 
ATOM      8  C   UNL     1      12.724   9.920  19.173  0.00  0.00    +0.029 C 
ATOM      9  C   UNL     1      14.762   8.423  19.042  0.00  0.00    +0.012 C 
ATOM     10  C   UNL     1      14.018   7.252  19.719  0.00  0.00    +0.024 C 
ATOM     13  C   UNL     1      12.121   8.863  20.063  0.00  0.00    -0.023 C 
ATOM     14  C   UNL     1      12.677   7.662  20.310  0.00  0.00    -0.073 C 
ATOM     22  C   UNL     1      11.947   6.648  21.147  0.00  0.00    +0.039 C 
ENDROOT
BRANCH   7  11
ATOM     11  C   UNL     1      13.243   8.652  17.027  0.00  0.00    -0.013 C 
ATOM     18  C   UNL     1      12.040   9.425  16.497  0.00  0.00    +0.007 C 
ATOM     19  C   UNL     1      14.304   8.490  15.943  0.00  0.00    +0.007 C 
ENDBRANCH   7  11
BRANCH   8  12
ATOM     12  C   UNL     1      13.235  11.076  20.038  0.00  0.00    +0.092 C 
BRANCH  12   3
ATOM      3  N   UNL     1      12.398  11.243  21.224  0.00  0.00    -0.299 NA
ATOM      4  N   UNL     1      11.616  12.601  23.653  0.00  0.00    -0.298 NA
ATOM     16  C   UNL     1      13.202  11.139  22.448  0.00  0.00    +0.100 C 
ATOM     17  C   UNL     1      11.687  12.526  21.185  0.00  0.00    +0.100 C 
ATOM     20  C   UNL     1      12.326  11.317  23.693  0.00  0.00    +0.100 C 
ATOM     21  C   UNL     1      10.811  12.704  22.430  0.00  0.00    +0.100 C 
BRANCH   4  24
ATOM     24  C   UNL     1      10.780  12.769  24.841  0.00  0.00    +0.112 C 
BRANCH  24  25
ATOM     25  C   UNL     1      10.548  14.243  25.130  0.00  0.00    +0.174 C 
BRANCH  25   2
ATOM      2  O   UNL     1      10.936  14.511  26.472  0.00  0.00    -0.382 OA
ATOM     29  C   UNL     1      12.346  14.641  26.592  0.00  0.00    +0.194 C 
ENDBRANCH  25   2
ENDBRANCH  24  25
ENDBRANCH   4  24
ENDBRANCH  12   3
ENDBRANCH   8  12
BRANCH  10  15
ATOM     15  C   UNL     1      14.952   6.608  20.750  0.00  0.00    +0.105 C 
BRANCH  15  23
ATOM      1  O   UNL     1      17.386   6.493  20.890  0.00  0.00    -0.425 OA
ATOM      5  N   UNL     1      16.541   5.715  18.971  0.00  0.00    -0.112 NA
ATOM      6  N   UNL     1      17.917   5.590  18.914  0.00  0.00    -0.112 NA
ATOM     23  C   UNL     1      16.276   6.246  20.141  0.00  0.00    +0.218 A 
ATOM     26  C   UNL     1      18.367   6.057  20.055  0.00  0.00    +0.217 A 
BRANCH  26  27
ATOM     27  C   UNL     1      19.748   6.165  20.541  0.00  0.00    +0.097 C 
BRANCH  27  28
ATOM     28  C   UNL     1      20.538   4.844  20.422  0.00  0.00    +0.006 C 
ATOM     30  C   UNL     1      21.536   4.651  21.552  0.00  0.00    +0.004 C 
ENDBRANCH  27  28
ENDBRANCH  26  27
ENDBRANCH  15  23
ENDBRANCH  10  15
TORSDOF 10
ENDMDL
MODEL 2
REMARK VINA RESULT:      -6.0     26.492     29.070
REMARK  Name = 45784034
REMARK  15 active torsions:
REMARK  status: ('A' for Active; 'I' for Inactive)
REMARK    1  A    between atoms: O_2  and  C_25
REMARK    2  A    between atoms: O_2  and  C_29
REMARK    3  A    between atoms: N_3  and  C_12
REMARK    4  A    between atoms: N_4  and  C_24
REMARK    5  A    between atoms: C_7  and  C_11
REMARK    6  A    between atoms: C_8  and  C_12
REMARK    7  A    between atoms: C_10  and  C_15
REMARK    8  A    between atoms: C_11  and  C_18
REMARK    9  A    between atoms: C_11  and  C_19
REMARK   10  A    between atoms: C_14  and  C_22
REMARK   11  A    between atoms: C_15  and  C_23
REMARK   12  A    between atoms: C_24  and  C_25
REMARK   13  A    between atoms: C_26  and  C_27
REMARK   14  A    between atoms: C_27  and  C_28
REMARK   15  A    between atoms: C_28  and  C_30
REMARK                            x       y       z     vdW  Elec       q    Type
REMARK                         _______ _______ _______ _____ _____    ______ ____
ROOT
ATOM      7  C   UNL     1      -4.985 -12.485  15.592  0.00  0.00    +0.000 C 
ATOM      8  C   UNL     1      -4.943 -10.955  15.814  0.00  0.00    +0.029 C 
ATOM      9  C   UNL     1      -3.945 -12.905  14.544  0.00  0.00    +0.012 C 
ATOM     10  C   UNL     1      -2.506 -12.480  14.906  0.00  0.00    +0.024 C 
ATOM     13  C   UNL     1      -3.536 -10.424  15.918  0.00  0.00    -0.023 C 
ATOM     14  C   UNL     1      -2.435 -11.094  15.529  0.00  0.00    -0.073 C 
ATOM     22  C   UNL     1      -1.070 -10.504  15.757  0.00  0.00    +0.039 C 
ENDROOT
BRANCH   7  11
ATOM     11  C   UNL     1      -4.786 -13.248  16.909  0.00  0.00    -0.013 C 
ATOM     18  C   UNL     1      -5.707 -12.691  17.990  0.00  0.00    +0.007 C 
ATOM     19  C   UNL     1      -5.033 -14.739  16.703  0.00  0.00    +0.007 C 
ENDBRANCH   7  11
BRANCH   8  12
ATOM     12  C   UNL     1      -5.686 -10.202  14.706  0.00  0.00    +0.092 C 
BRANCH  12   3
ATOM      3  N   UNL     1      -6.946  -9.655  15.208  0.00  0.00    -0.299 NA
ATOM      4  N   UNL     1      -9.372  -9.797  16.773  0.00  0.00    -0.298 NA
ATOM     16  C   UNL     1      -8.080 -10.483  14.781  0.00  0.00    +0.100 C 
ATOM     17  C   UNL     1      -6.918  -9.538  16.671  0.00  0.00    +0.100 C 
ATOM     20  C   UNL     1      -9.401  -9.914  15.309  0.00  0.00    +0.100 C 
ATOM     21  C   UNL     1      -8.239  -8.968  17.199  0.00  0.00    +0.100 C 
BRANCH   4  24
ATOM     24  C   UNL     1     -10.632  -9.253  17.275  0.00  0.00    +0.112 C 
BRANCH  24  25
ATOM     25  C   UNL     1     -11.402  -8.564  16.160  0.00  0.00    +0.174 C 
BRANCH  25   2
ATOM      2  O   UNL     1     -11.594  -7.200  16.513  0.00  0.00    -0.382 OA
ATOM     29  C   UNL     1     -10.716  -6.346  15.792  0.00  0.00    +0.194 C 
ENDBRANCH  25   2
ENDBRANCH  24  25
ENDBRANCH   4  24
ENDBRANCH  12   3
ENDBRANCH   8  12
BRANCH  10  15
ATOM     15  C   UNL     1      -1.626 -12.618  13.657  0.00  0.00    +0.105 C 
BRANCH  15  23
ATOM      1  O   UNL     1      -2.102 -10.736  12.178  0.00  0.00    -0.425 OA
ATOM      5  N   UNL     1      -3.084 -12.652  11.568  0.00  0.00    -0.112 NA
ATOM      6  N   UNL     1      -3.437 -11.680  10.650  0.00  0.00    -0.112 NA
ATOM     23  C   UNL     1      -2.306 -12.057  12.442  0.00  0.00    +0.218 A 
ATOM     26  C   UNL     1      -2.841 -10.579  11.046  0.00  0.00    +0.217 A 
BRANCH  26  27
ATOM     27  C   UNL     1      -2.860  -9.239  10.448  0.00  0.00    +0.097 C 
BRANCH  27  28
ATOM     28  C   UNL     1      -3.983  -9.058   9.403  0.00  0.00    +0.006 C 
ATOM     30  C   UNL     1      -5.194  -8.329   9.963  0.00  0.00    +0.004 C 
ENDBRANCH  27  28
ENDBRANCH  26  27
ENDBRANCH  15  23
ENDBRANCH  10  15
TORSDOF 10
ENDMDL
MODEL 3
REMARK VINA RESULT:      -5.9     25.284     28.505
REMARK  Name = 45784034
REMARK  15 active torsions:
REMARK  status: ('A' for Active; 'I' for Inactive)
REMARK    1  A    between atoms: O_2  and  C_25
REMARK    2  A    between atoms: O_2  and  C_29
REMARK    3  A    between atoms: N_3  and  C_12
REMARK    4  A    between atoms: N_4  and  C_24
REMARK    5  A    between atoms: C_7  and  C_11
REMARK    6  A    between atoms: C_8  and  C_12
REMARK    7  A    between atoms: C_10  and  C_15
REMARK    8  A    between atoms: C_11  and  C_18
REMARK    9  A    between atoms: C_11  and  C_19
REMARK   10  A    between atoms: C_14  and  C_22
REMARK   11  A    between atoms: C_15  and  C_23
REMARK   12  A    between atoms: C_24  and  C_25
REMARK   13  A    between atoms: C_26  and  C_27
REMARK   14  A    between atoms: C_27  and  C_28
REMARK   15  A    between atoms: C_28  and  C_30
REMARK                            x       y       z     vdW  Elec       q    Type
REMARK                         _______ _______ _______ _____ _____    ______ ____
ROOT
ATOM      7  C   UNL     1     -12.294  10.143  18.337  0.00  0.00    +0.000 C 
ATOM      8  C   UNL     1     -12.666   8.741  17.802  0.00  0.00    +0.029 C 
ATOM      9  C   UNL     1     -12.886  10.361  19.736  0.00  0.00    +0.012 C 
ATOM     10  C   UNL     1     -12.448   9.291  20.758  0.00  0.00    +0.024 C 
ATOM     13  C   UNL     1     -12.508   7.663  18.846  0.00  0.00    -0.023 C 
ATOM     14  C   UNL     1     -12.397   7.889  20.168  0.00  0.00    -0.073 C 
ATOM     22  C   UNL     1     -12.156   6.745  21.114  0.00  0.00    +0.039 C 
ENDROOT
BRANCH   7  11
ATOM     11  C   UNL     1     -10.774  10.357  18.337  0.00  0.00    -0.013 C 
ATOM     18  C   UNL     1     -10.115   9.490  17.269  0.00  0.00    +0.007 C 
ATOM     19  C   UNL     1     -10.444  11.830  18.119  0.00  0.00    +0.007 C 
ENDBRANCH   7  11
BRANCH   8  12
ATOM     12  C   UNL     1     -14.096   8.705  17.255  0.00  0.00    +0.092 C 
BRANCH  12   3
ATOM      3  N   UNL     1     -14.164   7.897  16.038  0.00  0.00    -0.299 NA
ATOM      4  N   UNL     1     -14.769   7.502  13.240  0.00  0.00    -0.298 NA
ATOM     16  C   UNL     1     -15.549   7.777  15.568  0.00  0.00    +0.100 C 
ATOM     17  C   UNL     1     -13.312   8.464  14.987  0.00  0.00    +0.100 C 
ATOM     20  C   UNL     1     -15.621   6.933  14.291  0.00  0.00    +0.100 C 
ATOM     21  C   UNL     1     -13.384   7.620  13.710  0.00  0.00    +0.100 C 
BRANCH   4  24
ATOM     24  C   UNL     1     -14.838   6.695  12.023  0.00  0.00    +0.112 C 
BRANCH  24  25
ATOM     25  C   UNL     1     -15.493   5.353  12.305  0.00  0.00    +0.174 C 
BRANCH  25   2
ATOM      2  O   UNL     1     -14.536   4.323  12.086  0.00  0.00    -0.382 OA
ATOM     29  C   UNL     1     -15.018   3.350  11.169  0.00  0.00    +0.194 C 
ENDBRANCH  25   2
ENDBRANCH  24  25
ENDBRANCH   4  24
ENDBRANCH  12   3
ENDBRANCH   8  12
BRANCH  10  15
ATOM     15  C   UNL     1     -13.358   9.386  21.989  0.00  0.00    +0.105 C 
BRANCH  15  23
ATOM      1  O   UNL     1     -13.117  10.032  24.330  0.00  0.00    -0.425 OA
ATOM      5  N   UNL     1     -11.956  11.306  22.904  0.00  0.00    -0.112 NA
ATOM      6  N   UNL     1     -11.728  11.780  24.182  0.00  0.00    -0.112 NA
ATOM     23  C   UNL     1     -12.772  10.286  23.037  0.00  0.00    +0.218 A 
ATOM     26  C   UNL     1     -12.426  11.007  24.981  0.00  0.00    +0.217 A 
BRANCH  26  27
ATOM     27  C   UNL     1     -12.555  11.046  26.443  0.00  0.00    +0.097 C 
BRANCH  27  28
ATOM     28  C   UNL     1     -11.769   9.922  27.151  0.00  0.00    +0.006 C 
ATOM     30  C   UNL     1     -10.264  10.057  26.976  0.00  0.00    +0.004 C 
ENDBRANCH  27  28
ENDBRANCH  26  27
ENDBRANCH  15  23
ENDBRANCH  10  15
TORSDOF 10
ENDMDL
MODEL 4
REMARK VINA RESULT:      -5.9     25.547     28.492
REMARK  Name = 45784034
REMARK  15 active torsions:
REMARK  status: ('A' for Active; 'I' for Inactive)
REMARK    1  A    between atoms: O_2  and  C_25
REMARK    2  A    between atoms: O_2  and  C_29
REMARK    3  A    between atoms: N_3  and  C_12
REMARK    4  A    between atoms: N_4  and  C_24
REMARK    5  A    between atoms: C_7  and  C_11
REMARK    6  A    between atoms: C_8  and  C_12
REMARK    7  A    between atoms: C_10  and  C_15
REMARK    8  A    between atoms: C_11  and  C_18
REMARK    9  A    between atoms: C_11  and  C_19
REMARK   10  A    between atoms: C_14  and  C_22
REMARK   11  A    between atoms: C_15  and  C_23
REMARK   12  A    between atoms: C_24  and  C_25
REMARK   13  A    between atoms: C_26  and  C_27
REMARK   14  A    between atoms: C_27  and  C_28
REMARK   15  A    between atoms: C_28  and  C_30
REMARK                            x       y       z     vdW  Elec       q    Type
REMARK                         _______ _______ _______ _____ _____    ______ ____
ROOT
ATOM      7  C   UNL     1     -13.322  10.560  21.887  0.00  0.00    +0.000 C 
ATOM      8  C   UNL     1     -12.002  10.523  21.082  0.00  0.00    +0.029 C 
ATOM      9  C   UNL     1     -14.318   9.532  21.335  0.00  0.00    +0.012 C 
ATOM     10  C   UNL     1     -13.766   8.091  21.322  0.00  0.00    +0.024 C 
ATOM     13  C   UNL     1     -11.533   9.117  20.803  0.00  0.00    -0.023 C 
ATOM     14  C   UNL     1     -12.302   8.018  20.917  0.00  0.00    -0.073 C 
ATOM     22  C   UNL     1     -11.708   6.653  20.698  0.00  0.00    +0.039 C 
ENDROOT
BRANCH   7  11
ATOM     11  C   UNL     1     -13.069  10.340  23.385  0.00  0.00    -0.013 C 
ATOM     18  C   UNL     1     -12.031  11.331  23.901  0.00  0.00    +0.007 C 
ATOM     19  C   UNL     1     -14.372  10.464  24.168  0.00  0.00    +0.007 C 
ENDBRANCH   7  11
BRANCH   8  12
ATOM     12  C   UNL     1     -12.126  11.284  19.758  0.00  0.00    +0.092 C 
BRANCH  12   3
ATOM      3  N   UNL     1     -11.729  10.436  18.635  0.00  0.00    -0.299 NA
ATOM      4  N   UNL     1     -11.313   9.916  15.822  0.00  0.00    -0.298 NA
ATOM     16  C   UNL     1     -12.859  10.209  17.728  0.00  0.00    +0.100 C 
ATOM     17  C   UNL     1     -10.599  11.027  17.909  0.00  0.00    +0.100 C 
ATOM     20  C   UNL     1     -12.444   9.323  16.548  0.00  0.00    +0.100 C 
ATOM     21  C   UNL     1     -10.183  10.141  16.730  0.00  0.00    +0.100 C 
BRANCH   4  24
ATOM     24  C   UNL     1     -10.918   9.069  14.699  0.00  0.00    +0.112 C 
BRANCH  24  25
ATOM     25  C   UNL     1     -12.140   8.541  13.967  0.00  0.00    +0.174 C 
BRANCH  25   2
ATOM      2  O   UNL     1     -11.797   7.318  13.328  0.00  0.00    -0.382 OA
ATOM     29  C   UNL     1     -10.389   7.139  13.267  0.00  0.00    +0.194 C 
ENDBRANCH  25   2
ENDBRANCH  24  25
ENDBRANCH   4  24
ENDBRANCH  12   3
ENDBRANCH   8  12
BRANCH  10  15
ATOM     15  C   UNL     1     -14.673   7.226  20.438  0.00  0.00    +0.105 C 
BRANCH  15  23
ATOM      1  O   UNL     1     -14.796   5.896  22.480  0.00  0.00    -0.425 OA
ATOM      5  N   UNL     1     -16.076   5.132  20.812  0.00  0.00    -0.112 NA
ATOM      6  N   UNL     1     -16.242   4.291  21.897  0.00  0.00    -0.112 NA
ATOM     23  C   UNL     1     -15.224   6.054  21.197  0.00  0.00    +0.218 A 
ATOM     26  C   UNL     1     -15.475   4.775  22.847  0.00  0.00    +0.217 A 
BRANCH  26  27
ATOM     27  C   UNL     1     -15.261   4.287  24.214  0.00  0.00    +0.097 C 
BRANCH  27  28
ATOM     28  C   UNL     1     -16.567   3.849  24.912  0.00  0.00    +0.006 C 
ATOM     30  C   UNL     1     -16.362   2.675  25.857  0.00  0.00    +0.004 C 
ENDBRANCH  27  28
ENDBRANCH  26  27
ENDBRANCH  15  23
ENDBRANCH  10  15
TORSDOF 10
ENDMDL
MODEL 5
REMARK VINA RESULT:      -5.8     25.460     28.603
REMARK  Name = 45784034
REMARK  15 active torsions:
REMARK  status: ('A' for Active; 'I' for Inactive)
REMARK    1  A    between atoms: O_2  and  C_25
REMARK    2  A    between atoms: O_2  and  C_29
REMARK    3  A    between atoms: N_3  and  C_12
REMARK    4  A    between atoms: N_4  and  C_24
REMARK    5  A    between atoms: C_7  and  C_11
REMARK    6  A    between atoms: C_8  and  C_12
REMARK    7  A    between atoms: C_10  and  C_15
REMARK    8  A    between atoms: C_11  and  C_18
REMARK    9  A    between atoms: C_11  and  C_19
REMARK   10  A    between atoms: C_14  and  C_22
REMARK   11  A    between atoms: C_15  and  C_23
REMARK   12  A    between atoms: C_24  and  C_25
REMARK   13  A    between atoms: C_26  and  C_27
REMARK   14  A    between atoms: C_27  and  C_28
REMARK   15  A    between atoms: C_28  and  C_30
REMARK                            x       y       z     vdW  Elec       q    Type
REMARK                         _______ _______ _______ _____ _____    ______ ____
ROOT
ATOM      7  C   UNL     1     -13.386   8.162  20.473  0.00  0.00    +0.000 C 
ATOM      8  C   UNL     1     -14.027   8.157  21.880  0.00  0.00    +0.029 C 
ATOM      9  C   UNL     1     -13.314   9.592  19.919  0.00  0.00    +0.012 C 
ATOM     10  C   UNL     1     -12.543  10.565  20.836  0.00  0.00    +0.024 C 
ATOM     13  C   UNL     1     -13.500   9.263  22.759  0.00  0.00    -0.023 C 
ATOM     14  C   UNL     1     -12.825  10.339  22.314  0.00  0.00    -0.073 C 
ATOM     22  C   UNL     1     -12.269  11.340  23.289  0.00  0.00    +0.039 C 
ENDROOT
BRANCH   7  11
ATOM     11  C   UNL     1     -12.000   7.502  20.486  0.00  0.00    -0.013 C 
ATOM     18  C   UNL     1     -12.046   6.186  21.257  0.00  0.00    +0.007 C 
ATOM     19  C   UNL     1     -11.503   7.277  19.062  0.00  0.00    +0.007 C 
ENDBRANCH   7  11
BRANCH   8  12
ATOM     12  C   UNL     1     -15.554   8.256  21.806  0.00  0.00    +0.092 C 
BRANCH  12   3
ATOM      3  N   UNL     1     -16.175   7.031  22.306  0.00  0.00    -0.299 NA
ATOM      4  N   UNL     1     -16.291   4.166  22.671  0.00  0.00    -0.298 NA
ATOM     16  C   UNL     1     -16.529   6.135  21.199  0.00  0.00    +0.100 C 
ATOM     17  C   UNL     1     -15.290   6.347  23.256  0.00  0.00    +0.100 C 
ATOM     20  C   UNL     1     -17.178   4.849  21.721  0.00  0.00    +0.100 C 
ATOM     21  C   UNL     1     -15.940   5.061  23.780  0.00  0.00    +0.100 C 
BRANCH   4  24
ATOM     24  C   UNL     1     -16.912   2.940  23.170  0.00  0.00    +0.112 C 
BRANCH  24  25
ATOM     25  C   UNL     1     -16.515   2.687  24.615  0.00  0.00    +0.174 C 
BRANCH  25   2
ATOM      2  O   UNL     1     -16.444   1.283  24.830  0.00  0.00    -0.382 OA
ATOM     29  C   UNL     1     -16.707   0.949  26.186  0.00  0.00    +0.194 C 
ENDBRANCH  25   2
ENDBRANCH  24  25
ENDBRANCH   4  24
ENDBRANCH  12   3
ENDBRANCH   8  12
BRANCH  10  15
ATOM     15  C   UNL     1     -12.837  12.001  20.386  0.00  0.00    +0.105 C 
BRANCH  15  23
ATOM      1  O   UNL     1     -11.365  11.419  18.528  0.00  0.00    -0.425 OA
ATOM      5  N   UNL     1     -11.613  13.620  18.846  0.00  0.00    -0.112 NA
ATOM      6  N   UNL     1     -10.762  13.437  17.772  0.00  0.00    -0.112 NA
ATOM     23  C   UNL     1     -11.940  12.416  19.256  0.00  0.00    +0.218 A 
ATOM     26  C   UNL     1     -10.646  12.138  17.623  0.00  0.00    +0.217 A 
BRANCH  26  27
ATOM     27  C   UNL     1      -9.870  11.375  16.638  0.00  0.00    +0.097 C 
BRANCH  27  28
ATOM     28  C   UNL     1      -9.977   9.847  16.835  0.00  0.00    +0.006 C 
ATOM     30  C   UNL     1     -10.553   9.137  15.620  0.00  0.00    +0.004 C 
ENDBRANCH  27  28
ENDBRANCH  26  27
ENDBRANCH  15  23
ENDBRANCH  10  15
TORSDOF 10
ENDMDL
MODEL 6
REMARK VINA RESULT:      -5.8     25.239     28.429
REMARK  Name = 45784034
REMARK  15 active torsions:
REMARK  status: ('A' for Active; 'I' for Inactive)
REMARK    1  A    between atoms: O_2  and  C_25
REMARK    2  A    between atoms: O_2  and  C_29
REMARK    3  A    between atoms: N_3  and  C_12
REMARK    4  A    between atoms: N_4  and  C_24
REMARK    5  A    between atoms: C_7  and  C_11
REMARK    6  A    between atoms: C_8  and  C_12
REMARK    7  A    between atoms: C_10  and  C_15
REMARK    8  A    between atoms: C_11  and  C_18
REMARK    9  A    between atoms: C_11  and  C_19
REMARK   10  A    between atoms: C_14  and  C_22
REMARK   11  A    between atoms: C_15  and  C_23
REMARK   12  A    between atoms: C_24  and  C_25
REMARK   13  A    between atoms: C_26  and  C_27
REMARK   14  A    between atoms: C_27  and  C_28
REMARK   15  A    between atoms: C_28  and  C_30
REMARK                            x       y       z     vdW  Elec       q    Type
REMARK                         _______ _______ _______ _____ _____    ______ ____
ROOT
ATOM      7  C   UNL     1     -13.142   8.958  20.445  0.00  0.00    +0.000 C 
ATOM      8  C   UNL     1     -11.818   8.176  20.284  0.00  0.00    +0.029 C 
ATOM      9  C   UNL     1     -14.345   8.018  20.288  0.00  0.00    +0.012 C 
ATOM     10  C   UNL     1     -14.327   6.831  21.275  0.00  0.00    +0.024 C 
ATOM     13  C   UNL     1     -11.828   6.861  21.022  0.00  0.00    -0.023 C 
ATOM     14  C   UNL     1     -12.936   6.251  21.483  0.00  0.00    -0.073 C 
ATOM     22  C   UNL     1     -12.824   4.982  22.283  0.00  0.00    +0.039 C 
ENDROOT
BRANCH   7  11
ATOM     11  C   UNL     1     -13.192   9.703  21.787  0.00  0.00    -0.013 C 
ATOM     18  C   UNL     1     -12.178  10.844  21.799  0.00  0.00    +0.007 C 
ATOM     19  C   UNL     1     -14.599  10.227  22.053  0.00  0.00    +0.007 C 
ENDBRANCH   7  11
BRANCH   8  12
ATOM     12  C   UNL     1     -11.488   7.923  18.809  0.00  0.00    +0.092 C 
BRANCH  12   3
ATOM      3  N   UNL     1     -11.301   9.186  18.098  0.00  0.00    -0.299 NA
ATOM      4  N   UNL     1      -9.707  11.113  16.647  0.00  0.00    -0.298 NA
ATOM     16  C   UNL     1     -10.315  10.030  18.783  0.00  0.00    +0.100 C 
ATOM     17  C   UNL     1     -10.893   8.947  16.708  0.00  0.00    +0.100 C 
ATOM     20  C   UNL     1     -10.115  11.353  18.037  0.00  0.00    +0.100 C 
ATOM     21  C   UNL     1     -10.694  10.271  15.962  0.00  0.00    +0.100 C 
BRANCH   4  24
ATOM     24  C   UNL     1      -9.518  12.376  15.936  0.00  0.00    +0.112 C 
BRANCH  24  25
ATOM     25  C   UNL     1      -8.775  13.376  16.807  0.00  0.00    +0.174 C 
BRANCH  25   2
ATOM      2  O   UNL     1      -7.379  13.241  16.568  0.00  0.00    -0.382 OA
ATOM     29  C   UNL     1      -7.027  13.689  15.266  0.00  0.00    +0.194 C 
ENDBRANCH  25   2
ENDBRANCH  24  25
ENDBRANCH   4  24
ENDBRANCH  12   3
ENDBRANCH   8  12
BRANCH  10  15
ATOM     15  C   UNL     1     -15.344   5.785  20.802  0.00  0.00    +0.105 C 
BRANCH  15  23
ATOM      1  O   UNL     1     -16.870   4.150  21.780  0.00  0.00    -0.425 OA
ATOM      5  N   UNL     1     -16.538   5.964  23.046  0.00  0.00    -0.112 NA
ATOM      6  N   UNL     1     -17.414   5.131  23.716  0.00  0.00    -0.112 NA
ATOM     23  C   UNL     1     -16.247   5.352  21.922  0.00  0.00    +0.218 A 
ATOM     26  C   UNL     1     -17.579   4.085  22.940  0.00  0.00    +0.217 A 
BRANCH  26  27
ATOM     27  C   UNL     1     -18.399   2.885  23.148  0.00  0.00    +0.097 C 
BRANCH  27  28
ATOM     28  C   UNL     1     -17.902   1.665  22.343  0.00  0.00    +0.006 C 
ATOM     30  C   UNL     1     -18.661   0.391  22.679  0.00  0.00    +0.004 C 
ENDBRANCH  27  28
ENDBRANCH  26  27
ENDBRANCH  15  23
ENDBRANCH  10  15
TORSDOF 10
ENDMDL
MODEL 7
REMARK VINA RESULT:      -5.8     27.920     30.513
REMARK  Name = 45784034
REMARK  15 active torsions:
REMARK  status: ('A' for Active; 'I' for Inactive)
REMARK    1  A    between atoms: O_2  and  C_25
REMARK    2  A    between atoms: O_2  and  C_29
REMARK    3  A    between atoms: N_3  and  C_12
REMARK    4  A    between atoms: N_4  and  C_24
REMARK    5  A    between atoms: C_7  and  C_11
REMARK    6  A    between atoms: C_8  and  C_12
REMARK    7  A    between atoms: C_10  and  C_15
REMARK    8  A    between atoms: C_11  and  C_18
REMARK    9  A    between atoms: C_11  and  C_19
REMARK   10  A    between atoms: C_14  and  C_22
REMARK   11  A    between atoms: C_15  and  C_23
REMARK   12  A    between atoms: C_24  and  C_25
REMARK   13  A    between atoms: C_26  and  C_27
REMARK   14  A    between atoms: C_27  and  C_28
REMARK   15  A    between atoms: C_28  and  C_30
REMARK                            x       y       z     vdW  Elec       q    Type
REMARK                         _______ _______ _______ _____ _____    ______ ____
ROOT
ATOM      7  C   UNL     1      -7.639 -12.000  17.119  0.00  0.00    +0.000 C 
ATOM      8  C   UNL     1      -7.682 -11.988  18.665  0.00  0.00    +0.029 C 
ATOM      9  C   UNL     1      -6.527 -11.076  16.604  0.00  0.00    +0.012 C 
ATOM     10  C   UNL     1      -5.131 -11.431  17.158  0.00  0.00    +0.024 C 
ATOM     13  C   UNL     1      -6.309 -12.070  19.283  0.00  0.00    -0.023 C 
ATOM     14  C   UNL     1      -5.158 -11.837  18.624  0.00  0.00    -0.073 C 
ATOM     22  C   UNL     1      -3.837 -12.032  19.316  0.00  0.00    +0.039 C 
ENDROOT
BRANCH   7  11
ATOM     11  C   UNL     1      -7.472 -13.427  16.576  0.00  0.00    -0.013 C 
ATOM     18  C   UNL     1      -8.539 -14.347  17.161  0.00  0.00    +0.007 C 
ATOM     19  C   UNL     1      -7.534 -13.426  15.052  0.00  0.00    +0.007 C 
ENDBRANCH   7  11
BRANCH   8  12
ATOM     12  C   UNL     1      -8.402 -10.745  19.200  0.00  0.00    +0.092 C 
BRANCH  12   3
ATOM      3  N   UNL     1      -9.550 -11.127  20.020  0.00  0.00    -0.299 NA
ATOM      4  N   UNL     1     -12.161 -12.307  20.404  0.00  0.00    -0.298 NA
ATOM     16  C   UNL     1     -10.768 -10.449  19.559  0.00  0.00    +0.100 C 
ATOM     17  C   UNL     1      -9.738 -12.582  20.010  0.00  0.00    +0.100 C 
ATOM     20  C   UNL     1     -11.974 -10.851  20.415  0.00  0.00    +0.100 C 
ATOM     21  C   UNL     1     -10.944 -12.984  20.867  0.00  0.00    +0.100 C 
BRANCH   4  24
ATOM     24  C   UNL     1     -13.311 -12.688  21.222  0.00  0.00    +0.112 C 
BRANCH  24  25
ATOM     25  C   UNL     1     -13.060 -14.018  21.914  0.00  0.00    +0.174 C 
BRANCH  25   2
ATOM      2  O   UNL     1     -13.576 -13.948  23.238  0.00  0.00    -0.382 OA
ATOM     29  C   UNL     1     -13.676 -12.604  23.688  0.00  0.00    +0.194 C 
ENDBRANCH  25   2
ENDBRANCH  24  25
ENDBRANCH   4  24
ENDBRANCH  12   3
ENDBRANCH   8  12
BRANCH  10  15
ATOM     15  C   UNL     1      -4.182 -10.259  16.882  0.00  0.00    +0.105 C 
BRANCH  15  23
ATOM      1  O   UNL     1      -3.296 -10.972  14.722  0.00  0.00    -0.425 OA
ATOM      5  N   UNL     1      -1.756 -10.818  16.338  0.00  0.00    -0.112 NA
ATOM      6  N   UNL     1      -1.121 -11.227  15.180  0.00  0.00    -0.112 NA
ATOM     23  C   UNL     1      -3.024 -10.681  16.025  0.00  0.00    +0.218 A 
ATOM     26  C   UNL     1      -2.058 -11.304  14.264  0.00  0.00    +0.217 A 
BRANCH  26  27
ATOM     27  C   UNL     1      -1.955 -11.685  12.850  0.00  0.00    +0.097 C 
BRANCH  27  28
ATOM     28  C   UNL     1      -2.476 -10.594  11.890  0.00  0.00    +0.006 C 
ATOM     30  C   UNL     1      -1.392  -9.611  11.475  0.00  0.00    +0.004 C 
ENDBRANCH  27  28
ENDBRANCH  26  27
ENDBRANCH  15  23
ENDBRANCH  10  15
TORSDOF 10
ENDMDL
MODEL 8
REMARK VINA RESULT:      -5.7     27.109     29.942
REMARK  Name = 45784034
REMARK  15 active torsions:
REMARK  status: ('A' for Active; 'I' for Inactive)
REMARK    1  A    between atoms: O_2  and  C_25
REMARK    2  A    between atoms: O_2  and  C_29
REMARK    3  A    between atoms: N_3  and  C_12
REMARK    4  A    between atoms: N_4  and  C_24
REMARK    5  A    between atoms: C_7  and  C_11
REMARK    6  A    between atoms: C_8  and  C_12
REMARK    7  A    between atoms: C_10  and  C_15
REMARK    8  A    between atoms: C_11  and  C_18
REMARK    9  A    between atoms: C_11  and  C_19
REMARK   10  A    between atoms: C_14  and  C_22
REMARK   11  A    between atoms: C_15  and  C_23
REMARK   12  A    between atoms: C_24  and  C_25
REMARK   13  A    between atoms: C_26  and  C_27
REMARK   14  A    between atoms: C_27  and  C_28
REMARK   15  A    between atoms: C_28  and  C_30
REMARK                            x       y       z     vdW  Elec       q    Type
REMARK                         _______ _______ _______ _____ _____    ______ ____
ROOT
ATOM      7  C   UNL     1     -16.678   6.269  21.054  0.00  0.00    +0.000 C 
ATOM      8  C   UNL     1     -16.107   5.194  22.008  0.00  0.00    +0.029 C 
ATOM      9  C   UNL     1     -15.902   7.585  21.201  0.00  0.00    +0.012 C 
ATOM     10  C   UNL     1     -14.386   7.433  20.954  0.00  0.00    +0.024 C 
ATOM     13  C   UNL     1     -14.600   5.166  22.013  0.00  0.00    -0.023 C 
ATOM     14  C   UNL     1     -13.814   6.149  21.536  0.00  0.00    -0.073 C 
ATOM     22  C   UNL     1     -12.320   5.980  21.512  0.00  0.00    +0.039 C 
ENDROOT
BRANCH   7  11
ATOM     11  C   UNL     1     -16.674   5.783  19.597  0.00  0.00    -0.013 C 
ATOM     18  C   UNL     1     -17.523   4.523  19.455  0.00  0.00    +0.007 C 
ATOM     19  C   UNL     1     -17.179   6.883  18.668  0.00  0.00    +0.007 C 
ENDBRANCH   7  11
BRANCH   8  12
ATOM     12  C   UNL     1     -16.612   5.385  23.441  0.00  0.00    +0.092 C 
BRANCH  12   3
ATOM      3  N   UNL     1     -16.382   4.180  24.236  0.00  0.00    -0.299 NA
ATOM      4  N   UNL     1     -17.206   2.126  26.096  0.00  0.00    -0.298 NA
ATOM     16  C   UNL     1     -16.528   4.463  25.668  0.00  0.00    +0.100 C 
ATOM     17  C   UNL     1     -17.297   3.106  23.830  0.00  0.00    +0.100 C 
ATOM     20  C   UNL     1     -16.290   3.200  26.502  0.00  0.00    +0.100 C 
ATOM     21  C   UNL     1     -17.059   1.842  24.664  0.00  0.00    +0.100 C 
BRANCH   4  24
ATOM     24  C   UNL     1     -16.977   0.921  26.891  0.00  0.00    +0.112 C 
BRANCH  24  25
ATOM     25  C   UNL     1     -16.611   1.283  28.321  0.00  0.00    +0.174 C 
BRANCH  25   2
ATOM      2  O   UNL     1     -15.608   0.384  28.777  0.00  0.00    -0.382 OA
ATOM     29  C   UNL     1     -15.564   0.329  30.197  0.00  0.00    +0.194 C 
ENDBRANCH  25   2
ENDBRANCH  24  25
ENDBRANCH   4  24
ENDBRANCH  12   3
ENDBRANCH   8  12
BRANCH  10  15
ATOM     15  C   UNL     1     -13.677   8.690  21.472  0.00  0.00    +0.105 C 
BRANCH  15  23
ATOM      1  O   UNL     1     -11.752   9.354  20.127  0.00  0.00    -0.425 OA
ATOM      5  N   UNL     1     -13.673  10.325  19.518  0.00  0.00    -0.112 NA
ATOM      6  N   UNL     1     -12.676  10.787  18.679  0.00  0.00    -0.112 NA
ATOM     23  C   UNL     1     -13.089   9.492  20.347  0.00  0.00    +0.218 A 
ATOM     26  C   UNL     1     -11.573  10.194  19.071  0.00  0.00    +0.217 A 
BRANCH  26  27
ATOM     27  C   UNL     1     -10.210  10.308  18.538  0.00  0.00    +0.097 C 
BRANCH  27  28
ATOM     28  C   UNL     1     -10.034   9.608  17.173  0.00  0.00    +0.006 C 
ATOM     30  C   UNL     1     -10.545   8.177  17.176  0.00  0.00    +0.004 C 
ENDBRANCH  27  28
ENDBRANCH  26  27
ENDBRANCH  15  23
ENDBRANCH  10  15
TORSDOF 10
ENDMDL
MODEL 9
REMARK VINA RESULT:      -5.7     26.742     29.650
REMARK  Name = 45784034
REMARK  15 active torsions:
REMARK  status: ('A' for Active; 'I' for Inactive)
REMARK    1  A    between atoms: O_2  and  C_25
REMARK    2  A    between atoms: O_2  and  C_29
REMARK    3  A    between atoms: N_3  and  C_12
REMARK    4  A    between atoms: N_4  and  C_24
REMARK    5  A    between atoms: C_7  and  C_11
REMARK    6  A    between atoms: C_8  and  C_12
REMARK    7  A    between atoms: C_10  and  C_15
REMARK    8  A    between atoms: C_11  and  C_18
REMARK    9  A    between atoms: C_11  and  C_19
REMARK   10  A    between atoms: C_14  and  C_22
REMARK   11  A    between atoms: C_15  and  C_23
REMARK   12  A    between atoms: C_24  and  C_25
REMARK   13  A    between atoms: C_26  and  C_27
REMARK   14  A    between atoms: C_27  and  C_28
REMARK   15  A    between atoms: C_28  and  C_30
REMARK                            x       y       z     vdW  Elec       q    Type
REMARK                         _______ _______ _______ _____ _____    ______ ____
ROOT
ATOM      7  C   UNL     1      -3.795 -11.900  12.472  0.00  0.00    +0.000 C 
ATOM      8  C   UNL     1      -2.842 -11.303  13.533  0.00  0.00    +0.029 C 
ATOM      9  C   UNL     1      -4.213 -10.826  11.458  0.00  0.00    +0.012 C 
ATOM     10  C   UNL     1      -3.016 -10.154  10.752  0.00  0.00    +0.024 C 
ATOM     13  C   UNL     1      -1.788 -10.411  12.927  0.00  0.00    -0.023 C 
ATOM     14  C   UNL     1      -1.841  -9.899  11.684  0.00  0.00    -0.073 C 
ATOM     22  C   UNL     1      -0.692  -9.090  11.148  0.00  0.00    +0.039 C 
ENDROOT
BRANCH   7  11
ATOM     11  C   UNL     1      -3.164 -13.111  11.770  0.00  0.00    -0.013 C 
ATOM     18  C   UNL     1      -2.798 -14.186  12.790  0.00  0.00    +0.007 C 
ATOM     19  C   UNL     1      -4.112 -13.668  10.713  0.00  0.00    +0.007 C 
ENDBRANCH   7  11
BRANCH   8  12
ATOM     12  C   UNL     1      -3.607 -10.522  14.605  0.00  0.00    +0.092 C 
BRANCH  12   3
ATOM      3  N   UNL     1      -4.463 -11.416  15.384  0.00  0.00    -0.299 NA
ATOM      4  N   UNL     1      -6.413 -11.964  17.446  0.00  0.00    -0.298 NA
ATOM     16  C   UNL     1      -4.100 -11.377  16.806  0.00  0.00    +0.100 C 
ATOM     17  C   UNL     1      -5.878 -11.069  15.207  0.00  0.00    +0.100 C 
ATOM     20  C   UNL     1      -4.998 -12.311  17.624  0.00  0.00    +0.100 C 
ATOM     21  C   UNL     1      -6.776 -12.004  16.025  0.00  0.00    +0.100 C 
BRANCH   4  24
ATOM     24  C   UNL     1      -7.268 -12.856  18.226  0.00  0.00    +0.112 C 
BRANCH  24  25
ATOM     25  C   UNL     1      -7.371 -12.379  19.665  0.00  0.00    +0.174 C 
BRANCH  25   2
ATOM      2  O   UNL     1      -7.966 -11.087  19.677  0.00  0.00    -0.382 OA
ATOM     29  C   UNL     1      -9.385 -11.166  19.673  0.00  0.00    +0.194 C 
ENDBRANCH  25   2
ENDBRANCH  24  25
ENDBRANCH   4  24
ENDBRANCH  12   3
ENDBRANCH   8  12
BRANCH  10  15
ATOM     15  C   UNL     1      -3.511  -8.882  10.053  0.00  0.00    +0.105 C 
BRANCH  15  23
ATOM      1  O   UNL     1      -5.855  -8.578   9.447  0.00  0.00    -0.425 OA
ATOM      5  N   UNL     1      -4.719  -9.922   8.066  0.00  0.00    -0.112 NA
ATOM      6  N   UNL     1      -6.020  -9.840   7.608  0.00  0.00    -0.112 NA
ATOM     23  C   UNL     1      -4.668  -9.170   9.141  0.00  0.00    +0.218 A 
ATOM     26  C   UNL     1      -6.647  -9.046   8.445  0.00  0.00    +0.217 A 
BRANCH  26  27
ATOM     27  C   UNL     1      -8.047  -8.603   8.443  0.00  0.00    +0.097 C 
BRANCH  27  28
ATOM     28  C   UNL     1      -8.664  -8.553   7.029  0.00  0.00    +0.006 C 
ATOM     30  C   UNL     1      -8.357  -7.255   6.299  0.00  0.00    +0.004 C 
ENDBRANCH  27  28
ENDBRANCH  26  27
ENDBRANCH  15  23
ENDBRANCH  10  15
TORSDOF 10
ENDMDL
MODEL 10
REMARK VINA RESULT:      -5.7     26.784     29.554
REMARK  Name = 45784034
REMARK  15 active torsions:
REMARK  status: ('A' for Active; 'I' for Inactive)
REMARK    1  A    between atoms: O_2  and  C_25
REMARK    2  A    between atoms: O_2  and  C_29
REMARK    3  A    between atoms: N_3  and  C_12
REMARK    4  A    between atoms: N_4  and  C_24
REMARK    5  A    between atoms: C_7  and  C_11
REMARK    6  A    between atoms: C_8  and  C_12
REMARK    7  A    between atoms: C_10  and  C_15
REMARK    8  A    between atoms: C_11  and  C_18
REMARK    9  A    between atoms: C_11  and  C_19
REMARK   10  A    between atoms: C_14  and  C_22
REMARK   11  A    between atoms: C_15  and  C_23
REMARK   12  A    between atoms: C_24  and  C_25
REMARK   13  A    between atoms: C_26  and  C_27
REMARK   14  A    between atoms: C_27  and  C_28
REMARK   15  A    between atoms: C_28  and  C_30
REMARK                            x       y       z     vdW  Elec       q    Type
REMARK                         _______ _______ _______ _____ _____    ______ ____
ROOT
ATOM      7  C   UNL     1      -5.047 -11.952  15.197  0.00  0.00    +0.000 C 
ATOM      8  C   UNL     1      -4.797 -11.006  16.394  0.00  0.00    +0.029 C 
ATOM      9  C   UNL     1      -4.322 -11.440  13.945  0.00  0.00    +0.012 C 
ATOM     10  C   UNL     1      -2.803 -11.261  14.148  0.00  0.00    +0.024 C 
ATOM     13  C   UNL     1      -3.356 -10.575  16.500  0.00  0.00    -0.023 C 
ATOM     14  C   UNL     1      -2.448 -10.692  15.514  0.00  0.00    -0.073 C 
ATOM     22  C   UNL     1      -1.013 -10.309  15.756  0.00  0.00    +0.039 C 
ENDROOT
BRANCH   7  11
ATOM     11  C   UNL     1      -4.633 -13.394  15.528  0.00  0.00    -0.013 C 
ATOM     18  C   UNL     1      -5.411 -13.907  16.736  0.00  0.00    +0.007 C 
ATOM     19  C   UNL     1      -4.849 -14.300  14.320  0.00  0.00    +0.007 C 
ENDBRANCH   7  11
BRANCH   8  12
ATOM     12  C   UNL     1      -5.691  -9.763  16.328  0.00  0.00    +0.092 C 
BRANCH  12   3
ATOM      3  N   UNL     1      -6.744  -9.830  17.340  0.00  0.00    -0.299 NA
ATOM      4  N   UNL     1      -8.773 -11.222  18.856  0.00  0.00    -0.298 NA
ATOM     16  C   UNL     1      -8.027 -10.201  16.733  0.00  0.00    +0.100 C 
ATOM     17  C   UNL     1      -6.387 -10.776  18.403  0.00  0.00    +0.100 C 
ATOM     20  C   UNL     1      -9.132 -10.274  17.793  0.00  0.00    +0.100 C 
ATOM     21  C   UNL     1      -7.491 -10.849  19.464  0.00  0.00    +0.100 C 
BRANCH   4  24
ATOM     24  C   UNL     1      -9.827 -11.290  19.866  0.00  0.00    +0.112 C 
BRANCH  24  25
ATOM     25  C   UNL     1     -10.136 -12.734  20.224  0.00  0.00    +0.174 C 
BRANCH  25   2
ATOM      2  O   UNL     1     -11.548 -12.900  20.276  0.00  0.00    -0.382 OA
ATOM     29  C   UNL     1     -11.982 -13.267  21.578  0.00  0.00    +0.194 C 
ENDBRANCH  25   2
ENDBRANCH  24  25
ENDBRANCH   4  24
ENDBRANCH  12   3
ENDBRANCH   8  12
BRANCH  10  15
ATOM     15  C   UNL     1      -2.249 -10.422  12.990  0.00  0.00    +0.105 C 
BRANCH  15  23
ATOM      1  O   UNL     1      -3.477  -9.750  10.991  0.00  0.00    -0.425 OA
ATOM      5  N   UNL     1      -3.039 -11.941  11.105  0.00  0.00    -0.112 NA
ATOM      6  N   UNL     1      -3.732 -11.704   9.932  0.00  0.00    -0.112 NA
ATOM     23  C   UNL     1      -2.913 -10.774  11.691  0.00  0.00    +0.218 A 
ATOM     26  C   UNL     1      -3.967 -10.413   9.908  0.00  0.00    +0.217 A 
BRANCH  26  27
ATOM     27  C   UNL     1      -4.663  -9.607   8.898  0.00  0.00    +0.097 C 
BRANCH  27  28
ATOM     28  C   UNL     1      -5.391  -8.383   9.496  0.00  0.00    +0.006 C 
ATOM     30  C   UNL     1      -6.842  -8.288   9.052  0.00  0.00    +0.004 C 
ENDBRANCH  27  28
ENDBRANCH  26  27
ENDBRANCH  15  23
ENDBRANCH  10  15
TORSDOF 10
ENDMDL
