MODEL 1
REMARK VINA RESULT:      -6.3      0.000      0.000
REMARK  Name = 75536766
REMARK  8 active torsions:
REMARK  status: ('A' for Active; 'I' for Inactive)
REMARK    1  A    between atoms: O_2  and  C_8
REMARK    2  A    between atoms: N_4  and  C_7
REMARK    3  A    between atoms: N_4  and  C_12
REMARK    4  A    between atoms: N_5  and  C_11
REMARK    5  A    between atoms: N_6  and  C_16
REMARK    6  A    between atoms: C_9  and  C_11
REMARK    7  A    between atoms: C_12  and  C_13
REMARK    8  A    between atoms: C_12  and  C_14
REMARK                            x       y       z     vdW  Elec       q    Type
REMARK                         _______ _______ _______ _____ _____    ______ ____
ROOT
ATOM     11  C   UNL     1      11.913   6.811  21.610  0.00  0.00    +0.140 C 
ENDROOT
BRANCH  11   5
ATOM      3  O   UNL     1      10.172   8.969  22.331  0.00  0.00    -0.253 OA
ATOM      5  N   UNL     1      12.294   8.056  22.212  0.00  0.00    -0.297 N 
ATOM      6  N   UNL     1      12.036  10.163  23.109  0.00  0.00    -0.269 N 
ATOM     15  C   UNL     1      11.379   9.071  22.538  0.00  0.00    +0.304 C 
ATOM     24  H   UNL     1      13.279   8.216  22.399  0.00  0.00    +0.150 HD
ATOM     25  H   UNL     1      13.046  10.086  23.210  0.00  0.00    +0.156 HD
BRANCH   6  16
ATOM     16  C   UNL     1      11.469  11.375  23.569  0.00  0.00    +0.035 A 
ATOM     17  C   UNL     1      11.265  11.574  24.935  0.00  0.00    +0.023 A 
ATOM     18  C   UNL     1      11.116  12.369  22.658  0.00  0.00    +0.023 A 
ATOM     19  C   UNL     1      10.705  12.769  25.388  0.00  0.00    +0.002 A 
ATOM     20  C   UNL     1      10.557  13.563  23.111  0.00  0.00    +0.002 A 
ATOM     21  C   UNL     1      10.351  13.764  24.476  0.00  0.00    +0.000 A 
ENDBRANCH   6  16
ENDBRANCH  11   5
BRANCH  11   9
ATOM      1  O   UNL     1      11.361   7.675  19.420  0.00  0.00    -0.371 OA
ATOM      7  C   UNL     1      13.498   7.740  18.387  0.00  0.00    +0.111 C 
ATOM      8  C   UNL     1      13.657   7.268  19.821  0.00  0.00    +0.164 C 
ATOM      9  C   UNL     1      12.244   6.789  20.130  0.00  0.00    +0.165 C 
ATOM     10  C   UNL     1      12.125   8.389  18.434  0.00  0.00    +0.181 C 
BRANCH   8   2
ATOM      2  O   UNL     1      14.606   6.229  19.953  0.00  0.00    -0.388 OA
ATOM     23  H   UNL     1      15.488   6.596  19.768  0.00  0.00    +0.210 HD
ENDBRANCH   8   2
BRANCH   7   4
ATOM      4  N   UNL     1      14.543   8.655  17.957  0.00  0.00    -0.307 NA
ATOM     22  H   UNL     1      15.318   8.135  17.546  0.00  0.00    +0.123 HD
BRANCH   4  12
ATOM     12  C   UNL     1      14.029   9.623  16.995  0.00  0.00    +0.048 C 
ATOM     13  C   UNL     1      14.703  10.972  17.223  0.00  0.00    +0.023 C 
ATOM     14  C   UNL     1      14.262   9.128  15.570  0.00  0.00    +0.023 C 
ENDBRANCH   4  12
ENDBRANCH   7   4
ENDBRANCH  11   9
TORSDOF 6
ENDMDL
MODEL 2
REMARK VINA RESULT:      -6.3      3.577      7.213
REMARK  Name = 75536766
REMARK  8 active torsions:
REMARK  status: ('A' for Active; 'I' for Inactive)
REMARK    1  A    between atoms: O_2  and  C_8
REMARK    2  A    between atoms: N_4  and  C_7
REMARK    3  A    between atoms: N_4  and  C_12
REMARK    4  A    between atoms: N_5  and  C_11
REMARK    5  A    between atoms: N_6  and  C_16
REMARK    6  A    between atoms: C_9  and  C_11
REMARK    7  A    between atoms: C_12  and  C_13
REMARK    8  A    between atoms: C_12  and  C_14
REMARK                            x       y       z     vdW  Elec       q    Type
REMARK                         _______ _______ _______ _____ _____    ______ ____
ROOT
ATOM     11  C   UNL     1      13.069   6.514  20.174  0.00  0.00    +0.140 C 
ENDROOT
BRANCH  11   5
ATOM      3  O   UNL     1      15.726   6.938  19.192  0.00  0.00    -0.253 OA
ATOM      5  N   UNL     1      14.273   6.558  20.952  0.00  0.00    -0.297 N 
ATOM      6  N   UNL     1      16.526   6.764  21.392  0.00  0.00    -0.269 N 
ATOM     15  C   UNL     1      15.546   6.772  20.396  0.00  0.00    +0.304 C 
ATOM     24  H   UNL     1      14.202   6.414  21.954  0.00  0.00    +0.150 HD
ATOM     25  H   UNL     1      16.207   6.612  22.346  0.00  0.00    +0.156 HD
BRANCH   6  16
ATOM     16  C   UNL     1      17.921   6.943  21.239  0.00  0.00    +0.035 A 
ATOM     17  C   UNL     1      18.520   8.133  21.652  0.00  0.00    +0.023 A 
ATOM     18  C   UNL     1      18.696   5.930  20.676  0.00  0.00    +0.023 A 
ATOM     19  C   UNL     1      19.896   8.310  21.500  0.00  0.00    +0.002 A 
ATOM     20  C   UNL     1      20.071   6.106  20.525  0.00  0.00    +0.002 A 
ATOM     21  C   UNL     1      20.671   7.296  20.937  0.00  0.00    +0.000 A 
ENDBRANCH   6  16
ENDBRANCH  11   5
BRANCH  11   9
ATOM      1  O   UNL     1      10.857   7.169  20.899  0.00  0.00    -0.371 OA
ATOM      7  C   UNL     1      11.339   9.104  22.189  0.00  0.00    +0.111 C 
ATOM      8  C   UNL     1      12.641   8.507  21.689  0.00  0.00    +0.164 C 
ATOM      9  C   UNL     1      12.149   7.671  20.515  0.00  0.00    +0.165 C 
ATOM     10  C   UNL     1      10.386   7.931  22.024  0.00  0.00    +0.181 C 
BRANCH   8   2
ATOM      2  O   UNL     1      13.573   9.490  21.283  0.00  0.00    -0.388 OA
ATOM     23  H   UNL     1      13.730   9.385  20.329  0.00  0.00    +0.210 HD
ENDBRANCH   8   2
BRANCH   7   4
ATOM      4  N   UNL     1      11.408   9.589  23.558  0.00  0.00    -0.307 NA
ATOM     22  H   UNL     1      12.116   9.072  24.078  0.00  0.00    +0.123 HD
BRANCH   4  12
ATOM     12  C   UNL     1      11.707  11.016  23.595  0.00  0.00    +0.048 C 
ATOM     13  C   UNL     1      11.045  11.703  22.405  0.00  0.00    +0.023 C 
ATOM     14  C   UNL     1      11.231  11.622  24.912  0.00  0.00    +0.023 C 
ENDBRANCH   4  12
ENDBRANCH   7   4
ENDBRANCH  11   9
TORSDOF 6
ENDMDL
MODEL 3
REMARK VINA RESULT:      -6.3     27.597     29.438
REMARK  Name = 75536766
REMARK  8 active torsions:
REMARK  status: ('A' for Active; 'I' for Inactive)
REMARK    1  A    between atoms: O_2  and  C_8
REMARK    2  A    between atoms: N_4  and  C_7
REMARK    3  A    between atoms: N_4  and  C_12
REMARK    4  A    between atoms: N_5  and  C_11
REMARK    5  A    between atoms: N_6  and  C_16
REMARK    6  A    between atoms: C_9  and  C_11
REMARK    7  A    between atoms: C_12  and  C_13
REMARK    8  A    between atoms: C_12  and  C_14
REMARK                            x       y       z     vdW  Elec       q    Type
REMARK                         _______ _______ _______ _____ _____    ______ ____
ROOT
ATOM     11  C   UNL     1     -16.582   1.600  27.194  0.00  0.00    +0.140 C 
ENDROOT
BRANCH  11   5
ATOM      3  O   UNL     1     -16.192   2.152  24.410  0.00  0.00    -0.253 OA
ATOM      5  N   UNL     1     -16.134   2.836  26.619  0.00  0.00    -0.297 N 
ATOM      6  N   UNL     1     -15.522   4.330  24.975  0.00  0.00    -0.269 N 
ATOM     15  C   UNL     1     -15.967   3.031  25.239  0.00  0.00    +0.304 C 
ATOM     24  H   UNL     1     -15.915   3.604  27.246  0.00  0.00    +0.150 HD
ATOM     25  H   UNL     1     -15.384   4.937  25.779  0.00  0.00    +0.156 HD
BRANCH   6  16
ATOM     16  C   UNL     1     -15.237   4.912  23.717  0.00  0.00    +0.035 A 
ATOM     17  C   UNL     1     -13.921   4.966  23.257  0.00  0.00    +0.023 A 
ATOM     18  C   UNL     1     -16.271   5.430  22.939  0.00  0.00    +0.023 A 
ATOM     19  C   UNL     1     -13.640   5.541  22.017  0.00  0.00    +0.002 A 
ATOM     20  C   UNL     1     -15.991   6.003  21.699  0.00  0.00    +0.002 A 
ATOM     21  C   UNL     1     -14.675   6.059  21.238  0.00  0.00    +0.000 A 
ENDBRANCH   6  16
ENDBRANCH  11   5
BRANCH  11   9
ATOM      1  O   UNL     1     -15.447   0.248  28.847  0.00  0.00    -0.371 OA
ATOM      7  C   UNL     1     -14.495   1.915  30.245  0.00  0.00    +0.111 C 
ATOM      8  C   UNL     1     -15.213   2.590  29.091  0.00  0.00    +0.164 C 
ATOM      9  C   UNL     1     -16.159   1.482  28.647  0.00  0.00    +0.165 C 
ATOM     10  C   UNL     1     -14.326   0.502  29.710  0.00  0.00    +0.181 C 
BRANCH   8   2
ATOM      2  O   UNL     1     -15.913   3.753  29.487  0.00  0.00    -0.388 OA
ATOM     23  H   UNL     1     -16.845   3.514  29.631  0.00  0.00    +0.210 HD
ENDBRANCH   8   2
BRANCH   7   4
ATOM      4  N   UNL     1     -13.231   2.544  30.592  0.00  0.00    -0.307 NA
ATOM     22  H   UNL     1     -13.074   3.363  30.006  0.00  0.00    +0.123 HD
BRANCH   4  12
ATOM     12  C   UNL     1     -13.204   2.927  31.999  0.00  0.00    +0.048 C 
ATOM     13  C   UNL     1     -13.626   4.387  32.135  0.00  0.00    +0.023 C 
ATOM     14  C   UNL     1     -14.117   2.015  32.813  0.00  0.00    +0.023 C 
ENDBRANCH   4  12
ENDBRANCH   7   4
ENDBRANCH  11   9
TORSDOF 6
ENDMDL
MODEL 4
REMARK VINA RESULT:      -6.0     27.504     29.140
REMARK  Name = 75536766
REMARK  8 active torsions:
REMARK  status: ('A' for Active; 'I' for Inactive)
REMARK    1  A    between atoms: O_2  and  C_8
REMARK    2  A    between atoms: N_4  and  C_7
REMARK    3  A    between atoms: N_4  and  C_12
REMARK    4  A    between atoms: N_5  and  C_11
REMARK    5  A    between atoms: N_6  and  C_16
REMARK    6  A    between atoms: C_9  and  C_11
REMARK    7  A    between atoms: C_12  and  C_13
REMARK    8  A    between atoms: C_12  and  C_14
REMARK                            x       y       z     vdW  Elec       q    Type
REMARK                         _______ _______ _______ _____ _____    ______ ____
ROOT
ATOM     11  C   UNL     1     -11.132  -8.200  17.073  0.00  0.00    +0.140 C 
ENDROOT
BRANCH  11   5
ATOM      3  O   UNL     1      -9.470 -10.520  17.326  0.00  0.00    -0.253 OA
ATOM      5  N   UNL     1      -9.761  -8.232  17.496  0.00  0.00    -0.297 N 
ATOM      6  N   UNL     1      -7.710  -9.136  18.031  0.00  0.00    -0.269 N 
ATOM     15  C   UNL     1      -9.009  -9.414  17.595  0.00  0.00    +0.304 C 
ATOM     24  H   UNL     1      -9.317  -7.354  17.748  0.00  0.00    +0.150 HD
ATOM     25  H   UNL     1      -7.488  -8.160  18.211  0.00  0.00    +0.156 HD
BRANCH   6  16
ATOM     16  C   UNL     1      -6.655 -10.052  18.255  0.00  0.00    +0.035 A 
ATOM     17  C   UNL     1      -5.741 -10.324  17.237  0.00  0.00    +0.023 A 
ATOM     18  C   UNL     1      -6.530 -10.681  19.492  0.00  0.00    +0.023 A 
ATOM     19  C   UNL     1      -4.700 -11.227  17.458  0.00  0.00    +0.002 A 
ATOM     20  C   UNL     1      -5.490 -11.584  19.714  0.00  0.00    +0.002 A 
ATOM     21  C   UNL     1      -4.575 -11.857  18.696  0.00  0.00    +0.000 A 
ENDBRANCH   6  16
ENDBRANCH  11   5
BRANCH  11   9
ATOM      1  O   UNL     1     -12.554  -8.035  15.124  0.00  0.00    -0.371 OA
ATOM      7  C   UNL     1     -11.902  -5.928  14.243  0.00  0.00    +0.111 C 
ATOM      8  C   UNL     1     -11.140  -6.182  15.530  0.00  0.00    +0.164 C 
ATOM      9  C   UNL     1     -11.258  -7.696  15.647  0.00  0.00    +0.165 C 
ATOM     10  C   UNL     1     -13.051  -6.914  14.373  0.00  0.00    +0.181 C 
BRANCH   8   2
ATOM      2  O   UNL     1      -9.792  -5.762  15.460  0.00  0.00    -0.388 OA
ATOM     23  H   UNL     1      -9.284  -6.443  14.987  0.00  0.00    +0.210 HD
ENDBRANCH   8   2
BRANCH   7   4
ATOM      4  N   UNL     1     -12.350  -4.553  14.092  0.00  0.00    -0.307 NA
ATOM     22  H   UNL     1     -11.561  -3.914  14.187  0.00  0.00    +0.123 HD
BRANCH   4  12
ATOM     12  C   UNL     1     -13.001  -4.351  12.803  0.00  0.00    +0.048 C 
ATOM     13  C   UNL     1     -14.398  -3.781  13.024  0.00  0.00    +0.023 C 
ATOM     14  C   UNL     1     -12.163  -3.425  11.927  0.00  0.00    +0.023 C 
ENDBRANCH   4  12
ENDBRANCH   7   4
ENDBRANCH  11   9
TORSDOF 6
ENDMDL
MODEL 5
REMARK VINA RESULT:      -5.9     26.252     28.074
REMARK  Name = 75536766
REMARK  8 active torsions:
REMARK  status: ('A' for Active; 'I' for Inactive)
REMARK    1  A    between atoms: O_2  and  C_8
REMARK    2  A    between atoms: N_4  and  C_7
REMARK    3  A    between atoms: N_4  and  C_12
REMARK    4  A    between atoms: N_5  and  C_11
REMARK    5  A    between atoms: N_6  and  C_16
REMARK    6  A    between atoms: C_9  and  C_11
REMARK    7  A    between atoms: C_12  and  C_13
REMARK    8  A    between atoms: C_12  and  C_14
REMARK                            x       y       z     vdW  Elec       q    Type
REMARK                         _______ _______ _______ _____ _____    ______ ____
ROOT
ATOM     11  C   UNL     1      -7.279 -11.152  18.373  0.00  0.00    +0.140 C 
ENDROOT
BRANCH  11   5
ATOM      3  O   UNL     1      -9.076 -10.183  16.364  0.00  0.00    -0.253 OA
ATOM      5  N   UNL     1      -8.294 -10.151  18.540  0.00  0.00    -0.297 N 
ATOM      6  N   UNL     1     -10.025  -8.746  17.958  0.00  0.00    -0.269 N 
ATOM     15  C   UNL     1      -9.140  -9.727  17.503  0.00  0.00    +0.304 C 
ATOM     24  H   UNL     1      -8.395  -9.720  19.453  0.00  0.00    +0.150 HD
ATOM     25  H   UNL     1      -9.946  -8.479  18.937  0.00  0.00    +0.156 HD
BRANCH   6  16
ATOM     16  C   UNL     1     -11.028  -8.071  17.223  0.00  0.00    +0.035 A 
ATOM     17  C   UNL     1     -10.775  -6.802  16.703  0.00  0.00    +0.023 A 
ATOM     18  C   UNL     1     -12.267  -8.676  17.018  0.00  0.00    +0.023 A 
ATOM     19  C   UNL     1     -11.764  -6.136  15.978  0.00  0.00    +0.002 A 
ATOM     20  C   UNL     1     -13.256  -8.011  16.293  0.00  0.00    +0.002 A 
ATOM     21  C   UNL     1     -13.004  -6.741  15.773  0.00  0.00    +0.000 A 
ENDBRANCH   6  16
ENDBRANCH  11   5
BRANCH  11   9
ATOM      1  O   UNL     1      -4.887 -11.387  18.642  0.00  0.00    -0.371 OA
ATOM      7  C   UNL     1      -4.085 -10.312  16.683  0.00  0.00    +0.111 C 
ATOM      8  C   UNL     1      -5.602 -10.315  16.658  0.00  0.00    +0.164 C 
ATOM      9  C   UNL     1      -5.919 -10.523  18.134  0.00  0.00    +0.165 C 
ATOM     10  C   UNL     1      -3.798 -11.400  17.705  0.00  0.00    +0.181 C 
BRANCH   8   2
ATOM      2  O   UNL     1      -6.144  -9.104  16.169  0.00  0.00    -0.388 OA
ATOM     23  H   UNL     1      -6.517  -9.271  15.287  0.00  0.00    +0.210 HD
ENDBRANCH   8   2
BRANCH   7   4
ATOM      4  N   UNL     1      -3.481 -10.578  15.387  0.00  0.00    -0.307 NA
ATOM     22  H   UNL     1      -3.448  -9.724  14.833  0.00  0.00    +0.123 HD
BRANCH   4  12
ATOM     12  C   UNL     1      -2.138 -11.126  15.537  0.00  0.00    +0.048 C 
ATOM     13  C   UNL     1      -1.875 -12.135  14.424  0.00  0.00    +0.023 C 
ATOM     14  C   UNL     1      -1.104 -10.004  15.515  0.00  0.00    +0.023 C 
ENDBRANCH   4  12
ENDBRANCH   7   4
ENDBRANCH  11   9
TORSDOF 6
ENDMDL
MODEL 6
REMARK VINA RESULT:      -5.8     26.914     28.606
REMARK  Name = 75536766
REMARK  8 active torsions:
REMARK  status: ('A' for Active; 'I' for Inactive)
REMARK    1  A    between atoms: O_2  and  C_8
REMARK    2  A    between atoms: N_4  and  C_7
REMARK    3  A    between atoms: N_4  and  C_12
REMARK    4  A    between atoms: N_5  and  C_11
REMARK    5  A    between atoms: N_6  and  C_16
REMARK    6  A    between atoms: C_9  and  C_11
REMARK    7  A    between atoms: C_12  and  C_13
REMARK    8  A    between atoms: C_12  and  C_14
REMARK                            x       y       z     vdW  Elec       q    Type
REMARK                         _______ _______ _______ _____ _____    ______ ____
ROOT
ATOM     11  C   UNL     1     -16.343   3.130  23.083  0.00  0.00    +0.140 C 
ENDROOT
BRANCH  11   5
ATOM      3  O   UNL     1     -15.722   5.187  21.189  0.00  0.00    -0.253 OA
ATOM      5  N   UNL     1     -15.171   3.957  23.068  0.00  0.00    -0.297 N 
ATOM      6  N   UNL     1     -13.717   5.591  22.341  0.00  0.00    -0.269 N 
ATOM     15  C   UNL     1     -14.936   4.950  22.102  0.00  0.00    +0.304 C 
ATOM     24  H   UNL     1     -14.470   3.807  23.787  0.00  0.00    +0.150 HD
ATOM     25  H   UNL     1     -13.183   5.272  23.146  0.00  0.00    +0.156 HD
BRANCH   6  16
ATOM     16  C   UNL     1     -13.127   6.640  21.597  0.00  0.00    +0.035 A 
ATOM     17  C   UNL     1     -13.709   7.908  21.599  0.00  0.00    +0.023 A 
ATOM     18  C   UNL     1     -11.965   6.406  20.864  0.00  0.00    +0.023 A 
ATOM     19  C   UNL     1     -13.127   8.942  20.864  0.00  0.00    +0.002 A 
ATOM     20  C   UNL     1     -11.384   7.439  20.130  0.00  0.00    +0.002 A 
ATOM     21  C   UNL     1     -11.965   8.707  20.130  0.00  0.00    +0.000 A 
ENDBRANCH   6  16
ENDBRANCH  11   5
BRANCH  11   9
ATOM      1  O   UNL     1     -16.799   1.590  24.890  0.00  0.00    -0.371 OA
ATOM      7  C   UNL     1     -16.407   2.962  26.789  0.00  0.00    +0.111 C 
ATOM      8  C   UNL     1     -16.107   3.759  25.532  0.00  0.00    +0.164 C 
ATOM      9  C   UNL     1     -16.887   2.968  24.490  0.00  0.00    +0.165 C 
ATOM     10  C   UNL     1     -16.363   1.538  26.259  0.00  0.00    +0.181 C 
BRANCH   8   2
ATOM      2  O   UNL     1     -16.549   5.100  25.616  0.00  0.00    -0.388 OA
ATOM     23  H   UNL     1     -16.526   5.485  24.724  0.00  0.00    +0.210 HD
ENDBRANCH   8   2
BRANCH   7   4
ATOM      4  N   UNL     1     -15.460   3.196  27.866  0.00  0.00    -0.307 NA
ATOM     22  H   UNL     1     -15.523   4.162  28.186  0.00  0.00    +0.123 HD
BRANCH   4  12
ATOM     12  C   UNL     1     -15.699   2.286  28.981  0.00  0.00    +0.048 C 
ATOM     13  C   UNL     1     -14.448   2.211  29.851  0.00  0.00    +0.023 C 
ATOM     14  C   UNL     1     -16.904   2.751  29.793  0.00  0.00    +0.023 C 
ENDBRANCH   4  12
ENDBRANCH   7   4
ENDBRANCH  11   9
TORSDOF 6
ENDMDL
MODEL 7
REMARK VINA RESULT:      -5.8     14.216     18.551
REMARK  Name = 75536766
REMARK  8 active torsions:
REMARK  status: ('A' for Active; 'I' for Inactive)
REMARK    1  A    between atoms: O_2  and  C_8
REMARK    2  A    between atoms: N_4  and  C_7
REMARK    3  A    between atoms: N_4  and  C_12
REMARK    4  A    between atoms: N_5  and  C_11
REMARK    5  A    between atoms: N_6  and  C_16
REMARK    6  A    between atoms: C_9  and  C_11
REMARK    7  A    between atoms: C_12  and  C_13
REMARK    8  A    between atoms: C_12  and  C_14
REMARK                            x       y       z     vdW  Elec       q    Type
REMARK                         _______ _______ _______ _____ _____    ______ ____
ROOT
ATOM     11  C   UNL     1      15.193   8.095   5.301  0.00  0.00    +0.140 C 
ENDROOT
BRANCH  11   5
ATOM      3  O   UNL     1      14.324   7.650   2.608  0.00  0.00    -0.253 OA
ATOM      5  N   UNL     1      15.247   6.859   4.576  0.00  0.00    -0.297 N 
ATOM      6  N   UNL     1      14.976   5.405   2.809  0.00  0.00    -0.269 N 
ATOM     15  C   UNL     1      14.799   6.718   3.252  0.00  0.00    +0.304 C 
ATOM     24  H   UNL     1      15.616   6.041   5.050  0.00  0.00    +0.150 HD
ATOM     25  H   UNL     1      15.386   4.751   3.471  0.00  0.00    +0.156 HD
BRANCH   6  16
ATOM     16  C   UNL     1      14.652   4.864   1.542  0.00  0.00    +0.035 A 
ATOM     17  C   UNL     1      15.438   5.174   0.431  0.00  0.00    +0.023 A 
ATOM     18  C   UNL     1      13.549   4.024   1.404  0.00  0.00    +0.023 A 
ATOM     19  C   UNL     1      15.118   4.641  -0.818  0.00  0.00    +0.002 A 
ATOM     20  C   UNL     1      13.229   3.491   0.156  0.00  0.00    +0.002 A 
ATOM     21  C   UNL     1      14.014   3.800  -0.956  0.00  0.00    +0.000 A 
ENDBRANCH   6  16
ENDBRANCH  11   5
BRANCH  11   9
ATOM      1  O   UNL     1      12.944   8.907   5.660  0.00  0.00    -0.371 OA
ATOM      7  C   UNL     1      11.989   7.119   6.896  0.00  0.00    +0.111 C 
ATOM      8  C   UNL     1      13.414   6.755   6.522  0.00  0.00    +0.164 C 
ATOM      9  C   UNL     1      14.004   8.131   6.244  0.00  0.00    +0.165 C 
ATOM     10  C   UNL     1      11.696   8.240   5.913  0.00  0.00    +0.181 C 
BRANCH   8   2
ATOM      2  O   UNL     1      14.100   6.087   7.563  0.00  0.00    -0.388 OA
ATOM     23  H   UNL     1      13.448   5.595   8.091  0.00  0.00    +0.210 HD
ENDBRANCH   8   2
BRANCH   7   4
ATOM      4  N   UNL     1      11.056   6.009   6.785  0.00  0.00    -0.307 NA
ATOM     22  H   UNL     1      11.553   5.157   6.527  0.00  0.00    +0.123 HD
BRANCH   4  12
ATOM     12  C   UNL     1      10.332   5.804   8.034  0.00  0.00    +0.048 C 
ATOM     13  C   UNL     1       9.143   6.758   8.093  0.00  0.00    +0.023 C 
ATOM     14  C   UNL     1       9.877   4.353   8.150  0.00  0.00    +0.023 C 
ENDBRANCH   4  12
ENDBRANCH   7   4
ENDBRANCH  11   9
TORSDOF 6
ENDMDL
MODEL 8
REMARK VINA RESULT:      -5.8      2.275      2.828
REMARK  Name = 75536766
REMARK  8 active torsions:
REMARK  status: ('A' for Active; 'I' for Inactive)
REMARK    1  A    between atoms: O_2  and  C_8
REMARK    2  A    between atoms: N_4  and  C_7
REMARK    3  A    between atoms: N_4  and  C_12
REMARK    4  A    between atoms: N_5  and  C_11
REMARK    5  A    between atoms: N_6  and  C_16
REMARK    6  A    between atoms: C_9  and  C_11
REMARK    7  A    between atoms: C_12  and  C_13
REMARK    8  A    between atoms: C_12  and  C_14
REMARK                            x       y       z     vdW  Elec       q    Type
REMARK                         _______ _______ _______ _____ _____    ______ ____
ROOT
ATOM     11  C   UNL     1      10.508   8.395  22.421  0.00  0.00    +0.140 C 
ENDROOT
BRANCH  11   5
ATOM      3  O   UNL     1      10.500  11.072  23.442  0.00  0.00    -0.253 OA
ATOM      5  N   UNL     1      11.645   9.144  22.874  0.00  0.00    -0.297 N 
ATOM      6  N   UNL     1      12.826  10.929  23.728  0.00  0.00    -0.269 N 
ATOM     15  C   UNL     1      11.562  10.458  23.363  0.00  0.00    +0.304 C 
ATOM     24  H   UNL     1      12.559   8.704  22.825  0.00  0.00    +0.150 HD
ATOM     25  H   UNL     1      13.606  10.290  23.599  0.00  0.00    +0.156 HD
BRANCH   6  16
ATOM     16  C   UNL     1      13.159  12.196  24.261  0.00  0.00    +0.035 A 
ATOM     17  C   UNL     1      13.102  12.410  25.639  0.00  0.00    +0.023 A 
ATOM     18  C   UNL     1      13.546  13.230  23.410  0.00  0.00    +0.023 A 
ATOM     19  C   UNL     1      13.431  13.660  26.164  0.00  0.00    +0.002 A 
ATOM     20  C   UNL     1      13.875  14.480  23.935  0.00  0.00    +0.002 A 
ATOM     21  C   UNL     1      13.817  14.695  25.312  0.00  0.00    +0.000 A 
ENDBRANCH   6  16
ENDBRANCH  11   5
BRANCH  11   9
ATOM      1  O   UNL     1      10.893   8.651  20.047  0.00  0.00    -0.371 OA
ATOM      7  C   UNL     1      12.444   6.901  19.631  0.00  0.00    +0.111 C 
ATOM      8  C   UNL     1      12.124   6.935  21.114  0.00  0.00    +0.164 C 
ATOM      9  C   UNL     1      10.800   7.687  21.111  0.00  0.00    +0.165 C 
ATOM     10  C   UNL     1      11.990   8.284  19.193  0.00  0.00    +0.181 C 
BRANCH   8   2
ATOM      2  O   UNL     1      11.995   5.643  21.675  0.00  0.00    -0.388 OA
ATOM     23  H   UNL     1      12.587   5.041  21.194  0.00  0.00    +0.210 HD
ENDBRANCH   8   2
BRANCH   7   4
ATOM      4  N   UNL     1      13.847   6.648  19.344  0.00  0.00    -0.307 NA
ATOM     22  H   UNL     1      14.067   6.935  18.391  0.00  0.00    +0.123 HD
BRANCH   4  12
ATOM     12  C   UNL     1      14.710   7.351  20.286  0.00  0.00    +0.048 C 
ATOM     13  C   UNL     1      15.713   6.369  20.883  0.00  0.00    +0.023 C 
ATOM     14  C   UNL     1      15.422   8.507  19.590  0.00  0.00    +0.023 C 
ENDBRANCH   4  12
ENDBRANCH   7   4
ENDBRANCH  11   9
TORSDOF 6
ENDMDL
MODEL 9
REMARK VINA RESULT:      -5.5     27.171     28.987
REMARK  Name = 75536766
REMARK  8 active torsions:
REMARK  status: ('A' for Active; 'I' for Inactive)
REMARK    1  A    between atoms: O_2  and  C_8
REMARK    2  A    between atoms: N_4  and  C_7
REMARK    3  A    between atoms: N_4  and  C_12
REMARK    4  A    between atoms: N_5  and  C_11
REMARK    5  A    between atoms: N_6  and  C_16
REMARK    6  A    between atoms: C_9  and  C_11
REMARK    7  A    between atoms: C_12  and  C_13
REMARK    8  A    between atoms: C_12  and  C_14
REMARK                            x       y       z     vdW  Elec       q    Type
REMARK                         _______ _______ _______ _____ _____    ______ ____
ROOT
ATOM     11  C   UNL     1      -7.211 -11.667  19.785  0.00  0.00    +0.140 C 
ENDROOT
BRANCH  11   5
ATOM      3  O   UNL     1     -10.026 -12.068  20.131  0.00  0.00    -0.253 OA
ATOM      5  N   UNL     1      -8.254 -10.727  19.488  0.00  0.00    -0.297 N 
ATOM      6  N   UNL     1     -10.397  -9.900  19.310  0.00  0.00    -0.269 N 
ATOM     15  C   UNL     1      -9.618 -10.998  19.686  0.00  0.00    +0.304 C 
ATOM     24  H   UNL     1      -7.991  -9.826  19.104  0.00  0.00    +0.150 HD
ATOM     25  H   UNL     1      -9.899  -9.086  18.958  0.00  0.00    +0.156 HD
BRANCH   6  16
ATOM     16  C   UNL     1     -11.806  -9.779  19.357  0.00  0.00    +0.035 A 
ATOM     17  C   UNL     1     -12.467  -9.806  20.585  0.00  0.00    +0.023 A 
ATOM     18  C   UNL     1     -12.532  -9.631  18.176  0.00  0.00    +0.023 A 
ATOM     19  C   UNL     1     -13.856  -9.687  20.632  0.00  0.00    +0.002 A 
ATOM     20  C   UNL     1     -13.921  -9.511  18.223  0.00  0.00    +0.002 A 
ATOM     21  C   UNL     1     -14.583  -9.539  19.450  0.00  0.00    +0.000 A 
ENDBRANCH   6  16
ENDBRANCH  11   5
BRANCH  11   9
ATOM      1  O   UNL     1      -4.820 -11.857  20.091  0.00  0.00    -0.371 OA
ATOM      7  C   UNL     1      -4.019 -11.227  17.946  0.00  0.00    +0.111 C 
ATOM      8  C   UNL     1      -5.536 -11.224  17.927  0.00  0.00    +0.164 C 
ATOM      9  C   UNL     1      -5.847 -11.113  19.414  0.00  0.00    +0.165 C 
ATOM     10  C   UNL     1      -3.735 -12.077  19.174  0.00  0.00    +0.181 C 
BRANCH   8   2
ATOM      2  O   UNL     1      -6.072 -10.139  17.194  0.00  0.00    -0.388 OA
ATOM     23  H   UNL     1      -6.559 -10.497  16.433  0.00  0.00    +0.210 HD
ENDBRANCH   8   2
BRANCH   7   4
ATOM      4  N   UNL     1      -3.423 -11.766  16.734  0.00  0.00    -0.307 NA
ATOM     22  H   UNL     1      -4.108 -12.320  16.222  0.00  0.00    +0.123 HD
BRANCH   4  12
ATOM     12  C   UNL     1      -2.909 -10.698  15.883  0.00  0.00    +0.048 C 
ATOM     13  C   UNL     1      -1.393 -10.819  15.777  0.00  0.00    +0.023 C 
ATOM     14  C   UNL     1      -3.561 -10.761  14.505  0.00  0.00    +0.023 C 
ENDBRANCH   4  12
ENDBRANCH   7   4
ENDBRANCH  11   9
TORSDOF 6
ENDMDL
MODEL 10
REMARK VINA RESULT:      -5.3     15.980     19.703
REMARK  Name = 75536766
REMARK  8 active torsions:
REMARK  status: ('A' for Active; 'I' for Inactive)
REMARK    1  A    between atoms: O_2  and  C_8
REMARK    2  A    between atoms: N_4  and  C_7
REMARK    3  A    between atoms: N_4  and  C_12
REMARK    4  A    between atoms: N_5  and  C_11
REMARK    5  A    between atoms: N_6  and  C_16
REMARK    6  A    between atoms: C_9  and  C_11
REMARK    7  A    between atoms: C_12  and  C_13
REMARK    8  A    between atoms: C_12  and  C_14
REMARK                            x       y       z     vdW  Elec       q    Type
REMARK                         _______ _______ _______ _____ _____    ______ ____
ROOT
ATOM     11  C   UNL     1      12.684   4.821   1.884  0.00  0.00    +0.140 C 
ENDROOT
BRANCH  11   5
ATOM      3  O   UNL     1      12.076   6.621   4.027  0.00  0.00    -0.253 OA
ATOM      5  N   UNL     1      11.644   4.671   2.862  0.00  0.00    -0.297 N 
ATOM      6  N   UNL     1      10.334   5.192   4.685  0.00  0.00    -0.269 N 
ATOM     15  C   UNL     1      11.407   5.600   3.887  0.00  0.00    +0.304 C 
ATOM     24  H   UNL     1      11.059   3.842   2.816  0.00  0.00    +0.150 HD
ATOM     25  H   UNL     1       9.886   4.315   4.431  0.00  0.00    +0.156 HD
BRANCH   6  16
ATOM     16  C   UNL     1       9.789   5.851   5.812  0.00  0.00    +0.035 A 
ATOM     17  C   UNL     1       8.890   6.902   5.636  0.00  0.00    +0.023 A 
ATOM     18  C   UNL     1      10.151   5.449   7.096  0.00  0.00    +0.023 A 
ATOM     19  C   UNL     1       8.352   7.552   6.747  0.00  0.00    +0.002 A 
ATOM     20  C   UNL     1       9.614   6.098   8.207  0.00  0.00    +0.002 A 
ATOM     21  C   UNL     1       8.715   7.150   8.033  0.00  0.00    +0.000 A 
ENDBRANCH   6  16
ENDBRANCH  11   5
BRANCH  11   9
ATOM      1  O   UNL     1      13.159   5.040  -0.477  0.00  0.00    -0.371 OA
ATOM      7  C   UNL     1      11.174   4.162  -1.441  0.00  0.00    +0.111 C 
ATOM      8  C   UNL     1      11.081   4.050   0.070  0.00  0.00    +0.164 C 
ATOM      9  C   UNL     1      12.109   5.086   0.505  0.00  0.00    +0.165 C 
ATOM     10  C   UNL     1      12.670   4.347  -1.638  0.00  0.00    +0.181 C 
BRANCH   8   2
ATOM      2  O   UNL     1       9.790   4.349   0.562  0.00  0.00    -0.388 OA
ATOM     23  H   UNL     1       9.811   5.240   0.952  0.00  0.00    +0.210 HD
ENDBRANCH   8   2
BRANCH   7   4
ATOM      4  N   UNL     1      10.649   3.003  -2.144  0.00  0.00    -0.307 NA
ATOM     22  H   UNL     1      10.082   2.438  -1.514  0.00  0.00    +0.123 HD
BRANCH   4  12
ATOM     12  C   UNL     1       9.857   3.406  -3.301  0.00  0.00    +0.048 C 
ATOM     13  C   UNL     1       9.364   4.836  -3.104  0.00  0.00    +0.023 C 
ATOM     14  C   UNL     1      10.683   3.282  -4.577  0.00  0.00    +0.023 C 
ENDBRANCH   4  12
ENDBRANCH   7   4
ENDBRANCH  11   9
TORSDOF 6
ENDMDL
