MODEL 1
REMARK VINA RESULT:      -6.7      0.000      0.000
REMARK  Name = 75368640
REMARK  8 active torsions:
REMARK  status: ('A' for Active; 'I' for Inactive)
REMARK    1  A    between atoms: O_2  and  C_25
REMARK    2  A    between atoms: O_2  and  C_27
REMARK    3  A    between atoms: O_3  and  C_26
REMARK    4  A    between atoms: O_3  and  C_28
REMARK    5  A    between atoms: N_5  and  C_14
REMARK    6  A    between atoms: N_6  and  C_15
REMARK    7  A    between atoms: C_14  and  C_16
REMARK    8  A    between atoms: C_15  and  C_17
REMARK                            x       y       z     vdW  Elec       q    Type
REMARK                         _______ _______ _______ _____ _____    ______ ____
ROOT
ATOM      1  O   UNL     1      13.036   6.609  19.814  0.00  0.00    -0.252 OA
ATOM      4  N   UNL     1      15.193   7.520  19.990  0.00  0.00    -0.278 N 
ATOM      5  N   UNL     1      17.825   7.874  20.918  0.00  0.00    -0.295 NA
ATOM      6  N   UNL     1      13.454   8.930  19.829  0.00  0.00    -0.279 N 
ATOM      8  C   UNL     1      15.798   8.833  19.904  0.00  0.00    +0.109 C 
ATOM      9  C   UNL     1      16.869   8.998  20.982  0.00  0.00    +0.109 C 
ATOM     10  C   UNL     1      14.611   9.786  20.027  0.00  0.00    +0.133 C 
ATOM     11  C   UNL     1      16.045   6.352  20.084  0.00  0.00    +0.125 C 
ATOM     12  C   UNL     1      17.138   6.584  21.131  0.00  0.00    +0.104 C 
ATOM     13  C   UNL     1      13.799   7.564  19.867  0.00  0.00    +0.305 C 
ENDROOT
BRANCH   5  14
ATOM     14  C   UNL     1      18.889   8.053  21.906  0.00  0.00    +0.121 C 
BRANCH  14  16
ATOM      7  N   UNL     1      21.305   5.331  22.932  0.00  0.00    -0.221 NA
ATOM     16  C   UNL     1      19.929   6.974  21.814  0.00  0.00    -0.015 A 
ATOM     18  C   UNL     1      20.477   6.610  20.588  0.00  0.00    +0.011 A 
ATOM     21  C   UNL     1      20.373   6.311  22.946  0.00  0.00    +0.119 A 
ATOM     24  C   UNL     1      21.439   5.606  20.534  0.00  0.00    +0.067 A 
ATOM     26  C   UNL     1      21.815   5.004  21.723  0.00  0.00    +0.214 A 
BRANCH  26   3
ATOM      3  O   UNL     1      22.761   4.012  21.695  0.00  0.00    -0.480 OA
ATOM     28  C   UNL     1      23.808   4.155  20.743  0.00  0.00    +0.279 C 
ENDBRANCH  26   3
ENDBRANCH  14  16
ENDBRANCH   5  14
BRANCH   6  15
ATOM     15  C   UNL     1      12.110   9.461  19.760  0.00  0.00    +0.144 C 
BRANCH  15  17
ATOM     17  C   UNL     1      11.680  10.073  21.061  0.00  0.00    -0.030 A 
ATOM     19  C   UNL     1      11.270   9.255  22.115  0.00  0.00    +0.009 A 
ATOM     20  C   UNL     1      11.691  11.459  21.219  0.00  0.00    +0.009 A 
ATOM     22  C   UNL     1      10.871   9.825  23.324  0.00  0.00    +0.046 A 
ATOM     23  C   UNL     1      11.292  12.028  22.427  0.00  0.00    +0.046 A 
ATOM     25  C   UNL     1      10.881  11.210  23.480  0.00  0.00    +0.120 A 
BRANCH  25   2
ATOM      2  O   UNL     1      10.491  11.765  24.660  0.00  0.00    -0.495 OA
ATOM     27  C   UNL     1      10.649  13.177  24.797  0.00  0.00    +0.277 C 
ENDBRANCH  25   2
ENDBRANCH  15  17
ENDBRANCH   6  15
TORSDOF 6
ENDMDL
MODEL 2
REMARK VINA RESULT:      -6.4     28.660     32.657
REMARK  Name = 75368640
REMARK  8 active torsions:
REMARK  status: ('A' for Active; 'I' for Inactive)
REMARK    1  A    between atoms: O_2  and  C_25
REMARK    2  A    between atoms: O_2  and  C_27
REMARK    3  A    between atoms: O_3  and  C_26
REMARK    4  A    between atoms: O_3  and  C_28
REMARK    5  A    between atoms: N_5  and  C_14
REMARK    6  A    between atoms: N_6  and  C_15
REMARK    7  A    between atoms: C_14  and  C_16
REMARK    8  A    between atoms: C_15  and  C_17
REMARK                            x       y       z     vdW  Elec       q    Type
REMARK                         _______ _______ _______ _____ _____    ______ ____
ROOT
ATOM      1  O   UNL     1     -16.989   1.981  22.640  0.00  0.00    -0.252 OA
ATOM      4  N   UNL     1     -16.521   2.387  24.906  0.00  0.00    -0.278 N 
ATOM      5  N   UNL     1     -16.791   2.273  27.703  0.00  0.00    -0.295 NA
ATOM      6  N   UNL     1     -16.423   4.113  23.473  0.00  0.00    -0.279 N 
ATOM      8  C   UNL     1     -16.034   3.493  25.704  0.00  0.00    +0.109 C 
ATOM      9  C   UNL     1     -16.809   3.582  27.018  0.00  0.00    +0.109 C 
ATOM     10  C   UNL     1     -16.192   4.700  24.782  0.00  0.00    +0.133 C 
ATOM     11  C   UNL     1     -16.683   1.086  25.522  0.00  0.00    +0.125 C 
ATOM     12  C   UNL     1     -17.410   1.229  26.862  0.00  0.00    +0.104 C 
ATOM     13  C   UNL     1     -16.680   2.730  23.557  0.00  0.00    +0.305 C 
ENDROOT
BRANCH   5  14
ATOM     14  C   UNL     1     -17.478   2.363  28.991  0.00  0.00    +0.121 C 
BRANCH  14  16
ATOM      7  N   UNL     1     -14.426   2.510  31.219  0.00  0.00    -0.221 NA
ATOM     16  C   UNL     1     -16.549   2.778  30.096  0.00  0.00    -0.015 A 
ATOM     18  C   UNL     1     -16.910   3.771  31.000  0.00  0.00    +0.011 A 
ATOM     21  C   UNL     1     -15.308   2.183  30.247  0.00  0.00    +0.119 A 
ATOM     24  C   UNL     1     -16.029   4.134  32.013  0.00  0.00    +0.067 A 
ATOM     26  C   UNL     1     -14.811   3.479  32.078  0.00  0.00    +0.214 A 
BRANCH  26   3
ATOM      3  O   UNL     1     -13.925   3.819  33.068  0.00  0.00    -0.480 OA
ATOM     28  C   UNL     1     -14.463   4.487  34.204  0.00  0.00    +0.279 C 
ENDBRANCH  26   3
ENDBRANCH  14  16
ENDBRANCH   5  14
BRANCH   6  15
ATOM     15  C   UNL     1     -16.520   4.920  22.277  0.00  0.00    +0.144 C 
BRANCH  15  17
ATOM     17  C   UNL     1     -15.194   5.498  21.880  0.00  0.00    -0.030 A 
ATOM     19  C   UNL     1     -15.142   6.647  21.088  0.00  0.00    +0.009 A 
ATOM     20  C   UNL     1     -14.012   4.889  22.301  0.00  0.00    +0.009 A 
ATOM     22  C   UNL     1     -13.908   7.183  20.719  0.00  0.00    +0.046 A 
ATOM     23  C   UNL     1     -12.779   5.425  21.932  0.00  0.00    +0.046 A 
ATOM     25  C   UNL     1     -12.728   6.573  21.140  0.00  0.00    +0.120 A 
BRANCH  25   2
ATOM      2  O   UNL     1     -11.524   7.097  20.779  0.00  0.00    -0.495 OA
ATOM     27  C   UNL     1     -11.466   7.786  19.530  0.00  0.00    +0.277 C 
ENDBRANCH  25   2
ENDBRANCH  15  17
ENDBRANCH   6  15
TORSDOF 6
ENDMDL
MODEL 3
REMARK VINA RESULT:      -6.3     27.289     31.875
REMARK  Name = 75368640
REMARK  8 active torsions:
REMARK  status: ('A' for Active; 'I' for Inactive)
REMARK    1  A    between atoms: O_2  and  C_25
REMARK    2  A    between atoms: O_2  and  C_27
REMARK    3  A    between atoms: O_3  and  C_26
REMARK    4  A    between atoms: O_3  and  C_28
REMARK    5  A    between atoms: N_5  and  C_14
REMARK    6  A    between atoms: N_6  and  C_15
REMARK    7  A    between atoms: C_14  and  C_16
REMARK    8  A    between atoms: C_15  and  C_17
REMARK                            x       y       z     vdW  Elec       q    Type
REMARK                         _______ _______ _______ _____ _____    ______ ____
ROOT
ATOM      1  O   UNL     1     -18.437   5.070  26.191  0.00  0.00    -0.252 OA
ATOM      4  N   UNL     1     -16.709   5.401  24.635  0.00  0.00    -0.278 N 
ATOM      5  N   UNL     1     -15.438   6.180  22.250  0.00  0.00    -0.295 NA
ATOM      6  N   UNL     1     -16.807   3.434  25.714  0.00  0.00    -0.279 N 
ATOM      8  C   UNL     1     -15.517   4.695  24.211  0.00  0.00    +0.109 C 
ATOM      9  C   UNL     1     -15.366   4.773  22.692  0.00  0.00    +0.109 C 
ATOM     10  C   UNL     1     -15.716   3.286  24.766  0.00  0.00    +0.133 C 
ATOM     11  C   UNL     1     -16.954   6.740  24.139  0.00  0.00    +0.125 C 
ATOM     12  C   UNL     1     -16.732   6.785  22.625  0.00  0.00    +0.104 C 
ATOM     13  C   UNL     1     -17.442   4.686  25.592  0.00  0.00    +0.305 C 
ENDROOT
BRANCH   5  14
ATOM     14  C   UNL     1     -15.233   6.271  20.805  0.00  0.00    +0.121 C 
BRANCH  14  16
ATOM      7  N   UNL     1     -12.757   8.575  19.112  0.00  0.00    -0.221 NA
ATOM     16  C   UNL     1     -13.942   6.957  20.462  0.00  0.00    -0.015 A 
ATOM     18  C   UNL     1     -12.764   6.644  21.133  0.00  0.00    +0.011 A 
ATOM     21  C   UNL     1     -13.886   7.920  19.469  0.00  0.00    +0.119 A 
ATOM     24  C   UNL     1     -11.584   7.297  20.794  0.00  0.00    +0.067 A 
ATOM     26  C   UNL     1     -11.633   8.245  19.786  0.00  0.00    +0.214 A 
BRANCH  26   3
ATOM      3  O   UNL     1     -10.482   8.901  19.434  0.00  0.00    -0.480 OA
ATOM     28  C   UNL     1     -10.318   9.207  18.055  0.00  0.00    +0.279 C 
ENDBRANCH  26   3
ENDBRANCH  14  16
ENDBRANCH   5  14
BRANCH   6  15
ATOM     15  C   UNL     1     -17.248   2.341  26.552  0.00  0.00    +0.144 C 
BRANCH  15  17
ATOM     17  C   UNL     1     -16.397   2.196  27.780  0.00  0.00    -0.030 A 
ATOM     19  C   UNL     1     -16.217   0.940  28.360  0.00  0.00    +0.009 A 
ATOM     20  C   UNL     1     -15.785   3.317  28.342  0.00  0.00    +0.009 A 
ATOM     22  C   UNL     1     -15.427   0.806  29.501  0.00  0.00    +0.046 A 
ATOM     23  C   UNL     1     -14.994   3.182  29.482  0.00  0.00    +0.046 A 
ATOM     25  C   UNL     1     -14.815   1.926  30.062  0.00  0.00    +0.120 A 
BRANCH  25   2
ATOM      2  O   UNL     1     -14.044   1.795  31.176  0.00  0.00    -0.495 OA
ATOM     27  C   UNL     1     -14.712   1.454  32.391  0.00  0.00    +0.277 C 
ENDBRANCH  25   2
ENDBRANCH  15  17
ENDBRANCH   6  15
TORSDOF 6
ENDMDL
MODEL 4
REMARK VINA RESULT:      -6.3      3.145      4.710
REMARK  Name = 75368640
REMARK  8 active torsions:
REMARK  status: ('A' for Active; 'I' for Inactive)
REMARK    1  A    between atoms: O_2  and  C_25
REMARK    2  A    between atoms: O_2  and  C_27
REMARK    3  A    between atoms: O_3  and  C_26
REMARK    4  A    between atoms: O_3  and  C_28
REMARK    5  A    between atoms: N_5  and  C_14
REMARK    6  A    between atoms: N_6  and  C_15
REMARK    7  A    between atoms: C_14  and  C_16
REMARK    8  A    between atoms: C_15  and  C_17
REMARK                            x       y       z     vdW  Elec       q    Type
REMARK                         _______ _______ _______ _____ _____    ______ ____
ROOT
ATOM      1  O   UNL     1      15.341   9.930  20.995  0.00  0.00    -0.252 OA
ATOM      4  N   UNL     1      16.886   8.174  21.213  0.00  0.00    -0.278 N 
ATOM      5  N   UNL     1      19.358   6.833  21.168  0.00  0.00    -0.295 NA
ATOM      6  N   UNL     1      14.924   7.746  20.209  0.00  0.00    -0.279 N 
ATOM      8  C   UNL     1      16.906   6.746  20.974  0.00  0.00    +0.109 C 
ATOM      9  C   UNL     1      18.237   6.330  20.348  0.00  0.00    +0.109 C 
ATOM     10  C   UNL     1      15.681   6.511  20.093  0.00  0.00    +0.133 C 
ATOM     11  C   UNL     1      18.011   8.797  21.881  0.00  0.00    +0.125 C 
ATOM     12  C   UNL     1      19.323   8.306  21.263  0.00  0.00    +0.104 C 
ATOM     13  C   UNL     1      15.674   8.764  20.831  0.00  0.00    +0.305 C 
ENDROOT
BRANCH   5  14
ATOM     14  C   UNL     1      20.635   6.389  20.611  0.00  0.00    +0.121 C 
BRANCH  14  16
ATOM      7  N   UNL     1      22.189   4.649  23.588  0.00  0.00    -0.221 NA
ATOM     16  C   UNL     1      21.276   5.323  21.454  0.00  0.00    -0.015 A 
ATOM     18  C   UNL     1      21.551   4.064  20.930  0.00  0.00    +0.011 A 
ATOM     21  C   UNL     1      21.612   5.563  22.776  0.00  0.00    +0.119 A 
ATOM     24  C   UNL     1      22.144   3.098  21.735  0.00  0.00    +0.067 A 
ATOM     26  C   UNL     1      22.441   3.437  23.045  0.00  0.00    +0.214 A 
BRANCH  26   3
ATOM      3  O   UNL     1      23.027   2.501  23.857  0.00  0.00    -0.480 OA
ATOM     28  C   UNL     1      22.820   2.651  25.257  0.00  0.00    +0.279 C 
ENDBRANCH  26   3
ENDBRANCH  14  16
ENDBRANCH   5  14
BRANCH   6  15
ATOM     15  C   UNL     1      13.619   7.905  19.605  0.00  0.00    +0.144 C 
BRANCH  15  17
ATOM     17  C   UNL     1      13.693   8.618  18.287  0.00  0.00    -0.030 A 
ATOM     19  C   UNL     1      14.050   7.918  17.134  0.00  0.00    +0.009 A 
ATOM     20  C   UNL     1      13.406   9.981  18.213  0.00  0.00    +0.009 A 
ATOM     22  C   UNL     1      14.119   8.581  15.909  0.00  0.00    +0.046 A 
ATOM     23  C   UNL     1      13.474  10.644  16.988  0.00  0.00    +0.046 A 
ATOM     25  C   UNL     1      13.832   9.943  15.836  0.00  0.00    +0.120 A 
BRANCH  25   2
ATOM      2  O   UNL     1      13.900  10.590  14.640  0.00  0.00    -0.495 OA
ATOM     27  C   UNL     1      14.240  11.976  14.671  0.00  0.00    +0.277 C 
ENDBRANCH  25   2
ENDBRANCH  15  17
ENDBRANCH   6  15
TORSDOF 6
ENDMDL
MODEL 5
REMARK VINA RESULT:      -6.3     28.033     32.046
REMARK  Name = 75368640
REMARK  8 active torsions:
REMARK  status: ('A' for Active; 'I' for Inactive)
REMARK    1  A    between atoms: O_2  and  C_25
REMARK    2  A    between atoms: O_2  and  C_27
REMARK    3  A    between atoms: O_3  and  C_26
REMARK    4  A    between atoms: O_3  and  C_28
REMARK    5  A    between atoms: N_5  and  C_14
REMARK    6  A    between atoms: N_6  and  C_15
REMARK    7  A    between atoms: C_14  and  C_16
REMARK    8  A    between atoms: C_15  and  C_17
REMARK                            x       y       z     vdW  Elec       q    Type
REMARK                         _______ _______ _______ _____ _____    ______ ____
ROOT
ATOM      1  O   UNL     1     -16.725   4.816  20.506  0.00  0.00    -0.252 OA
ATOM      4  N   UNL     1     -16.321   4.314  22.765  0.00  0.00    -0.278 N 
ATOM      5  N   UNL     1     -16.771   3.298  25.349  0.00  0.00    -0.295 NA
ATOM      6  N   UNL     1     -15.814   6.373  22.026  0.00  0.00    -0.279 N 
ATOM      8  C   UNL     1     -15.681   4.957  23.894  0.00  0.00    +0.109 C 
ATOM      9  C   UNL     1     -16.500   4.739  25.165  0.00  0.00    +0.109 C 
ATOM     10  C   UNL     1     -15.553   6.414  23.454  0.00  0.00    +0.133 C 
ATOM     11  C   UNL     1     -16.764   2.940  22.890  0.00  0.00    +0.125 C 
ATOM     12  C   UNL     1     -17.527   2.753  24.204  0.00  0.00    +0.104 C 
ATOM     13  C   UNL     1     -16.333   5.126  21.623  0.00  0.00    +0.305 C 
ENDROOT
BRANCH   5  14
ATOM     14  C   UNL     1     -17.502   3.073  26.595  0.00  0.00    +0.121 C 
BRANCH  14  16
ATOM      7  N   UNL     1     -15.760   0.594  28.858  0.00  0.00    -0.221 NA
ATOM     16  C   UNL     1     -16.617   2.519  27.675  0.00  0.00    -0.015 A 
ATOM     18  C   UNL     1     -15.852   3.361  28.476  0.00  0.00    +0.011 A 
ATOM     21  C   UNL     1     -16.537   1.156  27.905  0.00  0.00    +0.119 A 
ATOM     24  C   UNL     1     -15.041   2.819  29.467  0.00  0.00    +0.067 A 
ATOM     26  C   UNL     1     -15.031   1.442  29.616  0.00  0.00    +0.214 A 
BRANCH  26   3
ATOM      3  O   UNL     1     -14.239   0.885  30.587  0.00  0.00    -0.480 OA
ATOM     28  C   UNL     1     -13.870   1.728  31.672  0.00  0.00    +0.279 C 
ENDBRANCH  26   3
ENDBRANCH  14  16
ENDBRANCH   5  14
BRANCH   6  15
ATOM     15  C   UNL     1     -15.686   7.545  21.188  0.00  0.00    +0.144 C 
BRANCH  15  17
ATOM     17  C   UNL     1     -14.408   7.538  20.403  0.00  0.00    -0.030 A 
ATOM     19  C   UNL     1     -14.405   7.954  19.071  0.00  0.00    +0.009 A 
ATOM     20  C   UNL     1     -13.222   7.116  21.004  0.00  0.00    +0.009 A 
ATOM     22  C   UNL     1     -13.216   7.947  18.342  0.00  0.00    +0.046 A 
ATOM     23  C   UNL     1     -12.033   7.110  20.274  0.00  0.00    +0.046 A 
ATOM     25  C   UNL     1     -12.031   7.525  18.943  0.00  0.00    +0.120 A 
BRANCH  25   2
ATOM      2  O   UNL     1     -10.871   7.518  18.230  0.00  0.00    -0.495 OA
ATOM     27  C   UNL     1     -10.542   8.708  17.514  0.00  0.00    +0.277 C 
ENDBRANCH  25   2
ENDBRANCH  15  17
ENDBRANCH   6  15
TORSDOF 6
ENDMDL
MODEL 6
REMARK VINA RESULT:      -6.2      1.988      3.188
REMARK  Name = 75368640
REMARK  8 active torsions:
REMARK  status: ('A' for Active; 'I' for Inactive)
REMARK    1  A    between atoms: O_2  and  C_25
REMARK    2  A    between atoms: O_2  and  C_27
REMARK    3  A    between atoms: O_3  and  C_26
REMARK    4  A    between atoms: O_3  and  C_28
REMARK    5  A    between atoms: N_5  and  C_14
REMARK    6  A    between atoms: N_6  and  C_15
REMARK    7  A    between atoms: C_14  and  C_16
REMARK    8  A    between atoms: C_15  and  C_17
REMARK                            x       y       z     vdW  Elec       q    Type
REMARK                         _______ _______ _______ _____ _____    ______ ____
ROOT
ATOM      1  O   UNL     1      16.548   9.895  20.628  0.00  0.00    -0.252 OA
ATOM      4  N   UNL     1      17.755   7.904  20.939  0.00  0.00    -0.278 N 
ATOM      5  N   UNL     1      19.958   6.158  21.038  0.00  0.00    -0.295 NA
ATOM      6  N   UNL     1      15.807   7.805  19.825  0.00  0.00    -0.279 N 
ATOM      8  C   UNL     1      17.542   6.491  20.704  0.00  0.00    +0.109 C 
ATOM      9  C   UNL     1      18.815   5.845  20.157  0.00  0.00    +0.109 C 
ATOM     10  C   UNL     1      16.346   6.458  19.756  0.00  0.00    +0.133 C 
ATOM     11  C   UNL     1      18.931   8.332  21.668  0.00  0.00    +0.125 C 
ATOM     12  C   UNL     1      20.171   7.617  21.127  0.00  0.00    +0.104 C 
ATOM     13  C   UNL     1      16.685   8.688  20.486  0.00  0.00    +0.305 C 
ENDROOT
BRANCH   5  14
ATOM     14  C   UNL     1      21.169   5.495  20.556  0.00  0.00    +0.121 C 
BRANCH  14  16
ATOM      7  N   UNL     1      22.338   4.262  23.935  0.00  0.00    -0.221 NA
ATOM     16  C   UNL     1      21.787   4.620  21.609  0.00  0.00    -0.015 A 
ATOM     18  C   UNL     1      22.368   3.400  21.276  0.00  0.00    +0.011 A 
ATOM     21  C   UNL     1      21.798   5.002  22.940  0.00  0.00    +0.119 A 
ATOM     24  C   UNL     1      22.932   2.611  22.273  0.00  0.00    +0.067 A 
ATOM     26  C   UNL     1      22.892   3.083  23.574  0.00  0.00    +0.214 A 
BRANCH  26   3
ATOM      3  O   UNL     1      23.442   2.323  24.574  0.00  0.00    -0.480 OA
ATOM     28  C   UNL     1      22.561   1.454  25.275  0.00  0.00    +0.279 C 
ENDBRANCH  26   3
ENDBRANCH  14  16
ENDBRANCH   5  14
BRANCH   6  15
ATOM     15  C   UNL     1      14.585   8.179  19.148  0.00  0.00    +0.144 C 
BRANCH  15  17
ATOM     17  C   UNL     1      13.517   8.606  20.111  0.00  0.00    -0.030 A 
ATOM     19  C   UNL     1      13.007   7.695  21.038  0.00  0.00    +0.009 A 
ATOM     20  C   UNL     1      13.032   9.914  20.082  0.00  0.00    +0.009 A 
ATOM     22  C   UNL     1      12.014   8.093  21.933  0.00  0.00    +0.046 A 
ATOM     23  C   UNL     1      12.040  10.312  20.977  0.00  0.00    +0.046 A 
ATOM     25  C   UNL     1      11.531   9.401  21.902  0.00  0.00    +0.120 A 
BRANCH  25   2
ATOM      2  O   UNL     1      10.561   9.788  22.775  0.00  0.00    -0.495 OA
ATOM     27  C   UNL     1      10.812  10.966  23.542  0.00  0.00    +0.277 C 
ENDBRANCH  25   2
ENDBRANCH  15  17
ENDBRANCH   6  15
TORSDOF 6
ENDMDL
MODEL 7
REMARK VINA RESULT:      -6.2     28.504     31.120
REMARK  Name = 75368640
REMARK  8 active torsions:
REMARK  status: ('A' for Active; 'I' for Inactive)
REMARK    1  A    between atoms: O_2  and  C_25
REMARK    2  A    between atoms: O_2  and  C_27
REMARK    3  A    between atoms: O_3  and  C_26
REMARK    4  A    between atoms: O_3  and  C_28
REMARK    5  A    between atoms: N_5  and  C_14
REMARK    6  A    between atoms: N_6  and  C_15
REMARK    7  A    between atoms: C_14  and  C_16
REMARK    8  A    between atoms: C_15  and  C_17
REMARK                            x       y       z     vdW  Elec       q    Type
REMARK                         _______ _______ _______ _____ _____    ______ ____
ROOT
ATOM      1  O   UNL     1     -12.703  -8.354  13.555  0.00  0.00    -0.252 OA
ATOM      4  N   UNL     1     -10.769  -8.219  14.881  0.00  0.00    -0.278 N 
ATOM      5  N   UNL     1      -8.678  -9.056  16.567  0.00  0.00    -0.295 NA
ATOM      6  N   UNL     1     -12.319  -6.609  15.094  0.00  0.00    -0.279 N 
ATOM      8  C   UNL     1     -10.175  -7.262  15.792  0.00  0.00    +0.109 C 
ATOM      9  C   UNL     1      -9.588  -7.979  17.008  0.00  0.00    +0.109 C 
ATOM     10  C   UNL     1     -11.320  -6.302  16.103  0.00  0.00    +0.133 C 
ATOM     11  C   UNL     1     -10.015  -9.396  14.499  0.00  0.00    +0.125 C 
ATOM     12  C   UNL     1      -9.396 -10.047  15.739  0.00  0.00    +0.104 C 
ATOM     13  C   UNL     1     -12.015  -7.797  14.400  0.00  0.00    +0.305 C 
ENDROOT
BRANCH   5  14
ATOM     14  C   UNL     1      -8.065  -9.709  17.723  0.00  0.00    +0.121 C 
BRANCH  14  16
ATOM      7  N   UNL     1      -4.702  -9.977  16.013  0.00  0.00    -0.221 NA
ATOM     16  C   UNL     1      -6.632 -10.078  17.465  0.00  0.00    -0.015 A 
ATOM     18  C   UNL     1      -5.910 -10.833  18.384  0.00  0.00    +0.011 A 
ATOM     21  C   UNL     1      -5.989  -9.679  16.305  0.00  0.00    +0.119 A 
ATOM     24  C   UNL     1      -4.585 -11.159  18.117  0.00  0.00    +0.067 A 
ATOM     26  C   UNL     1      -4.033 -10.712  16.928  0.00  0.00    +0.214 A 
BRANCH  26   3
ATOM      3  O   UNL     1      -2.728 -11.021  16.644  0.00  0.00    -0.480 OA
ATOM     28  C   UNL     1      -2.291 -10.783  15.311  0.00  0.00    +0.279 C 
ENDBRANCH  26   3
ENDBRANCH  14  16
ENDBRANCH   5  14
BRANCH   6  15
ATOM     15  C   UNL     1     -13.538  -5.841  14.962  0.00  0.00    +0.144 C 
BRANCH  15  17
ATOM     17  C   UNL     1     -13.592  -5.092  13.663  0.00  0.00    -0.030 A 
ATOM     19  C   UNL     1     -14.755  -5.118  12.891  0.00  0.00    +0.009 A 
ATOM     20  C   UNL     1     -12.482  -4.370  13.226  0.00  0.00    +0.009 A 
ATOM     22  C   UNL     1     -14.805  -4.422  11.683  0.00  0.00    +0.046 A 
ATOM     23  C   UNL     1     -12.533  -3.673  12.019  0.00  0.00    +0.046 A 
ATOM     25  C   UNL     1     -13.694  -3.700  11.247  0.00  0.00    +0.120 A 
BRANCH  25   2
ATOM      2  O   UNL     1     -13.744  -3.022  10.068  0.00  0.00    -0.495 OA
ATOM     27  C   UNL     1     -13.347  -3.731   8.895  0.00  0.00    +0.277 C 
ENDBRANCH  25   2
ENDBRANCH  15  17
ENDBRANCH   6  15
TORSDOF 6
ENDMDL
MODEL 8
REMARK VINA RESULT:      -6.2      1.802      2.214
REMARK  Name = 75368640
REMARK  8 active torsions:
REMARK  status: ('A' for Active; 'I' for Inactive)
REMARK    1  A    between atoms: O_2  and  C_25
REMARK    2  A    between atoms: O_2  and  C_27
REMARK    3  A    between atoms: O_3  and  C_26
REMARK    4  A    between atoms: O_3  and  C_28
REMARK    5  A    between atoms: N_5  and  C_14
REMARK    6  A    between atoms: N_6  and  C_15
REMARK    7  A    between atoms: C_14  and  C_16
REMARK    8  A    between atoms: C_15  and  C_17
REMARK                            x       y       z     vdW  Elec       q    Type
REMARK                         _______ _______ _______ _____ _____    ______ ____
ROOT
ATOM      1  O   UNL     1      12.847   6.856  19.776  0.00  0.00    -0.252 OA
ATOM      4  N   UNL     1      15.082   7.561  19.942  0.00  0.00    -0.278 N 
ATOM      5  N   UNL     1      17.733   7.683  20.873  0.00  0.00    -0.295 NA
ATOM      6  N   UNL     1      13.485   9.127  19.742  0.00  0.00    -0.279 N 
ATOM      8  C   UNL     1      15.809   8.808  19.829  0.00  0.00    +0.109 C 
ATOM      9  C   UNL     1      16.888   8.894  20.908  0.00  0.00    +0.109 C 
ATOM     10  C   UNL     1      14.718   9.872  19.925  0.00  0.00    +0.133 C 
ATOM     11  C   UNL     1      15.818   6.319  20.065  0.00  0.00    +0.125 C 
ATOM     12  C   UNL     1      16.926   6.469  21.111  0.00  0.00    +0.104 C 
ATOM     13  C   UNL     1      13.698   7.735  19.812  0.00  0.00    +0.305 C 
ENDROOT
BRANCH   5  14
ATOM     14  C   UNL     1      18.807   7.782  21.861  0.00  0.00    +0.121 C 
BRANCH  14  16
ATOM      7  N   UNL     1      22.114   7.442  20.059  0.00  0.00    -0.221 NA
ATOM     16  C   UNL     1      20.120   8.146  21.229  0.00  0.00    -0.015 A 
ATOM     18  C   UNL     1      20.568   9.463  21.216  0.00  0.00    +0.011 A 
ATOM     21  C   UNL     1      20.923   7.182  20.644  0.00  0.00    +0.119 A 
ATOM     24  C   UNL     1      21.789   9.769  20.623  0.00  0.00    +0.067 A 
ATOM     26  C   UNL     1      22.517   8.732  20.065  0.00  0.00    +0.214 A 
BRANCH  26   3
ATOM      3  O   UNL     1      23.723   9.010  19.475  0.00  0.00    -0.480 OA
ATOM     28  C   UNL     1      24.794   8.119  19.762  0.00  0.00    +0.279 C 
ENDBRANCH  26   3
ENDBRANCH  14  16
ENDBRANCH   5  14
BRANCH   6  15
ATOM     15  C   UNL     1      12.198   9.781  19.655  0.00  0.00    +0.144 C 
BRANCH  15  17
ATOM     17  C   UNL     1      11.734  10.287  20.989  0.00  0.00    -0.030 A 
ATOM     19  C   UNL     1      11.718  11.658  21.249  0.00  0.00    +0.009 A 
ATOM     20  C   UNL     1      11.319   9.387  21.972  0.00  0.00    +0.009 A 
ATOM     22  C   UNL     1      11.287  12.127  22.490  0.00  0.00    +0.046 A 
ATOM     23  C   UNL     1      10.888   9.857  23.212  0.00  0.00    +0.046 A 
ATOM     25  C   UNL     1      10.872  11.227  23.471  0.00  0.00    +0.120 A 
BRANCH  25   2
ATOM      2  O   UNL     1      10.452  11.686  24.682  0.00  0.00    -0.495 OA
ATOM     27  C   UNL     1      10.601  13.083  24.933  0.00  0.00    +0.277 C 
ENDBRANCH  25   2
ENDBRANCH  15  17
ENDBRANCH   6  15
TORSDOF 6
ENDMDL
MODEL 9
REMARK VINA RESULT:      -6.1     31.611     33.281
REMARK  Name = 75368640
REMARK  8 active torsions:
REMARK  status: ('A' for Active; 'I' for Inactive)
REMARK    1  A    between atoms: O_2  and  C_25
REMARK    2  A    between atoms: O_2  and  C_27
REMARK    3  A    between atoms: O_3  and  C_26
REMARK    4  A    between atoms: O_3  and  C_28
REMARK    5  A    between atoms: N_5  and  C_14
REMARK    6  A    between atoms: N_6  and  C_15
REMARK    7  A    between atoms: C_14  and  C_16
REMARK    8  A    between atoms: C_15  and  C_17
REMARK                            x       y       z     vdW  Elec       q    Type
REMARK                         _______ _______ _______ _____ _____    ______ ____
ROOT
ATOM      1  O   UNL     1     -15.069  -0.162  29.089  0.00  0.00    -0.252 OA
ATOM      4  N   UNL     1     -14.943   1.819  30.346  0.00  0.00    -0.278 N 
ATOM      5  N   UNL     1     -14.703   3.489  32.596  0.00  0.00    -0.295 NA
ATOM      6  N   UNL     1     -16.507   1.675  28.741  0.00  0.00    -0.279 N 
ATOM      8  C   UNL     1     -15.553   3.132  30.314  0.00  0.00    +0.109 C 
ATOM      9  C   UNL     1     -15.895   3.594  31.731  0.00  0.00    +0.109 C 
ATOM     10  C   UNL     1     -16.755   2.950  29.390  0.00  0.00    +0.133 C 
ATOM     11  C   UNL     1     -13.858   1.564  31.270  0.00  0.00    +0.125 C 
ATOM     12  C   UNL     1     -14.218   2.095  32.660  0.00  0.00    +0.104 C 
ATOM     13  C   UNL     1     -15.454   0.969  29.356  0.00  0.00    +0.305 C 
ENDROOT
BRANCH   5  14
ATOM     14  C   UNL     1     -15.003   3.985  33.939  0.00  0.00    +0.121 C 
BRANCH  14  16
ATOM      7  N   UNL     1     -13.176   6.718  35.809  0.00  0.00    -0.221 NA
ATOM     16  C   UNL     1     -14.310   5.286  34.225  0.00  0.00    -0.015 A 
ATOM     18  C   UNL     1     -14.150   6.247  33.232  0.00  0.00    +0.011 A 
ATOM     21  C   UNL     1     -13.810   5.568  35.486  0.00  0.00    +0.119 A 
ATOM     24  C   UNL     1     -13.503   7.442  33.526  0.00  0.00    +0.067 A 
ATOM     26  C   UNL     1     -13.039   7.627  34.818  0.00  0.00    +0.214 A 
BRANCH  26   3
ATOM      3  O   UNL     1     -12.398   8.797  35.133  0.00  0.00    -0.480 OA
ATOM     28  C   UNL     1     -12.324   9.780  34.107  0.00  0.00    +0.279 C 
ENDBRANCH  26   3
ENDBRANCH  14  16
ENDBRANCH   5  14
BRANCH   6  15
ATOM     15  C   UNL     1     -17.365   1.168  27.693  0.00  0.00    +0.144 C 
BRANCH  15  17
ATOM     17  C   UNL     1     -17.067   1.802  26.366  0.00  0.00    -0.030 A 
ATOM     19  C   UNL     1     -17.731   1.367  25.219  0.00  0.00    +0.009 A 
ATOM     20  C   UNL     1     -16.125   2.828  26.278  0.00  0.00    +0.009 A 
ATOM     22  C   UNL     1     -17.453   1.957  23.986  0.00  0.00    +0.046 A 
ATOM     23  C   UNL     1     -15.847   3.418  25.046  0.00  0.00    +0.046 A 
ATOM     25  C   UNL     1     -16.511   2.982  23.899  0.00  0.00    +0.120 A 
BRANCH  25   2
ATOM      2  O   UNL     1     -16.239   3.557  22.696  0.00  0.00    -0.495 OA
ATOM     27  C   UNL     1     -15.385   4.700  22.701  0.00  0.00    +0.277 C 
ENDBRANCH  25   2
ENDBRANCH  15  17
ENDBRANCH   6  15
TORSDOF 6
ENDMDL
MODEL 10
REMARK VINA RESULT:      -6.1      2.204      8.912
REMARK  Name = 75368640
REMARK  8 active torsions:
REMARK  status: ('A' for Active; 'I' for Inactive)
REMARK    1  A    between atoms: O_2  and  C_25
REMARK    2  A    between atoms: O_2  and  C_27
REMARK    3  A    between atoms: O_3  and  C_26
REMARK    4  A    between atoms: O_3  and  C_28
REMARK    5  A    between atoms: N_5  and  C_14
REMARK    6  A    between atoms: N_6  and  C_15
REMARK    7  A    between atoms: C_14  and  C_16
REMARK    8  A    between atoms: C_15  and  C_17
REMARK                            x       y       z     vdW  Elec       q    Type
REMARK                         _______ _______ _______ _____ _____    ______ ____
ROOT
ATOM      1  O   UNL     1      16.563   5.571  18.541  0.00  0.00    -0.252 OA
ATOM      4  N   UNL     1      15.203   7.061  19.743  0.00  0.00    -0.278 N 
ATOM      5  N   UNL     1      13.320   9.096  20.219  0.00  0.00    -0.295 NA
ATOM      6  N   UNL     1      17.335   6.802  20.399  0.00  0.00    -0.279 N 
ATOM      8  C   UNL     1      15.307   7.845  20.957  0.00  0.00    +0.109 C 
ATOM      9  C   UNL     1      14.692   9.229  20.751  0.00  0.00    +0.109 C 
ATOM     10  C   UNL     1      16.804   7.845  21.259  0.00  0.00    +0.133 C 
ATOM     11  C   UNL     1      13.931   6.986  19.055  0.00  0.00    +0.125 C 
ATOM     12  C   UNL     1      13.323   8.386  18.924  0.00  0.00    +0.104 C 
ATOM     13  C   UNL     1      16.387   6.373  19.448  0.00  0.00    +0.305 C 
ENDROOT
BRANCH   5  14
ATOM     14  C   UNL     1      12.701  10.413  20.075  0.00  0.00    +0.121 C 
BRANCH  14  16
ATOM      7  N   UNL     1      10.951  10.326  23.427  0.00  0.00    -0.221 NA
ATOM     16  C   UNL     1      12.066  10.878  21.354  0.00  0.00    -0.015 A 
ATOM     18  C   UNL     1      11.991  12.232  21.667  0.00  0.00    +0.011 A 
ATOM     21  C   UNL     1      11.535   9.974  22.259  0.00  0.00    +0.119 A 
ATOM     24  C   UNL     1      11.398  12.632  22.859  0.00  0.00    +0.067 A 
ATOM     26  C   UNL     1      10.898  11.649  23.696  0.00  0.00    +0.214 A 
BRANCH  26   3
ATOM      3  O   UNL     1      10.308  12.020  24.877  0.00  0.00    -0.480 OA
ATOM     28  C   UNL     1      10.653  13.301  25.389  0.00  0.00    +0.279 C 
ENDBRANCH  26   3
ENDBRANCH  14  16
ENDBRANCH   5  14
BRANCH   6  15
ATOM     15  C   UNL     1      18.722   6.396  20.452  0.00  0.00    +0.144 C 
BRANCH  15  17
ATOM     17  C   UNL     1      19.486   7.143  21.504  0.00  0.00    -0.030 A 
ATOM     19  C   UNL     1      19.771   6.531  22.726  0.00  0.00    +0.009 A 
ATOM     20  C   UNL     1      19.913   8.450  21.264  0.00  0.00    +0.009 A 
ATOM     22  C   UNL     1      20.482   7.227  23.705  0.00  0.00    +0.046 A 
ATOM     23  C   UNL     1      20.623   9.144  22.242  0.00  0.00    +0.046 A 
ATOM     25  C   UNL     1      20.907   8.532  23.463  0.00  0.00    +0.120 A 
BRANCH  25   2
ATOM      2  O   UNL     1      21.600   9.210  24.419  0.00  0.00    -0.495 OA
ATOM     27  C   UNL     1      20.837   9.845  25.445  0.00  0.00    +0.277 C 
ENDBRANCH  25   2
ENDBRANCH  15  17
ENDBRANCH   6  15
TORSDOF 6
ENDMDL
