MODEL 1
REMARK VINA RESULT:      -6.7      0.000      0.000
REMARK  Name = 7164901
REMARK  12 active torsions:
REMARK  status: ('A' for Active; 'I' for Inactive)
REMARK    1  A    between atoms: S_1  and  N_10
REMARK    2  A    between atoms: S_1  and  C_25
REMARK    3  A    between atoms: O_6  and  C_30
REMARK    4  A    between atoms: O_6  and  C_40
REMARK    5  A    between atoms: O_8  and  C_39
REMARK    6  A    between atoms: O_8  and  C_41
REMARK    7  A    between atoms: N_11  and  C_13
REMARK    8  A    between atoms: N_12  and  C_26
REMARK    9  A    between atoms: C_16  and  C_24
REMARK   10  A    between atoms: C_26  and  C_27
REMARK   11  A    between atoms: C_26  and  C_30
REMARK   12  A    between atoms: C_27  and  C_31
REMARK                            x       y       z     vdW  Elec       q    Type
REMARK                         _______ _______ _______ _____ _____    ______ ____
ROOT
ATOM      2  O   UNL     1      17.592  12.473  22.825  0.00  0.00    -0.253 OA
ATOM      9  N   UNL     1      15.353  12.060  22.352  0.00  0.00    -0.272 N 
ATOM     10  N   UNL     1      12.754  11.324  23.308  0.00  0.00    -0.173 NA
ATOM     11  N   UNL     1      16.727  13.293  20.866  0.00  0.00    -0.296 N 
ATOM     16  C   UNL     1      14.210  12.041  21.420  0.00  0.00    +0.179 C 
ATOM     20  C   UNL     1      12.856  12.209  22.112  0.00  0.00    +0.141 C 
ATOM     21  C   UNL     1      15.182  11.312  23.604  0.00  0.00    +0.127 C 
ATOM     22  C   UNL     1      13.849  11.605  24.275  0.00  0.00    +0.128 C 
ATOM     23  C   UNL     1      16.624  12.601  22.068  0.00  0.00    +0.303 C 
ATOM     42  H   UNL     1      15.983  13.251  20.184  0.00  0.00    +0.151 HD
ENDROOT
BRANCH  11  13
ATOM     13  C   UNL     1      17.965  13.900  20.430  0.00  0.00    +0.074 C 
ATOM     14  C   UNL     1      17.715  15.279  19.810  0.00  0.00    +0.022 C 
ATOM     15  C   UNL     1      18.716  12.983  19.459  0.00  0.00    +0.022 C 
ATOM     17  C   UNL     1      17.039  15.192  18.443  0.00  0.00    +0.002 C 
ATOM     18  C   UNL     1      18.039  12.899  18.091  0.00  0.00    +0.002 C 
ATOM     19  C   UNL     1      17.811  14.284  17.490  0.00  0.00    +0.000 C 
ENDBRANCH  11  13
BRANCH  16  24
ATOM      5  O   UNL     1      15.300  10.418  20.048  0.00  0.00    -0.274 OA
ATOM     12  N   UNL     1      13.116  10.017  20.749  0.00  0.00    -0.301 N 
ATOM     24  C   UNL     1      14.292  10.744  20.668  0.00  0.00    +0.236 C 
ATOM     43  H   UNL     1      12.348  10.376  21.309  0.00  0.00    +0.150 HD
BRANCH  12  26
ATOM     26  C   UNL     1      12.928   8.744  20.093  0.00  0.00    +0.186 C 
BRANCH  26  30
ATOM      7  O   UNL     1      10.528   8.682  20.369  0.00  0.00    -0.249 OA
ATOM     30  C   UNL     1      11.493   8.539  19.625  0.00  0.00    +0.328 C 
BRANCH  30   6
ATOM      6  O   UNL     1      11.427   8.169  18.316  0.00  0.00    -0.467 OA
ATOM     40  C   UNL     1      12.369   8.801  17.442  0.00  0.00    +0.280 C 
ENDBRANCH  30   6
ENDBRANCH  26  30
BRANCH  26  27
ATOM     27  C   UNL     1      13.418   7.585  20.973  0.00  0.00    +0.069 C 
BRANCH  27  31
ATOM     31  C   UNL     1      14.817   7.104  20.663  0.00  0.00    -0.045 A 
ATOM     35  C   UNL     1      15.782   7.070  21.669  0.00  0.00    +0.007 A 
ATOM     36  C   UNL     1      15.143   6.694  19.370  0.00  0.00    +0.007 A 
ATOM     37  C   UNL     1      17.073   6.626  21.383  0.00  0.00    +0.046 A 
ATOM     38  C   UNL     1      16.434   6.250  19.084  0.00  0.00    +0.046 A 
ATOM     39  C   UNL     1      17.399   6.215  20.091  0.00  0.00    +0.120 A 
BRANCH  39   8
ATOM      8  O   UNL     1      18.659   5.783  19.812  0.00  0.00    -0.495 OA
ATOM     41  C   UNL     1      19.721   6.332  20.589  0.00  0.00    +0.277 C 
ENDBRANCH  39   8
ENDBRANCH  27  31
ENDBRANCH  26  27
ENDBRANCH  12  26
ENDBRANCH  16  24
BRANCH  10   1
ATOM      1  S   UNL     1      11.188  11.184  23.987  0.00  0.00    +0.061 S 
ATOM      3  O   UNL     1      11.306  10.708  25.349  0.00  0.00    -0.153 OA
ATOM      4  O   UNL     1      10.323  10.520  23.037  0.00  0.00    -0.153 OA
BRANCH   1  25
ATOM     25  C   UNL     1      10.726  12.887  24.048  0.00  0.00    +0.105 A 
ATOM     28  C   UNL     1      10.968  13.634  25.201  0.00  0.00    +0.028 A 
ATOM     29  C   UNL     1      10.119  13.484  22.943  0.00  0.00    +0.028 A 
ATOM     32  C   UNL     1      10.603  14.980  25.248  0.00  0.00    +0.002 A 
ATOM     33  C   UNL     1       9.756  14.830  22.991  0.00  0.00    +0.002 A 
ATOM     34  C   UNL     1       9.998  15.578  24.143  0.00  0.00    +0.000 A 
ENDBRANCH   1  25
ENDBRANCH  10   1
TORSDOF 10
ENDMDL
MODEL 2
REMARK VINA RESULT:      -6.7     14.961     17.599
REMARK  Name = 7164901
REMARK  12 active torsions:
REMARK  status: ('A' for Active; 'I' for Inactive)
REMARK    1  A    between atoms: S_1  and  N_10
REMARK    2  A    between atoms: S_1  and  C_25
REMARK    3  A    between atoms: O_6  and  C_30
REMARK    4  A    between atoms: O_6  and  C_40
REMARK    5  A    between atoms: O_8  and  C_39
REMARK    6  A    between atoms: O_8  and  C_41
REMARK    7  A    between atoms: N_11  and  C_13
REMARK    8  A    between atoms: N_12  and  C_26
REMARK    9  A    between atoms: C_16  and  C_24
REMARK   10  A    between atoms: C_26  and  C_27
REMARK   11  A    between atoms: C_26  and  C_30
REMARK   12  A    between atoms: C_27  and  C_31
REMARK                            x       y       z     vdW  Elec       q    Type
REMARK                         _______ _______ _______ _____ _____    ______ ____
ROOT
ATOM      2  O   UNL     1      16.427  10.350   6.621  0.00  0.00    -0.253 OA
ATOM      9  N   UNL     1      14.852   9.962   4.954  0.00  0.00    -0.272 N 
ATOM     10  N   UNL     1      12.144  10.215   4.052  0.00  0.00    -0.173 NA
ATOM     11  N   UNL     1      17.177   9.908   4.499  0.00  0.00    -0.296 N 
ATOM     16  C   UNL     1      14.486   9.502   3.602  0.00  0.00    +0.179 C 
ATOM     20  C   UNL     1      13.239  10.187   3.040  0.00  0.00    +0.141 C 
ATOM     21  C   UNL     1      13.743  10.140   5.900  0.00  0.00    +0.127 C 
ATOM     22  C   UNL     1      12.581  10.909   5.293  0.00  0.00    +0.128 C 
ATOM     23  C   UNL     1      16.170  10.093   5.440  0.00  0.00    +0.303 C 
ATOM     42  H   UNL     1      16.963   9.539   3.583  0.00  0.00    +0.151 HD
ENDROOT
BRANCH  11  13
ATOM     13  C   UNL     1      18.579  10.002   4.842  0.00  0.00    +0.074 C 
ATOM     14  C   UNL     1      19.394  10.577   3.679  0.00  0.00    +0.022 C 
ATOM     15  C   UNL     1      19.129   8.644   5.288  0.00  0.00    +0.022 C 
ATOM     17  C   UNL     1      19.535   9.591   2.520  0.00  0.00    +0.002 C 
ATOM     18  C   UNL     1      19.271   7.660   4.126  0.00  0.00    +0.002 C 
ATOM     19  C   UNL     1      20.096   8.251   2.986  0.00  0.00    +0.000 C 
ENDBRANCH  11  13
BRANCH  16  24
ATOM      5  O   UNL     1      15.182   7.284   4.153  0.00  0.00    -0.274 OA
ATOM     12  N   UNL     1      13.094   7.600   3.173  0.00  0.00    -0.301 N 
ATOM     24  C   UNL     1      14.310   8.014   3.689  0.00  0.00    +0.236 C 
ATOM     43  H   UNL     1      12.437   8.295   2.830  0.00  0.00    +0.150 HD
BRANCH  12  26
ATOM     26  C   UNL     1      12.689   6.213   3.118  0.00  0.00    +0.186 C 
BRANCH  26  30
ATOM      7  O   UNL     1      12.170   5.698   0.815  0.00  0.00    -0.249 OA
ATOM     30  C   UNL     1      12.951   5.588   1.755  0.00  0.00    +0.328 C 
BRANCH  30   6
ATOM      6  O   UNL     1      14.122   4.893   1.725  0.00  0.00    -0.467 OA
ATOM     40  C   UNL     1      13.999   3.469   1.639  0.00  0.00    +0.280 C 
ENDBRANCH  30   6
ENDBRANCH  26  30
BRANCH  26  27
ATOM     27  C   UNL     1      11.230   6.040   3.560  0.00  0.00    +0.069 C 
BRANCH  27  31
ATOM     31  C   UNL     1      11.037   5.868   5.050  0.00  0.00    -0.045 A 
ATOM     35  C   UNL     1      11.778   6.643   5.943  0.00  0.00    +0.007 A 
ATOM     36  C   UNL     1      10.120   4.934   5.532  0.00  0.00    +0.007 A 
ATOM     37  C   UNL     1      11.600   6.485   7.317  0.00  0.00    +0.046 A 
ATOM     38  C   UNL     1       9.943   4.776   6.907  0.00  0.00    +0.046 A 
ATOM     39  C   UNL     1      10.682   5.552   7.799  0.00  0.00    +0.120 A 
BRANCH  39   8
ATOM      8  O   UNL     1      10.509   5.397   9.141  0.00  0.00    -0.495 OA
ATOM     41  C   UNL     1       9.266   4.849   9.576  0.00  0.00    +0.277 C 
ENDBRANCH  39   8
ENDBRANCH  27  31
ENDBRANCH  26  27
ENDBRANCH  12  26
ENDBRANCH  16  24
BRANCH  10   1
ATOM      1  S   UNL     1      10.605  10.670   3.456  0.00  0.00    +0.061 S 
ATOM      3  O   UNL     1      10.511  10.303   2.060  0.00  0.00    -0.153 OA
ATOM      4  O   UNL     1      10.313  12.019   3.893  0.00  0.00    -0.153 OA
BRANCH   1  25
ATOM     25  C   UNL     1       9.579   9.565   4.375  0.00  0.00    +0.105 A 
ATOM     28  C   UNL     1       8.792   8.628   3.708  0.00  0.00    +0.028 A 
ATOM     29  C   UNL     1       9.559   9.630   5.769  0.00  0.00    +0.028 A 
ATOM     32  C   UNL     1       7.982   7.754   4.435  0.00  0.00    +0.002 A 
ATOM     33  C   UNL     1       8.750   8.756   6.494  0.00  0.00    +0.002 A 
ATOM     34  C   UNL     1       7.962   7.818   5.828  0.00  0.00    +0.000 A 
ENDBRANCH   1  25
ENDBRANCH  10   1
TORSDOF 10
ENDMDL
MODEL 3
REMARK VINA RESULT:      -6.6     28.382     31.506
REMARK  Name = 7164901
REMARK  12 active torsions:
REMARK  status: ('A' for Active; 'I' for Inactive)
REMARK    1  A    between atoms: S_1  and  N_10
REMARK    2  A    between atoms: S_1  and  C_25
REMARK    3  A    between atoms: O_6  and  C_30
REMARK    4  A    between atoms: O_6  and  C_40
REMARK    5  A    between atoms: O_8  and  C_39
REMARK    6  A    between atoms: O_8  and  C_41
REMARK    7  A    between atoms: N_11  and  C_13
REMARK    8  A    between atoms: N_12  and  C_26
REMARK    9  A    between atoms: C_16  and  C_24
REMARK   10  A    between atoms: C_26  and  C_27
REMARK   11  A    between atoms: C_26  and  C_30
REMARK   12  A    between atoms: C_27  and  C_31
REMARK                            x       y       z     vdW  Elec       q    Type
REMARK                         _______ _______ _______ _____ _____    ______ ____
ROOT
ATOM      2  O   UNL     1      -9.293 -12.039  14.234  0.00  0.00    -0.253 OA
ATOM      9  N   UNL     1      -7.283 -11.013  13.673  0.00  0.00    -0.272 N 
ATOM     10  N   UNL     1      -4.782 -11.147  12.281  0.00  0.00    -0.173 NA
ATOM     11  N   UNL     1      -9.133  -9.762  14.465  0.00  0.00    -0.296 N 
ATOM     16  C   UNL     1      -6.379  -9.848  13.679  0.00  0.00    +0.179 C 
ATOM     20  C   UNL     1      -5.417  -9.815  12.490  0.00  0.00    +0.141 C 
ATOM     21  C   UNL     1      -6.678 -12.301  13.308  0.00  0.00    +0.127 C 
ATOM     22  C   UNL     1      -5.810 -12.201  12.064  0.00  0.00    +0.128 C 
ATOM     23  C   UNL     1      -8.618 -11.009  14.129  0.00  0.00    +0.303 C 
ATOM     42  H   UNL     1      -8.527  -8.957  14.534  0.00  0.00    +0.151 HD
ENDROOT
BRANCH  11  13
ATOM     13  C   UNL     1     -10.484  -9.594  14.955  0.00  0.00    +0.074 C 
ATOM     14  C   UNL     1     -10.986  -8.167  14.707  0.00  0.00    +0.022 C 
ATOM     15  C   UNL     1     -10.582  -9.968  16.438  0.00  0.00    +0.022 C 
ATOM     17  C   UNL     1     -10.311  -7.143  15.618  0.00  0.00    +0.002 C 
ATOM     18  C   UNL     1      -9.907  -8.940  17.346  0.00  0.00    +0.002 C 
ATOM     19  C   UNL     1     -10.432  -7.530  17.089  0.00  0.00    +0.000 C 
ENDBRANCH  11  13
BRANCH  16  24
ATOM      5  O   UNL     1      -6.025  -9.241  15.963  0.00  0.00    -0.274 OA
ATOM     12  N   UNL     1      -4.516 -10.684  14.932  0.00  0.00    -0.301 N 
ATOM     24  C   UNL     1      -5.644  -9.883  14.987  0.00  0.00    +0.236 C 
ATOM     43  H   UNL     1      -4.304 -11.186  14.074  0.00  0.00    +0.150 HD
BRANCH  12  26
ATOM     26  C   UNL     1      -3.621 -10.867  16.052  0.00  0.00    +0.186 C 
BRANCH  26  30
ATOM      7  O   UNL     1      -1.231 -10.672  16.353  0.00  0.00    -0.249 OA
ATOM     30  C   UNL     1      -2.166 -10.979  15.619  0.00  0.00    +0.328 C 
BRANCH  30   6
ATOM      6  O   UNL     1      -2.043 -11.434  14.341  0.00  0.00    -0.467 OA
ATOM     40  C   UNL     1      -1.630 -12.798  14.203  0.00  0.00    +0.280 C 
ENDBRANCH  30   6
ENDBRANCH  26  30
BRANCH  26  27
ATOM     27  C   UNL     1      -4.056 -12.054  16.924  0.00  0.00    +0.069 C 
BRANCH  27  31
ATOM     31  C   UNL     1      -5.284 -11.800  17.769  0.00  0.00    -0.045 A 
ATOM     35  C   UNL     1      -5.207 -10.954  18.875  0.00  0.00    +0.007 A 
ATOM     36  C   UNL     1      -6.493 -12.413  17.443  0.00  0.00    +0.007 A 
ATOM     37  C   UNL     1      -6.340 -10.720  19.655  0.00  0.00    +0.046 A 
ATOM     38  C   UNL     1      -7.627 -12.179  18.222  0.00  0.00    +0.046 A 
ATOM     39  C   UNL     1      -7.550 -11.332  19.328  0.00  0.00    +0.120 A 
BRANCH  39   8
ATOM      8  O   UNL     1      -8.655 -11.104  20.089  0.00  0.00    -0.495 OA
ATOM     41  C   UNL     1      -9.834 -11.835  19.756  0.00  0.00    +0.277 C 
ENDBRANCH  39   8
ENDBRANCH  27  31
ENDBRANCH  26  27
ENDBRANCH  12  26
ENDBRANCH  16  24
BRANCH  10   1
ATOM      1  S   UNL     1      -3.463 -11.170  11.188  0.00  0.00    +0.061 S 
ATOM      3  O   UNL     1      -2.957 -12.521  11.087  0.00  0.00    -0.153 OA
ATOM      4  O   UNL     1      -2.581 -10.065  11.497  0.00  0.00    -0.153 OA
BRANCH   1  25
ATOM     25  C   UNL     1      -4.304 -10.792   9.682  0.00  0.00    +0.105 A 
ATOM     28  C   UNL     1      -4.638  -9.472   9.383  0.00  0.00    +0.028 A 
ATOM     29  C   UNL     1      -4.631 -11.815   8.792  0.00  0.00    +0.028 A 
ATOM     32  C   UNL     1      -5.302  -9.174   8.193  0.00  0.00    +0.002 A 
ATOM     33  C   UNL     1      -5.293 -11.516   7.602  0.00  0.00    +0.002 A 
ATOM     34  C   UNL     1      -5.628 -10.196   7.302  0.00  0.00    +0.000 A 
ENDBRANCH   1  25
ENDBRANCH  10   1
TORSDOF 10
ENDMDL
MODEL 4
REMARK VINA RESULT:      -6.4     16.311     20.416
REMARK  Name = 7164901
REMARK  12 active torsions:
REMARK  status: ('A' for Active; 'I' for Inactive)
REMARK    1  A    between atoms: S_1  and  N_10
REMARK    2  A    between atoms: S_1  and  C_25
REMARK    3  A    between atoms: O_6  and  C_30
REMARK    4  A    between atoms: O_6  and  C_40
REMARK    5  A    between atoms: O_8  and  C_39
REMARK    6  A    between atoms: O_8  and  C_41
REMARK    7  A    between atoms: N_11  and  C_13
REMARK    8  A    between atoms: N_12  and  C_26
REMARK    9  A    between atoms: C_16  and  C_24
REMARK   10  A    between atoms: C_26  and  C_27
REMARK   11  A    between atoms: C_26  and  C_30
REMARK   12  A    between atoms: C_27  and  C_31
REMARK                            x       y       z     vdW  Elec       q    Type
REMARK                         _______ _______ _______ _____ _____    ______ ____
ROOT
ATOM      2  O   UNL     1      16.379   9.249   0.976  0.00  0.00    -0.253 OA
ATOM      9  N   UNL     1      15.157   7.431   1.756  0.00  0.00    -0.272 N 
ATOM     10  N   UNL     1      13.408   5.238   1.173  0.00  0.00    -0.173 NA
ATOM     11  N   UNL     1      16.919   8.376   3.028  0.00  0.00    -0.296 N 
ATOM     16  C   UNL     1      14.753   6.511   2.836  0.00  0.00    +0.179 C 
ATOM     20  C   UNL     1      14.336   5.127   2.334  0.00  0.00    +0.141 C 
ATOM     21  C   UNL     1      14.324   7.417   0.547  0.00  0.00    +0.127 C 
ATOM     22  C   UNL     1      14.031   6.006   0.062  0.00  0.00    +0.128 C 
ATOM     23  C   UNL     1      16.168   8.409   1.858  0.00  0.00    +0.303 C 
ATOM     42  H   UNL     1      16.634   7.799   3.805  0.00  0.00    +0.151 HD
ENDROOT
BRANCH  11  13
ATOM     13  C   UNL     1      17.987   9.318   3.283  0.00  0.00    +0.074 C 
ATOM     14  C   UNL     1      19.356   8.633   3.204  0.00  0.00    +0.022 C 
ATOM     15  C   UNL     1      17.793  10.017   4.633  0.00  0.00    +0.022 C 
ATOM     17  C   UNL     1      19.615   7.705   4.390  0.00  0.00    +0.002 C 
ATOM     18  C   UNL     1      18.055   9.086   5.817  0.00  0.00    +0.002 C 
ATOM     19  C   UNL     1      19.428   8.426   5.721  0.00  0.00    +0.000 C 
ENDBRANCH  11  13
BRANCH  16  24
ATOM      5  O   UNL     1      13.731   8.353   3.963  0.00  0.00    -0.274 OA
ATOM     12  N   UNL     1      12.563   6.346   3.794  0.00  0.00    -0.301 N 
ATOM     24  C   UNL     1      13.641   7.188   3.583  0.00  0.00    +0.236 C 
ATOM     43  H   UNL     1      12.589   5.402   3.418  0.00  0.00    +0.150 HD
BRANCH  12  26
ATOM     26  C   UNL     1      11.374   6.748   4.510  0.00  0.00    +0.186 C 
BRANCH  26  30
ATOM      7  O   UNL     1      12.248   6.578   6.756  0.00  0.00    -0.249 OA
ATOM     30  C   UNL     1      11.375   6.264   5.953  0.00  0.00    +0.328 C 
BRANCH  30   6
ATOM      6  O   UNL     1      10.320   5.445   6.221  0.00  0.00    -0.467 OA
ATOM     40  C   UNL     1       9.575   5.756   7.403  0.00  0.00    +0.280 C 
ENDBRANCH  30   6
ENDBRANCH  26  30
BRANCH  26  27
ATOM     27  C   UNL     1      10.102   6.325   3.761  0.00  0.00    +0.069 C 
BRANCH  27  31
ATOM     31  C   UNL     1       9.110   7.441   3.520  0.00  0.00    -0.045 A 
ATOM     35  C   UNL     1       9.013   8.027   2.259  0.00  0.00    +0.007 A 
ATOM     36  C   UNL     1       8.293   7.883   4.561  0.00  0.00    +0.007 A 
ATOM     37  C   UNL     1       8.097   9.057   2.037  0.00  0.00    +0.046 A 
ATOM     38  C   UNL     1       7.377   8.912   4.339  0.00  0.00    +0.046 A 
ATOM     39  C   UNL     1       7.279   9.498   3.077  0.00  0.00    +0.120 A 
BRANCH  39   8
ATOM      8  O   UNL     1       6.386  10.502   2.860  0.00  0.00    -0.495 OA
ATOM     41  C   UNL     1       5.382  10.704   3.854  0.00  0.00    +0.277 C 
ENDBRANCH  39   8
ENDBRANCH  27  31
ENDBRANCH  26  27
ENDBRANCH  12  26
ENDBRANCH  16  24
BRANCH  10   1
ATOM      1  S   UNL     1      12.626   3.784   0.716  0.00  0.00    +0.061 S 
ATOM      3  O   UNL     1      11.983   3.208   1.877  0.00  0.00    -0.153 OA
ATOM      4  O   UNL     1      13.531   3.002  -0.100  0.00  0.00    -0.153 OA
BRANCH   1  25
ATOM     25  C   UNL     1      11.364   4.430  -0.336  0.00  0.00    +0.105 A 
ATOM     28  C   UNL     1      10.420   5.321   0.175  0.00  0.00    +0.028 A 
ATOM     29  C   UNL     1      11.312   4.050  -1.677  0.00  0.00    +0.028 A 
ATOM     32  C   UNL     1       9.423   5.832  -0.656  0.00  0.00    +0.002 A 
ATOM     33  C   UNL     1      10.316   4.563  -2.508  0.00  0.00    +0.002 A 
ATOM     34  C   UNL     1       9.371   5.453  -1.998  0.00  0.00    +0.000 A 
ENDBRANCH   1  25
ENDBRANCH  10   1
TORSDOF 10
ENDMDL
MODEL 5
REMARK VINA RESULT:      -6.3     29.156     31.775
REMARK  Name = 7164901
REMARK  12 active torsions:
REMARK  status: ('A' for Active; 'I' for Inactive)
REMARK    1  A    between atoms: S_1  and  N_10
REMARK    2  A    between atoms: S_1  and  C_25
REMARK    3  A    between atoms: O_6  and  C_30
REMARK    4  A    between atoms: O_6  and  C_40
REMARK    5  A    between atoms: O_8  and  C_39
REMARK    6  A    between atoms: O_8  and  C_41
REMARK    7  A    between atoms: N_11  and  C_13
REMARK    8  A    between atoms: N_12  and  C_26
REMARK    9  A    between atoms: C_16  and  C_24
REMARK   10  A    between atoms: C_26  and  C_27
REMARK   11  A    between atoms: C_26  and  C_30
REMARK   12  A    between atoms: C_27  and  C_31
REMARK                            x       y       z     vdW  Elec       q    Type
REMARK                         _______ _______ _______ _____ _____    ______ ____
ROOT
ATOM      2  O   UNL     1     -11.606 -10.549  12.525  0.00  0.00    -0.253 OA
ATOM      9  N   UNL     1      -9.374 -10.134  12.019  0.00  0.00    -0.272 N 
ATOM     10  N   UNL     1      -7.220 -10.343  10.142  0.00  0.00    -0.173 NA
ATOM     11  N   UNL     1     -10.493  -8.959  13.747  0.00  0.00    -0.296 N 
ATOM     16  C   UNL     1      -8.065  -9.538  12.341  0.00  0.00    +0.179 C 
ATOM     20  C   UNL     1      -7.225  -9.205  11.106  0.00  0.00    +0.141 C 
ATOM     21  C   UNL     1      -9.383 -11.144  10.954  0.00  0.00    +0.127 C 
ATOM     22  C   UNL     1      -8.603 -10.698   9.727  0.00  0.00    +0.128 C 
ATOM     23  C   UNL     1     -10.564  -9.923  12.747  0.00  0.00    +0.303 C 
ATOM     42  H   UNL     1      -9.602  -8.576  14.028  0.00  0.00    +0.151 HD
ENDROOT
BRANCH  11  13
ATOM     13  C   UNL     1     -11.627  -8.633  14.584  0.00  0.00    +0.074 C 
ATOM     14  C   UNL     1     -11.716  -7.122  14.826  0.00  0.00    +0.022 C 
ATOM     15  C   UNL     1     -11.574  -9.405  15.906  0.00  0.00    +0.022 C 
ATOM     17  C   UNL     1     -10.621  -6.614  15.761  0.00  0.00    +0.002 C 
ATOM     18  C   UNL     1     -10.479  -8.892  16.840  0.00  0.00    +0.002 C 
ATOM     19  C   UNL     1     -10.597  -7.389  17.075  0.00  0.00    +0.000 C 
ENDBRANCH  11  13
BRANCH  16  24
ATOM      5  O   UNL     1      -7.304 -11.709  12.986  0.00  0.00    -0.274 OA
ATOM     12  N   UNL     1      -6.836  -9.894  14.367  0.00  0.00    -0.301 N 
ATOM     24  C   UNL     1      -7.362 -10.510  13.244  0.00  0.00    +0.236 C 
ATOM     43  H   UNL     1      -6.926  -8.888  14.470  0.00  0.00    +0.150 HD
BRANCH  12  26
ATOM     26  C   UNL     1      -6.131 -10.612  15.405  0.00  0.00    +0.186 C 
BRANCH  26  30
ATOM      7  O   UNL     1      -7.156  -9.289  17.147  0.00  0.00    -0.249 OA
ATOM     30  C   UNL     1      -6.737 -10.383  16.782  0.00  0.00    +0.328 C 
BRANCH  30   6
ATOM      6  O   UNL     1      -6.735 -11.515  17.540  0.00  0.00    -0.467 OA
ATOM     40  C   UNL     1      -7.168 -12.708  16.878  0.00  0.00    +0.280 C 
ENDBRANCH  30   6
ENDBRANCH  26  30
BRANCH  26  27
ATOM     27  C   UNL     1      -4.628 -10.299  15.378  0.00  0.00    +0.069 C 
BRANCH  27  31
ATOM     31  C   UNL     1      -3.752 -11.445  14.923  0.00  0.00    -0.045 A 
ATOM     35  C   UNL     1      -4.329 -12.661  14.559  0.00  0.00    +0.007 A 
ATOM     36  C   UNL     1      -2.368 -11.285  14.870  0.00  0.00    +0.007 A 
ATOM     37  C   UNL     1      -3.520 -13.719  14.140  0.00  0.00    +0.046 A 
ATOM     38  C   UNL     1      -1.559 -12.342  14.451  0.00  0.00    +0.046 A 
ATOM     39  C   UNL     1      -2.136 -13.559  14.085  0.00  0.00    +0.120 A 
BRANCH  39   8
ATOM      8  O   UNL     1      -1.347 -14.590  13.677  0.00  0.00    -0.495 OA
ATOM     41  C   UNL     1      -1.620 -15.876  14.232  0.00  0.00    +0.277 C 
ENDBRANCH  39   8
ENDBRANCH  27  31
ENDBRANCH  26  27
ENDBRANCH  12  26
ENDBRANCH  16  24
BRANCH  10   1
ATOM      1  S   UNL     1      -6.077 -10.225   8.872  0.00  0.00    +0.061 S 
ATOM      3  O   UNL     1      -6.187  -8.919   8.258  0.00  0.00    -0.153 OA
ATOM      4  O   UNL     1      -6.135 -11.431   8.075  0.00  0.00    -0.153 OA
BRANCH   1  25
ATOM     25  C   UNL     1      -4.577 -10.258   9.803  0.00  0.00    +0.105 A 
ATOM     28  C   UNL     1      -3.747  -9.138   9.827  0.00  0.00    +0.028 A 
ATOM     29  C   UNL     1      -4.224 -11.405  10.516  0.00  0.00    +0.028 A 
ATOM     32  C   UNL     1      -2.562  -9.164  10.564  0.00  0.00    +0.002 A 
ATOM     33  C   UNL     1      -3.041 -11.430  11.252  0.00  0.00    +0.002 A 
ATOM     34  C   UNL     1      -2.209 -10.310  11.277  0.00  0.00    +0.000 A 
ENDBRANCH   1  25
ENDBRANCH  10   1
TORSDOF 10
ENDMDL
MODEL 6
REMARK VINA RESULT:      -6.2     15.257     19.114
REMARK  Name = 7164901
REMARK  12 active torsions:
REMARK  status: ('A' for Active; 'I' for Inactive)
REMARK    1  A    between atoms: S_1  and  N_10
REMARK    2  A    between atoms: S_1  and  C_25
REMARK    3  A    between atoms: O_6  and  C_30
REMARK    4  A    between atoms: O_6  and  C_40
REMARK    5  A    between atoms: O_8  and  C_39
REMARK    6  A    between atoms: O_8  and  C_41
REMARK    7  A    between atoms: N_11  and  C_13
REMARK    8  A    between atoms: N_12  and  C_26
REMARK    9  A    between atoms: C_16  and  C_24
REMARK   10  A    between atoms: C_26  and  C_27
REMARK   11  A    between atoms: C_26  and  C_30
REMARK   12  A    between atoms: C_27  and  C_31
REMARK                            x       y       z     vdW  Elec       q    Type
REMARK                         _______ _______ _______ _____ _____    ______ ____
ROOT
ATOM      2  O   UNL     1      14.846   4.630   1.975  0.00  0.00    -0.253 OA
ATOM      9  N   UNL     1      13.675   6.631   2.150  0.00  0.00    -0.272 N 
ATOM     10  N   UNL     1      13.455   9.233   3.329  0.00  0.00    -0.173 NA
ATOM     11  N   UNL     1      13.372   5.175   0.304  0.00  0.00    -0.296 N 
ATOM     16  C   UNL     1      12.590   7.536   1.727  0.00  0.00    +0.179 C 
ATOM     20  C   UNL     1      12.902   9.015   1.962  0.00  0.00    +0.141 C 
ATOM     21  C   UNL     1      14.323   6.949   3.428  0.00  0.00    +0.127 C 
ATOM     22  C   UNL     1      14.683   8.421   3.545  0.00  0.00    +0.128 C 
ATOM     23  C   UNL     1      14.023   5.424   1.508  0.00  0.00    +0.303 C 
ATOM     42  H   UNL     1      12.588   5.744   0.017  0.00  0.00    +0.151 HD
ENDROOT
BRANCH  11  13
ATOM     13  C   UNL     1      13.616   3.978  -0.470  0.00  0.00    +0.074 C 
ATOM     14  C   UNL     1      14.274   4.315  -1.812  0.00  0.00    +0.022 C 
ATOM     15  C   UNL     1      12.324   3.179  -0.670  0.00  0.00    +0.022 C 
ATOM     17  C   UNL     1      13.308   4.991  -2.784  0.00  0.00    +0.002 C 
ATOM     18  C   UNL     1      11.361   3.857  -1.644  0.00  0.00    +0.002 C 
ATOM     19  C   UNL     1      12.036   4.171  -2.976  0.00  0.00    +0.000 C 
ENDBRANCH  11  13
BRANCH  16  24
ATOM      5  O   UNL     1      11.038   5.923   2.560  0.00  0.00    -0.274 OA
ATOM     12  N   UNL     1      10.657   8.179   2.989  0.00  0.00    -0.301 N 
ATOM     24  C   UNL     1      11.358   7.104   2.469  0.00  0.00    +0.236 C 
ATOM     43  H   UNL     1      11.026   9.118   2.869  0.00  0.00    +0.150 HD
BRANCH  12  26
ATOM     26  C   UNL     1       9.422   8.035   3.726  0.00  0.00    +0.186 C 
BRANCH  26  30
ATOM      7  O   UNL     1       8.195   8.612   1.726  0.00  0.00    -0.249 OA
ATOM     30  C   UNL     1       8.220   8.557   2.952  0.00  0.00    +0.328 C 
BRANCH  30   6
ATOM      6  O   UNL     1       7.214   8.963   3.776  0.00  0.00    -0.467 OA
ATOM     40  C   UNL     1       6.282   9.890   3.209  0.00  0.00    +0.280 C 
ENDBRANCH  30   6
ENDBRANCH  26  30
BRANCH  26  27
ATOM     27  C   UNL     1       9.529   8.669   5.121  0.00  0.00    +0.069 C 
BRANCH  27  31
ATOM     31  C   UNL     1       9.709   7.681   6.251  0.00  0.00    -0.045 A 
ATOM     35  C   UNL     1       8.865   7.729   7.361  0.00  0.00    +0.007 A 
ATOM     36  C   UNL     1      10.721   6.723   6.185  0.00  0.00    +0.007 A 
ATOM     37  C   UNL     1       9.032   6.818   8.404  0.00  0.00    +0.046 A 
ATOM     38  C   UNL     1      10.888   5.812   7.228  0.00  0.00    +0.046 A 
ATOM     39  C   UNL     1      10.042   5.859   8.337  0.00  0.00    +0.120 A 
BRANCH  39   8
ATOM      8  O   UNL     1      10.205   4.970   9.355  0.00  0.00    -0.495 OA
ATOM     41  C   UNL     1       9.060   4.682  10.156  0.00  0.00    +0.277 C 
ENDBRANCH  39   8
ENDBRANCH  27  31
ENDBRANCH  26  27
ENDBRANCH  12  26
ENDBRANCH  16  24
BRANCH  10   1
ATOM      1  S   UNL     1      13.556  10.868   3.830  0.00  0.00    +0.061 S 
ATOM      3  O   UNL     1      12.760  11.684   2.939  0.00  0.00    -0.153 OA
ATOM      4  O   UNL     1      14.940  11.191   4.099  0.00  0.00    -0.153 OA
BRANCH   1  25
ATOM     25  C   UNL     1      12.708  10.770   5.375  0.00  0.00    +0.105 A 
ATOM     28  C   UNL     1      11.670  11.658   5.657  0.00  0.00    +0.028 A 
ATOM     29  C   UNL     1      13.075   9.804   6.312  0.00  0.00    +0.028 A 
ATOM     32  C   UNL     1      10.999  11.580   6.879  0.00  0.00    +0.002 A 
ATOM     33  C   UNL     1      12.404   9.726   7.531  0.00  0.00    +0.002 A 
ATOM     34  C   UNL     1      11.366  10.613   7.815  0.00  0.00    +0.000 A 
ENDBRANCH   1  25
ENDBRANCH  10   1
TORSDOF 10
ENDMDL
MODEL 7
REMARK VINA RESULT:      -6.2     23.437     26.132
REMARK  Name = 7164901
REMARK  12 active torsions:
REMARK  status: ('A' for Active; 'I' for Inactive)
REMARK    1  A    between atoms: S_1  and  N_10
REMARK    2  A    between atoms: S_1  and  C_25
REMARK    3  A    between atoms: O_6  and  C_30
REMARK    4  A    between atoms: O_6  and  C_40
REMARK    5  A    between atoms: O_8  and  C_39
REMARK    6  A    between atoms: O_8  and  C_41
REMARK    7  A    between atoms: N_11  and  C_13
REMARK    8  A    between atoms: N_12  and  C_26
REMARK    9  A    between atoms: C_16  and  C_24
REMARK   10  A    between atoms: C_26  and  C_27
REMARK   11  A    between atoms: C_26  and  C_30
REMARK   12  A    between atoms: C_27  and  C_31
REMARK                            x       y       z     vdW  Elec       q    Type
REMARK                         _______ _______ _______ _____ _____    ______ ____
ROOT
ATOM      2  O   UNL     1       7.036  -8.214  40.119  0.00  0.00    -0.253 OA
ATOM      9  N   UNL     1       5.818  -8.678  38.193  0.00  0.00    -0.272 N 
ATOM     10  N   UNL     1       4.175 -10.513  36.730  0.00  0.00    -0.173 NA
ATOM     11  N   UNL     1       6.400  -6.458  38.787  0.00  0.00    -0.296 N 
ATOM     16  C   UNL     1       5.254  -8.276  36.891  0.00  0.00    +0.179 C 
ATOM     20  C   UNL     1       3.991  -9.051  36.508  0.00  0.00    +0.141 C 
ATOM     21  C   UNL     1       5.848 -10.119  38.469  0.00  0.00    +0.127 C 
ATOM     22  C   UNL     1       4.527 -10.799  38.147  0.00  0.00    +0.128 C 
ATOM     23  C   UNL     1       6.456  -7.811  39.104  0.00  0.00    +0.303 C 
ATOM     42  H   UNL     1       6.072  -6.157  37.880  0.00  0.00    +0.151 HD
ENDROOT
BRANCH  11  13
ATOM     13  C   UNL     1       7.012  -5.446  39.618  0.00  0.00    +0.074 C 
ATOM     14  C   UNL     1       5.956  -4.680  40.422  0.00  0.00    +0.022 C 
ATOM     15  C   UNL     1       7.871  -4.492  38.781  0.00  0.00    +0.022 C 
ATOM     17  C   UNL     1       5.119  -3.747  39.549  0.00  0.00    +0.002 C 
ATOM     18  C   UNL     1       7.031  -3.559  37.910  0.00  0.00    +0.002 C 
ATOM     19  C   UNL     1       5.995  -2.800  38.735  0.00  0.00    +0.000 C 
ENDBRANCH  11  13
BRANCH  16  24
ATOM      5  O   UNL     1       7.191  -9.340  35.986  0.00  0.00    -0.274 OA
ATOM     12  N   UNL     1       6.279  -7.515  34.864  0.00  0.00    -0.301 N 
ATOM     24  C   UNL     1       6.345  -8.457  35.877  0.00  0.00    +0.236 C 
ATOM     43  H   UNL     1       5.522  -6.838  34.863  0.00  0.00    +0.150 HD
BRANCH  12  26
ATOM     26  C   UNL     1       7.229  -7.456  33.776  0.00  0.00    +0.186 C 
BRANCH  26  30
ATOM      7  O   UNL     1       7.362  -5.044  33.724  0.00  0.00    -0.249 OA
ATOM     30  C   UNL     1       7.954  -6.119  33.711  0.00  0.00    +0.328 C 
BRANCH  30   6
ATOM      6  O   UNL     1       9.305  -6.270  33.618  0.00  0.00    -0.467 OA
ATOM     40  C   UNL     1       9.902  -7.134  34.590  0.00  0.00    +0.280 C 
ENDBRANCH  30   6
ENDBRANCH  26  30
BRANCH  26  27
ATOM     27  C   UNL     1       6.569  -7.820  32.439  0.00  0.00    +0.069 C 
BRANCH  27  31
ATOM     31  C   UNL     1       7.139  -9.047  31.765  0.00  0.00    -0.045 A 
ATOM     35  C   UNL     1       8.287  -9.653  32.275  0.00  0.00    +0.007 A 
ATOM     36  C   UNL     1       6.517  -9.573  30.633  0.00  0.00    +0.007 A 
ATOM     37  C   UNL     1       8.813 -10.785  31.653  0.00  0.00    +0.046 A 
ATOM     38  C   UNL     1       7.043 -10.706  30.011  0.00  0.00    +0.046 A 
ATOM     39  C   UNL     1       8.191 -11.312  30.522  0.00  0.00    +0.120 A 
BRANCH  39   8
ATOM      8  O   UNL     1       8.705 -12.417  29.915  0.00  0.00    -0.495 OA
ATOM     41  C   UNL     1       8.659 -12.456  28.490  0.00  0.00    +0.277 C 
ENDBRANCH  39   8
ENDBRANCH  27  31
ENDBRANCH  26  27
ENDBRANCH  12  26
ENDBRANCH  16  24
BRANCH  10   1
ATOM      1  S   UNL     1       2.962 -11.517  36.056  0.00  0.00    +0.061 S 
ATOM      3  O   UNL     1       1.867 -10.690  35.596  0.00  0.00    -0.153 OA
ATOM      4  O   UNL     1       2.730 -12.634  36.946  0.00  0.00    -0.153 OA
BRANCH   1  25
ATOM     25  C   UNL     1       3.817 -12.121  34.634  0.00  0.00    +0.105 A 
ATOM     28  C   UNL     1       5.140 -11.744  34.404  0.00  0.00    +0.028 A 
ATOM     29  C   UNL     1       3.170 -12.977  33.743  0.00  0.00    +0.028 A 
ATOM     32  C   UNL     1       5.815 -12.222  33.281  0.00  0.00    +0.002 A 
ATOM     33  C   UNL     1       3.846 -13.456  32.622  0.00  0.00    +0.002 A 
ATOM     34  C   UNL     1       5.169 -13.079  32.390  0.00  0.00    +0.000 A 
ENDBRANCH   1  25
ENDBRANCH  10   1
TORSDOF 10
ENDMDL
MODEL 8
REMARK VINA RESULT:      -6.2      2.540      3.547
REMARK  Name = 7164901
REMARK  12 active torsions:
REMARK  status: ('A' for Active; 'I' for Inactive)
REMARK    1  A    between atoms: S_1  and  N_10
REMARK    2  A    between atoms: S_1  and  C_25
REMARK    3  A    between atoms: O_6  and  C_30
REMARK    4  A    between atoms: O_6  and  C_40
REMARK    5  A    between atoms: O_8  and  C_39
REMARK    6  A    between atoms: O_8  and  C_41
REMARK    7  A    between atoms: N_11  and  C_13
REMARK    8  A    between atoms: N_12  and  C_26
REMARK    9  A    between atoms: C_16  and  C_24
REMARK   10  A    between atoms: C_26  and  C_27
REMARK   11  A    between atoms: C_26  and  C_30
REMARK   12  A    between atoms: C_27  and  C_31
REMARK                            x       y       z     vdW  Elec       q    Type
REMARK                         _______ _______ _______ _____ _____    ______ ____
ROOT
ATOM      2  O   UNL     1      18.377  12.953  23.622  0.00  0.00    -0.253 OA
ATOM      9  N   UNL     1      16.549  12.429  22.284  0.00  0.00    -0.272 N 
ATOM     10  N   UNL     1      13.816  11.587  22.111  0.00  0.00    -0.173 NA
ATOM     11  N   UNL     1      18.367  13.702  21.454  0.00  0.00    -0.296 N 
ATOM     16  C   UNL     1      15.893  12.343  20.966  0.00  0.00    +0.179 C 
ATOM     20  C   UNL     1      14.369  12.458  21.034  0.00  0.00    +0.141 C 
ATOM     21  C   UNL     1      15.904  11.693  23.379  0.00  0.00    +0.127 C 
ATOM     22  C   UNL     1      14.404  11.933  23.433  0.00  0.00    +0.128 C 
ATOM     23  C   UNL     1      17.804  13.025  22.530  0.00  0.00    +0.303 C 
ATOM     42  H   UNL     1      17.973  13.616  20.529  0.00  0.00    +0.151 HD
ENDROOT
BRANCH  11  13
ATOM     13  C   UNL     1      19.652  14.360  21.547  0.00  0.00    +0.074 C 
ATOM     14  C   UNL     1      19.797  15.440  20.469  0.00  0.00    +0.022 C 
ATOM     15  C   UNL     1      20.797  13.344  21.472  0.00  0.00    +0.022 C 
ATOM     17  C   UNL     1      19.970  14.851  19.070  0.00  0.00    +0.002 C 
ATOM     18  C   UNL     1      20.969  12.758  20.070  0.00  0.00    +0.002 C 
ATOM     19  C   UNL     1      21.123  13.853  19.018  0.00  0.00    +0.000 C 
ENDBRANCH  11  13
BRANCH  16  24
ATOM      5  O   UNL     1      17.505  10.705  20.315  0.00  0.00    -0.274 OA
ATOM     12  N   UNL     1      15.255  10.320  19.852  0.00  0.00    -0.301 N 
ATOM     24  C   UNL     1      16.324  11.041  20.357  0.00  0.00    +0.236 C 
ATOM     43  H   UNL     1      14.314  10.686  19.959  0.00  0.00    +0.150 HD
BRANCH  12  26
ATOM     26  C   UNL     1      15.405   9.042  19.193  0.00  0.00    +0.186 C 
BRANCH  26  30
ATOM      7  O   UNL     1      14.080   7.712  17.671  0.00  0.00    -0.249 OA
ATOM     30  C   UNL     1      14.359   8.824  18.107  0.00  0.00    +0.328 C 
BRANCH  30   6
ATOM      6  O   UNL     1      13.807   9.995  17.684  0.00  0.00    -0.467 OA
ATOM     40  C   UNL     1      12.942   9.899  16.547  0.00  0.00    +0.280 C 
ENDBRANCH  30   6
ENDBRANCH  26  30
BRANCH  26  27
ATOM     27  C   UNL     1      15.430   7.891  20.208  0.00  0.00    +0.069 C 
BRANCH  27  31
ATOM     31  C   UNL     1      16.699   7.070  20.200  0.00  0.00    -0.045 A 
ATOM     35  C   UNL     1      17.662   7.265  21.191  0.00  0.00    +0.007 A 
ATOM     36  C   UNL     1      16.908   6.117  19.203  0.00  0.00    +0.007 A 
ATOM     37  C   UNL     1      18.834   6.507  21.184  0.00  0.00    +0.046 A 
ATOM     38  C   UNL     1      18.079   5.360  19.196  0.00  0.00    +0.046 A 
ATOM     39  C   UNL     1      19.042   5.554  20.187  0.00  0.00    +0.120 A 
BRANCH  39   8
ATOM      8  O   UNL     1      20.185   4.815  20.180  0.00  0.00    -0.495 OA
ATOM     41  C   UNL     1      21.386   5.473  20.579  0.00  0.00    +0.277 C 
ENDBRANCH  39   8
ENDBRANCH  27  31
ENDBRANCH  26  27
ENDBRANCH  12  26
ENDBRANCH  16  24
BRANCH  10   1
ATOM      1  S   UNL     1      12.115  11.385  22.091  0.00  0.00    +0.061 S 
ATOM      3  O   UNL     1      11.547  12.261  21.089  0.00  0.00    -0.153 OA
ATOM      4  O   UNL     1      11.626  11.394  23.453  0.00  0.00    -0.153 OA
BRANCH   1  25
ATOM     25  C   UNL     1      12.008   9.730  21.484  0.00  0.00    +0.105 A 
ATOM     28  C   UNL     1      11.354   9.470  20.281  0.00  0.00    +0.028 A 
ATOM     29  C   UNL     1      12.580   8.684  22.209  0.00  0.00    +0.028 A 
ATOM     32  C   UNL     1      11.270   8.163  19.801  0.00  0.00    +0.002 A 
ATOM     33  C   UNL     1      12.498   7.378  21.729  0.00  0.00    +0.002 A 
ATOM     34  C   UNL     1      11.843   7.117  20.525  0.00  0.00    +0.000 A 
ENDBRANCH   1  25
ENDBRANCH  10   1
TORSDOF 10
ENDMDL
MODEL 9
REMARK VINA RESULT:      -6.2     29.272     32.308
REMARK  Name = 7164901
REMARK  12 active torsions:
REMARK  status: ('A' for Active; 'I' for Inactive)
REMARK    1  A    between atoms: S_1  and  N_10
REMARK    2  A    between atoms: S_1  and  C_25
REMARK    3  A    between atoms: O_6  and  C_30
REMARK    4  A    between atoms: O_6  and  C_40
REMARK    5  A    between atoms: O_8  and  C_39
REMARK    6  A    between atoms: O_8  and  C_41
REMARK    7  A    between atoms: N_11  and  C_13
REMARK    8  A    between atoms: N_12  and  C_26
REMARK    9  A    between atoms: C_16  and  C_24
REMARK   10  A    between atoms: C_26  and  C_27
REMARK   11  A    between atoms: C_26  and  C_30
REMARK   12  A    between atoms: C_27  and  C_31
REMARK                            x       y       z     vdW  Elec       q    Type
REMARK                         _______ _______ _______ _____ _____    ______ ____
ROOT
ATOM      2  O   UNL     1      -5.658 -13.319  12.666  0.00  0.00    -0.253 OA
ATOM      9  N   UNL     1      -6.082 -11.813  14.387  0.00  0.00    -0.272 N 
ATOM     10  N   UNL     1      -6.480 -11.360  17.188  0.00  0.00    -0.173 NA
ATOM     11  N   UNL     1      -5.274 -11.090  12.279  0.00  0.00    -0.296 N 
ATOM     16  C   UNL     1      -6.269 -10.438  14.886  0.00  0.00    +0.179 C 
ATOM     20  C   UNL     1      -5.896 -10.267  16.360  0.00  0.00    +0.141 C 
ATOM     21  C   UNL     1      -6.517 -12.892  15.282  0.00  0.00    +0.127 C 
ATOM     22  C   UNL     1      -6.028 -12.694  16.708  0.00  0.00    +0.128 C 
ATOM     23  C   UNL     1      -5.669 -12.155  13.082  0.00  0.00    +0.303 C 
ATOM     42  H   UNL     1      -5.442 -10.138  12.570  0.00  0.00    +0.151 HD
ENDROOT
BRANCH  11  13
ATOM     13  C   UNL     1      -4.830 -11.278  10.916  0.00  0.00    +0.074 C 
ATOM     14  C   UNL     1      -3.321 -11.534  10.858  0.00  0.00    +0.022 C 
ATOM     15  C   UNL     1      -5.225 -10.084  10.040  0.00  0.00    +0.022 C 
ATOM     17  C   UNL     1      -2.502 -10.282  11.167  0.00  0.00    +0.002 C 
ATOM     18  C   UNL     1      -4.403  -8.833  10.350  0.00  0.00    +0.002 C 
ATOM     19  C   UNL     1      -2.904  -9.111  10.275  0.00  0.00    +0.000 C 
ENDBRANCH  11  13
BRANCH  16  24
ATOM      5  O   UNL     1      -8.261 -10.348  13.570  0.00  0.00    -0.274 OA
ATOM     12  N   UNL     1      -8.278  -9.422  15.706  0.00  0.00    -0.301 N 
ATOM     24  C   UNL     1      -7.705 -10.082  14.632  0.00  0.00    +0.236 C 
ATOM     43  H   UNL     1      -7.728  -9.271  16.547  0.00  0.00    +0.150 HD
BRANCH  12  26
ATOM     26  C   UNL     1      -9.645  -8.950  15.706  0.00  0.00    +0.186 C 
BRANCH  26  30
ATOM      7  O   UNL     1      -9.746  -7.638  17.732  0.00  0.00    -0.249 OA
ATOM     30  C   UNL     1      -9.814  -7.667  16.508  0.00  0.00    +0.328 C 
BRANCH  30   6
ATOM      6  O   UNL     1     -10.064  -6.592  15.709  0.00  0.00    -0.467 OA
ATOM     40  C   UNL     1     -11.370  -6.016  15.831  0.00  0.00    +0.280 C 
ENDBRANCH  30   6
ENDBRANCH  26  30
BRANCH  26  27
ATOM     27  C   UNL     1     -10.614 -10.049  16.165  0.00  0.00    +0.069 C 
BRANCH  27  31
ATOM     31  C   UNL     1     -12.070  -9.642  16.177  0.00  0.00    -0.045 A 
ATOM     35  C   UNL     1     -12.745  -9.501  17.389  0.00  0.00    +0.007 A 
ATOM     36  C   UNL     1     -12.738  -9.410  14.974  0.00  0.00    +0.007 A 
ATOM     37  C   UNL     1     -14.089  -9.126  17.399  0.00  0.00    +0.046 A 
ATOM     38  C   UNL     1     -14.082  -9.035  14.985  0.00  0.00    +0.046 A 
ATOM     39  C   UNL     1     -14.757  -8.892  16.197  0.00  0.00    +0.120 A 
BRANCH  39   8
ATOM      8  O   UNL     1     -16.068  -8.527  16.208  0.00  0.00    -0.495 OA
ATOM     41  C   UNL     1     -16.352  -7.130  16.276  0.00  0.00    +0.277 C 
ENDBRANCH  39   8
ENDBRANCH  27  31
ENDBRANCH  26  27
ENDBRANCH  12  26
ENDBRANCH  16  24
BRANCH  10   1
ATOM      1  S   UNL     1      -6.401 -11.121  18.882  0.00  0.00    +0.061 S 
ATOM      3  O   UNL     1      -6.338  -9.702  19.156  0.00  0.00    -0.153 OA
ATOM      4  O   UNL     1      -5.424 -12.032  19.439  0.00  0.00    -0.153 OA
BRANCH   1  25
ATOM     25  C   UNL     1      -8.005 -11.691  19.349  0.00  0.00    +0.105 A 
ATOM     28  C   UNL     1      -8.198 -13.031  19.685  0.00  0.00    +0.028 A 
ATOM     29  C   UNL     1      -9.078 -10.801  19.384  0.00  0.00    +0.028 A 
ATOM     32  C   UNL     1      -9.466 -13.481  20.055  0.00  0.00    +0.002 A 
ATOM     33  C   UNL     1     -10.345 -11.251  19.755  0.00  0.00    +0.002 A 
ATOM     34  C   UNL     1     -10.539 -12.591  20.091  0.00  0.00    +0.000 A 
ENDBRANCH   1  25
ENDBRANCH  10   1
TORSDOF 10
ENDMDL
MODEL 10
REMARK VINA RESULT:      -6.2     26.791     31.127
REMARK  Name = 7164901
REMARK  12 active torsions:
REMARK  status: ('A' for Active; 'I' for Inactive)
REMARK    1  A    between atoms: S_1  and  N_10
REMARK    2  A    between atoms: S_1  and  C_25
REMARK    3  A    between atoms: O_6  and  C_30
REMARK    4  A    between atoms: O_6  and  C_40
REMARK    5  A    between atoms: O_8  and  C_39
REMARK    6  A    between atoms: O_8  and  C_41
REMARK    7  A    between atoms: N_11  and  C_13
REMARK    8  A    between atoms: N_12  and  C_26
REMARK    9  A    between atoms: C_16  and  C_24
REMARK   10  A    between atoms: C_26  and  C_27
REMARK   11  A    between atoms: C_26  and  C_30
REMARK   12  A    between atoms: C_27  and  C_31
REMARK                            x       y       z     vdW  Elec       q    Type
REMARK                         _______ _______ _______ _____ _____    ______ ____
ROOT
ATOM      2  O   UNL     1      22.942 -10.183   2.428  0.00  0.00    -0.253 OA
ATOM      9  N   UNL     1      20.665 -10.258   1.961  0.00  0.00    -0.272 N 
ATOM     10  N   UNL     1      18.184 -11.679   2.143  0.00  0.00    -0.173 NA
ATOM     11  N   UNL     1      21.871  -8.218   1.926  0.00  0.00    -0.296 N 
ATOM     16  C   UNL     1      19.428  -9.638   1.450  0.00  0.00    +0.179 C 
ATOM     20  C   UNL     1      18.156 -10.189   2.097  0.00  0.00    +0.141 C 
ATOM     21  C   UNL     1      20.629 -11.713   2.154  0.00  0.00    +0.127 C 
ATOM     22  C   UNL     1      19.376 -12.169   2.885  0.00  0.00    +0.128 C 
ATOM     23  C   UNL     1      21.898  -9.593   2.128  0.00  0.00    +0.303 C 
ATOM     42  H   UNL     1      21.058  -7.774   1.523  0.00  0.00    +0.151 HD
ENDROOT
BRANCH  11  13
ATOM     13  C   UNL     1      23.055  -7.398   2.053  0.00  0.00    +0.074 C 
ATOM     14  C   UNL     1      23.195  -6.849   3.477  0.00  0.00    +0.022 C 
ATOM     15  C   UNL     1      23.055  -6.266   1.020  0.00  0.00    +0.022 C 
ATOM     17  C   UNL     1      22.163  -5.766   3.790  0.00  0.00    +0.002 C 
ATOM     18  C   UNL     1      22.023  -5.184   1.337  0.00  0.00    +0.002 C 
ATOM     19  C   UNL     1      22.190  -4.645   2.755  0.00  0.00    +0.000 C 
ENDBRANCH  11  13
BRANCH  16  24
ATOM      5  O   UNL     1      20.426  -9.629  -0.721  0.00  0.00    -0.274 OA
ATOM     12  N   UNL     1      18.197 -10.268  -0.507  0.00  0.00    -0.301 N 
ATOM     24  C   UNL     1      19.429  -9.845  -0.037  0.00  0.00    +0.236 C 
ATOM     43  H   UNL     1      17.443 -10.433   0.154  0.00  0.00    +0.150 HD
BRANCH  12  26
ATOM     26  C   UNL     1      17.927 -10.516  -1.905  0.00  0.00    +0.186 C 
BRANCH  26  30
ATOM      7  O   UNL     1      19.579 -11.363  -3.452  0.00  0.00    -0.249 OA
ATOM     30  C   UNL     1      18.846 -11.579  -2.492  0.00  0.00    +0.328 C 
BRANCH  30   6
ATOM      6  O   UNL     1      18.734 -12.771  -1.843  0.00  0.00    -0.467 OA
ATOM     40  C   UNL     1      19.961 -13.345  -1.380  0.00  0.00    +0.280 C 
ENDBRANCH  30   6
ENDBRANCH  26  30
BRANCH  26  27
ATOM     27  C   UNL     1      17.957  -9.215  -2.718  0.00  0.00    +0.069 C 
BRANCH  27  31
ATOM     31  C   UNL     1      16.745  -8.988  -3.592  0.00  0.00    -0.045 A 
ATOM     35  C   UNL     1      16.763  -9.388  -4.929  0.00  0.00    +0.007 A 
ATOM     36  C   UNL     1      15.608  -8.377  -3.063  0.00  0.00    +0.007 A 
ATOM     37  C   UNL     1      15.644  -9.178  -5.735  0.00  0.00    +0.046 A 
ATOM     38  C   UNL     1      14.489  -8.167  -3.869  0.00  0.00    +0.046 A 
ATOM     39  C   UNL     1      14.507  -8.569  -5.205  0.00  0.00    +0.120 A 
BRANCH  39   8
ATOM      8  O   UNL     1      13.415  -8.364  -5.992  0.00  0.00    -0.495 OA
ATOM     41  C   UNL     1      13.386  -7.163  -6.761  0.00  0.00    +0.277 C 
ENDBRANCH  39   8
ENDBRANCH  27  31
ENDBRANCH  26  27
ENDBRANCH  12  26
ENDBRANCH  16  24
BRANCH  10   1
ATOM      1  S   UNL     1      16.700 -12.429   2.555  0.00  0.00    +0.061 S 
ATOM      3  O   UNL     1      15.610 -11.554   2.182  0.00  0.00    -0.153 OA
ATOM      4  O   UNL     1      16.802 -12.964   3.896  0.00  0.00    -0.153 OA
BRANCH   1  25
ATOM     25  C   UNL     1      16.716 -13.785   1.425  0.00  0.00    +0.105 A 
ATOM     28  C   UNL     1      17.332 -14.984   1.783  0.00  0.00    +0.028 A 
ATOM     29  C   UNL     1      16.110 -13.657   0.174  0.00  0.00    +0.028 A 
ATOM     32  C   UNL     1      17.343 -16.056   0.890  0.00  0.00    +0.002 A 
ATOM     33  C   UNL     1      16.121 -14.729  -0.717  0.00  0.00    +0.002 A 
ATOM     34  C   UNL     1      16.737 -15.928  -0.360  0.00  0.00    +0.000 A 
ENDBRANCH   1  25
ENDBRANCH  10   1
TORSDOF 10
ENDMDL
