MODEL 1
REMARK VINA RESULT:      -7.1      0.000      0.000
REMARK  Name = 7052041
REMARK  9 active torsions:
REMARK  status: ('A' for Active; 'I' for Inactive)
REMARK    1  A    between atoms: O_5  and  C_27
REMARK    2  A    between atoms: O_5  and  C_37
REMARK    3  A    between atoms: N_9  and  C_24
REMARK    4  A    between atoms: C_11  and  C_18
REMARK    5  A    between atoms: C_16  and  C_22
REMARK    6  A    between atoms: C_23  and  C_25
REMARK    7  A    between atoms: C_24  and  C_26
REMARK    8  A    between atoms: C_24  and  C_27
REMARK    9  A    between atoms: C_26  and  C_30
REMARK                            x       y       z     vdW  Elec       q    Type
REMARK                         _______ _______ _______ _____ _____    ______ ____
ROOT
ATOM      2  O   UNL     1      10.309  11.459  24.459  0.00  0.00    -0.275 OA
ATOM      4  O   UNL     1      12.088   6.581  19.728  0.00  0.00    -0.270 OA
ATOM      7  N   UNL     1      11.805  10.492  22.965  0.00  0.00    -0.287 N 
ATOM      8  N   UNL     1      12.610   8.254  21.271  0.00  0.00    -0.294 N 
ATOM     16  C   UNL     1      13.115  10.480  22.303  0.00  0.00    +0.179 C 
ATOM     18  C   UNL     1      11.357  11.513  23.810  0.00  0.00    +0.219 C 
ATOM     19  C   UNL     1      10.987   9.284  22.839  0.00  0.00    +0.127 C 
ATOM     20  C   UNL     1      13.609   9.068  21.978  0.00  0.00    +0.140 C 
ATOM     21  C   UNL     1      11.204   8.567  21.515  0.00  0.00    +0.127 C 
ATOM     23  C   UNL     1      12.916   7.240  20.356  0.00  0.00    +0.247 C 
ENDROOT
BRANCH  23  25
ATOM      1  F   UNL     1      17.342   6.133  22.004  0.00  0.00    -0.205 F 
ATOM     25  C   UNL     1      14.332   6.920  20.117  0.00  0.00    +0.040 A 
ATOM     28  C   UNL     1      15.183   6.673  21.195  0.00  0.00    +0.051 A 
ATOM     29  C   UNL     1      14.825   6.864  18.814  0.00  0.00    +0.013 A 
ATOM     31  C   UNL     1      16.525   6.370  20.970  0.00  0.00    +0.124 A 
ATOM     32  C   UNL     1      16.167   6.560  18.587  0.00  0.00    +0.004 A 
ATOM     34  C   UNL     1      17.018   6.313  19.665  0.00  0.00    +0.038 A 
ENDBRANCH  23  25
BRANCH  18  11
ATOM     11  C   UNL     1      12.226  12.731  23.919  0.00  0.00    +0.075 C 
ATOM     12  C   UNL     1      12.781  12.850  25.340  0.00  0.00    +0.013 C 
ATOM     13  C   UNL     1      11.431  13.976  23.521  0.00  0.00    +0.013 C 
ATOM     14  C   UNL     1      13.596  14.128  25.521  0.00  0.00    +0.001 C 
ATOM     15  C   UNL     1      12.250  15.251  23.706  0.00  0.00    +0.001 C 
ATOM     17  C   UNL     1      12.799  15.366  25.126  0.00  0.00    +0.000 C 
ENDBRANCH  18  11
BRANCH  16  22
ATOM      3  O   UNL     1      11.944  11.801  20.691  0.00  0.00    -0.274 OA
ATOM      9  N   UNL     1      14.203  11.349  20.351  0.00  0.00    -0.301 N 
ATOM     22  C   UNL     1      13.005  11.288  21.041  0.00  0.00    +0.236 C 
ATOM     39  H   UNL     1      15.031  10.927  20.759  0.00  0.00    +0.150 HD
BRANCH   9  24
ATOM     24  C   UNL     1      14.357  12.046  19.095  0.00  0.00    +0.186 C 
BRANCH  24  27
ATOM      6  O   UNL     1      16.409  13.321  19.118  0.00  0.00    -0.249 OA
ATOM     27  C   UNL     1      15.188  13.314  19.240  0.00  0.00    +0.328 C 
BRANCH  27   5
ATOM      5  O   UNL     1      14.421  14.402  19.532  0.00  0.00    -0.467 OA
ATOM     37  C   UNL     1      13.197  14.514  18.800  0.00  0.00    +0.280 C 
ENDBRANCH  27   5
ENDBRANCH  24  27
BRANCH  24  26
ATOM     26  C   UNL     1      14.901  11.125  17.993  0.00  0.00    +0.070 C 
BRANCH  26  30
ATOM     10  N   UNL     1      12.908  10.103  14.933  0.00  0.00    -0.263 NA
ATOM     30  C   UNL     1      13.840  10.476  17.132  0.00  0.00    -0.027 A 
ATOM     33  C   UNL     1      12.847   9.682  17.696  0.00  0.00    +0.006 A 
ATOM     35  C   UNL     1      13.826  10.653  15.758  0.00  0.00    +0.114 A 
ATOM     36  C   UNL     1      11.884   9.099  16.879  0.00  0.00    +0.020 A 
ATOM     38  C   UNL     1      11.958   9.338  15.516  0.00  0.00    +0.111 A 
ENDBRANCH  26  30
ENDBRANCH  24  26
ENDBRANCH   9  24
ENDBRANCH  16  22
TORSDOF 8
ENDMDL
MODEL 2
REMARK VINA RESULT:      -7.0     13.656     16.922
REMARK  Name = 7052041
REMARK  9 active torsions:
REMARK  status: ('A' for Active; 'I' for Inactive)
REMARK    1  A    between atoms: O_5  and  C_27
REMARK    2  A    between atoms: O_5  and  C_37
REMARK    3  A    between atoms: N_9  and  C_24
REMARK    4  A    between atoms: C_11  and  C_18
REMARK    5  A    between atoms: C_16  and  C_22
REMARK    6  A    between atoms: C_23  and  C_25
REMARK    7  A    between atoms: C_24  and  C_26
REMARK    8  A    between atoms: C_24  and  C_27
REMARK    9  A    between atoms: C_26  and  C_30
REMARK                            x       y       z     vdW  Elec       q    Type
REMARK                         _______ _______ _______ _____ _____    ______ ____
ROOT
ATOM      2  O   UNL     1      15.433  10.915   5.882  0.00  0.00    -0.275 OA
ATOM      4  O   UNL     1       9.053   8.592   7.685  0.00  0.00    -0.270 OA
ATOM      7  N   UNL     1      13.835   9.238   6.082  0.00  0.00    -0.287 N 
ATOM      8  N   UNL     1      11.304   8.260   7.160  0.00  0.00    -0.294 N 
ATOM     16  C   UNL     1      13.427   7.839   5.898  0.00  0.00    +0.179 C 
ATOM     18  C   UNL     1      15.041   9.775   5.618  0.00  0.00    +0.219 C 
ATOM     19  C   UNL     1      12.982  10.072   6.931  0.00  0.00    +0.127 C 
ATOM     20  C   UNL     1      12.448   7.356   6.971  0.00  0.00    +0.140 C 
ATOM     21  C   UNL     1      11.516   9.673   6.857  0.00  0.00    +0.127 C 
ATOM     23  C   UNL     1      10.028   7.851   7.563  0.00  0.00    +0.247 C 
ENDROOT
BRANCH  23  25
ATOM      1  F   UNL     1       8.878   4.329  10.695  0.00  0.00    -0.205 F 
ATOM     25  C   UNL     1       9.817   6.428   7.876  0.00  0.00    +0.040 A 
ATOM     28  C   UNL     1       9.439   6.045   9.163  0.00  0.00    +0.051 A 
ATOM     29  C   UNL     1       9.995   5.462   6.886  0.00  0.00    +0.013 A 
ATOM     31  C   UNL     1       9.240   4.698   9.460  0.00  0.00    +0.124 A 
ATOM     32  C   UNL     1       9.796   4.114   7.181  0.00  0.00    +0.004 A 
ATOM     34  C   UNL     1       9.418   3.732   8.469  0.00  0.00    +0.038 A 
ENDBRANCH  23  25
BRANCH  18  11
ATOM     11  C   UNL     1      15.891   8.887   4.758  0.00  0.00    +0.075 C 
ATOM     12  C   UNL     1      17.316   8.832   5.313  0.00  0.00    +0.013 C 
ATOM     13  C   UNL     1      15.871   9.388   3.312  0.00  0.00    +0.013 C 
ATOM     14  C   UNL     1      18.239   8.014   4.414  0.00  0.00    +0.001 C 
ATOM     15  C   UNL     1      16.798   8.568   2.419  0.00  0.00    +0.001 C 
ATOM     17  C   UNL     1      18.218   8.519   2.975  0.00  0.00    +0.000 C 
ENDBRANCH  18  11
BRANCH  16  22
ATOM      3  O   UNL     1      12.593   8.694   3.828  0.00  0.00    -0.274 OA
ATOM      9  N   UNL     1      12.488   6.402   4.225  0.00  0.00    -0.301 N 
ATOM     22  C   UNL     1      12.802   7.713   4.539  0.00  0.00    +0.236 C 
ATOM     39  H   UNL     1      12.750   5.663   4.870  0.00  0.00    +0.150 HD
BRANCH   9  24
ATOM     24  C   UNL     1      11.856   6.016   2.985  0.00  0.00    +0.186 C 
BRANCH  24  27
ATOM      6  O   UNL     1      12.037   3.766   2.120  0.00  0.00    -0.249 OA
ATOM     27  C   UNL     1      12.574   4.852   2.313  0.00  0.00    +0.328 C 
BRANCH  27   5
ATOM      5  O   UNL     1      13.859   5.163   1.982  0.00  0.00    -0.467 OA
ATOM     37  C   UNL     1      14.632   4.095   1.424  0.00  0.00    +0.280 C 
ENDBRANCH  27   5
ENDBRANCH  24  27
BRANCH  24  26
ATOM     26  C   UNL     1      10.357   5.736   3.169  0.00  0.00    +0.070 C 
BRANCH  26  30
ATOM     10  N   UNL     1       8.650   8.823   1.778  0.00  0.00    -0.263 NA
ATOM     30  C   UNL     1       9.471   6.959   3.079  0.00  0.00    -0.027 A 
ATOM     33  C   UNL     1       8.685   7.354   4.156  0.00  0.00    +0.006 A 
ATOM     35  C   UNL     1       9.418   7.721   1.924  0.00  0.00    +0.114 A 
ATOM     36  C   UNL     1       7.881   8.484   4.044  0.00  0.00    +0.020 A 
ATOM     38  C   UNL     1       7.899   9.177   2.845  0.00  0.00    +0.111 A 
ENDBRANCH  26  30
ENDBRANCH  24  26
ENDBRANCH   9  24
ENDBRANCH  16  22
TORSDOF 8
ENDMDL
MODEL 3
REMARK VINA RESULT:      -6.6     27.284     29.893
REMARK  Name = 7052041
REMARK  9 active torsions:
REMARK  status: ('A' for Active; 'I' for Inactive)
REMARK    1  A    between atoms: O_5  and  C_27
REMARK    2  A    between atoms: O_5  and  C_37
REMARK    3  A    between atoms: N_9  and  C_24
REMARK    4  A    between atoms: C_11  and  C_18
REMARK    5  A    between atoms: C_16  and  C_22
REMARK    6  A    between atoms: C_23  and  C_25
REMARK    7  A    between atoms: C_24  and  C_26
REMARK    8  A    between atoms: C_24  and  C_27
REMARK    9  A    between atoms: C_26  and  C_30
REMARK                            x       y       z     vdW  Elec       q    Type
REMARK                         _______ _______ _______ _____ _____    ______ ____
ROOT
ATOM      2  O   UNL     1     -10.409  -9.891  18.292  0.00  0.00    -0.275 OA
ATOM      4  O   UNL     1      -4.576 -13.319  16.399  0.00  0.00    -0.270 OA
ATOM      7  N   UNL     1      -8.512 -10.150  16.972  0.00  0.00    -0.287 N 
ATOM      8  N   UNL     1      -5.932 -11.419  16.458  0.00  0.00    -0.294 N 
ATOM     16  C   UNL     1      -7.649  -9.688  15.877  0.00  0.00    +0.179 C 
ATOM     18  C   UNL     1      -9.748  -9.580  17.297  0.00  0.00    +0.219 C 
ATOM     19  C   UNL     1      -7.964 -11.179  17.860  0.00  0.00    +0.127 C 
ATOM     20  C   UNL     1      -6.171 -10.012  16.104  0.00  0.00    +0.140 C 
ATOM     21  C   UNL     1      -7.014 -12.124  17.142  0.00  0.00    +0.127 C 
ATOM     23  C   UNL     1      -4.769 -12.130  16.144  0.00  0.00    +0.247 C 
ENDROOT
BRANCH  23  25
ATOM      1  F   UNL     1      -0.479  -9.867  16.241  0.00  0.00    -0.205 F 
ATOM     25  C   UNL     1      -3.678 -11.416  15.462  0.00  0.00    +0.040 A 
ATOM     28  C   UNL     1      -2.573 -10.971  16.189  0.00  0.00    +0.051 A 
ATOM     29  C   UNL     1      -3.747 -11.185  14.088  0.00  0.00    +0.013 A 
ATOM     31  C   UNL     1      -1.539 -10.295  15.543  0.00  0.00    +0.124 A 
ATOM     32  C   UNL     1      -2.713 -10.509  13.441  0.00  0.00    +0.004 A 
ATOM     34  C   UNL     1      -1.608 -10.064  14.169  0.00  0.00    +0.038 A 
ENDBRANCH  23  25
BRANCH  18  11
ATOM     11  C   UNL     1     -10.271  -8.525  16.368  0.00  0.00    +0.075 C 
ATOM     12  C   UNL     1     -10.512  -7.225  17.138  0.00  0.00    +0.013 C 
ATOM     13  C   UNL     1     -11.549  -9.018  15.686  0.00  0.00    +0.013 C 
ATOM     14  C   UNL     1     -11.134  -6.151  16.250  0.00  0.00    +0.001 C 
ATOM     15  C   UNL     1     -12.168  -7.940  14.801  0.00  0.00    +0.001 C 
ATOM     17  C   UNL     1     -12.409  -6.646  15.575  0.00  0.00    +0.000 C 
ENDBRANCH  18  11
BRANCH  16  22
ATOM      3  O   UNL     1      -8.724 -11.407  14.611  0.00  0.00    -0.274 OA
ATOM      9  N   UNL     1      -7.792  -9.594  13.486  0.00  0.00    -0.301 N 
ATOM     22  C   UNL     1      -8.126 -10.333  14.608  0.00  0.00    +0.236 C 
ATOM     39  H   UNL     1      -7.338  -8.694  13.605  0.00  0.00    +0.150 HD
BRANCH   9  24
ATOM     24  C   UNL     1      -8.116 -10.008  12.140  0.00  0.00    +0.186 C 
BRANCH  24  27
ATOM      6  O   UNL     1     -10.375  -9.152  12.098  0.00  0.00    -0.249 OA
ATOM     27  C   UNL     1      -9.619 -10.101  11.915  0.00  0.00    +0.328 C 
BRANCH  27   5
ATOM      5  O   UNL     1     -10.004 -11.345  11.512  0.00  0.00    -0.467 OA
ATOM     37  C   UNL     1     -11.235 -11.823  12.063  0.00  0.00    +0.280 C 
ENDBRANCH  27   5
ENDBRANCH  24  27
BRANCH  24  26
ATOM     26  C   UNL     1      -7.431  -9.123  11.089  0.00  0.00    +0.070 C 
BRANCH  26  30
ATOM     10  N   UNL     1      -4.473 -11.376  10.347  0.00  0.00    -0.263 NA
ATOM     30  C   UNL     1      -6.040  -9.569  10.698  0.00  0.00    -0.027 A 
ATOM     33  C   UNL     1      -5.065  -8.644  10.340  0.00  0.00    +0.006 A 
ATOM     35  C   UNL     1      -5.696 -10.911  10.685  0.00  0.00    +0.114 A 
ATOM     36  C   UNL     1      -3.794  -9.085   9.985  0.00  0.00    +0.020 A 
ATOM     38  C   UNL     1      -3.550 -10.448  10.005  0.00  0.00    +0.111 A 
ENDBRANCH  26  30
ENDBRANCH  24  26
ENDBRANCH   9  24
ENDBRANCH  16  22
TORSDOF 8
ENDMDL
MODEL 4
REMARK VINA RESULT:      -6.4     14.157     17.547
REMARK  Name = 7052041
REMARK  9 active torsions:
REMARK  status: ('A' for Active; 'I' for Inactive)
REMARK    1  A    between atoms: O_5  and  C_27
REMARK    2  A    between atoms: O_5  and  C_37
REMARK    3  A    between atoms: N_9  and  C_24
REMARK    4  A    between atoms: C_11  and  C_18
REMARK    5  A    between atoms: C_16  and  C_22
REMARK    6  A    between atoms: C_23  and  C_25
REMARK    7  A    between atoms: C_24  and  C_26
REMARK    8  A    between atoms: C_24  and  C_27
REMARK    9  A    between atoms: C_26  and  C_30
REMARK                            x       y       z     vdW  Elec       q    Type
REMARK                         _______ _______ _______ _____ _____    ______ ____
ROOT
ATOM      2  O   UNL     1      16.749  10.989   6.260  0.00  0.00    -0.275 OA
ATOM      4  O   UNL     1       9.945   9.283   6.642  0.00  0.00    -0.270 OA
ATOM      7  N   UNL     1      14.999   9.466   6.111  0.00  0.00    -0.287 N 
ATOM      8  N   UNL     1      12.215   8.740   6.617  0.00  0.00    -0.294 N 
ATOM     16  C   UNL     1      14.513   8.106   5.844  0.00  0.00    +0.179 C 
ATOM     18  C   UNL     1      16.320   9.883   5.918  0.00  0.00    +0.219 C 
ATOM     19  C   UNL     1      14.063  10.390   6.755  0.00  0.00    +0.127 C 
ATOM     20  C   UNL     1      13.286   7.734   6.680  0.00  0.00    +0.140 C 
ATOM     21  C   UNL     1      12.617  10.123   6.366  0.00  0.00    +0.127 C 
ATOM     23  C   UNL     1      10.850   8.456   6.735  0.00  0.00    +0.247 C 
ENDROOT
BRANCH  23  25
ATOM      1  F   UNL     1       9.954   3.947   5.184  0.00  0.00    -0.205 F 
ATOM     25  C   UNL     1      10.448   7.064   6.995  0.00  0.00    +0.040 A 
ATOM     28  C   UNL     1      10.391   6.147   5.945  0.00  0.00    +0.051 A 
ATOM     29  C   UNL     1      10.123   6.662   8.290  0.00  0.00    +0.013 A 
ATOM     31  C   UNL     1      10.009   4.828   6.191  0.00  0.00    +0.124 A 
ATOM     32  C   UNL     1       9.742   5.344   8.537  0.00  0.00    +0.004 A 
ATOM     34  C   UNL     1       9.685   4.426   7.488  0.00  0.00    +0.038 A 
ENDBRANCH  23  25
BRANCH  18  11
ATOM     11  C   UNL     1      17.250   8.905   5.263  0.00  0.00    +0.075 C 
ATOM     12  C   UNL     1      18.555   8.814   6.057  0.00  0.00    +0.013 C 
ATOM     13  C   UNL     1      17.504   9.320   3.812  0.00  0.00    +0.013 C 
ATOM     14  C   UNL     1      19.567   7.899   5.373  0.00  0.00    +0.001 C 
ATOM     15  C   UNL     1      18.519   8.404   3.134  0.00  0.00    +0.001 C 
ATOM     17  C   UNL     1      19.819   8.318   3.928  0.00  0.00    +0.000 C 
ENDBRANCH  18  11
BRANCH  16  22
ATOM      3  O   UNL     1      14.271   8.979   3.633  0.00  0.00    -0.274 OA
ATOM      9  N   UNL     1      13.772   6.738   4.020  0.00  0.00    -0.301 N 
ATOM     22  C   UNL     1      14.186   8.009   4.382  0.00  0.00    +0.236 C 
ATOM     39  H   UNL     1      13.785   5.998   4.714  0.00  0.00    +0.150 HD
BRANCH   9  24
ATOM     24  C   UNL     1      13.377   6.388   2.675  0.00  0.00    +0.186 C 
BRANCH  24  27
ATOM      6  O   UNL     1      15.290   6.645   1.221  0.00  0.00    -0.249 OA
ATOM     27  C   UNL     1      14.552   5.889   1.844  0.00  0.00    +0.328 C 
BRANCH  27   5
ATOM      5  O   UNL     1      14.659   4.530   1.869  0.00  0.00    -0.467 OA
ATOM     37  C   UNL     1      15.173   3.925   0.678  0.00  0.00    +0.280 C 
ENDBRANCH  27   5
ENDBRANCH  24  27
BRANCH  24  26
ATOM     26  C   UNL     1      12.202   5.399   2.662  0.00  0.00    +0.070 C 
BRANCH  26  30
ATOM     10  N   UNL     1      10.435   4.268  -0.496  0.00  0.00    -0.263 NA
ATOM     30  C   UNL     1      11.359   5.437   1.408  0.00  0.00    -0.027 A 
ATOM     33  C   UNL     1      10.744   6.613   0.994  0.00  0.00    +0.006 A 
ATOM     35  C   UNL     1      11.175   4.302   0.634  0.00  0.00    +0.114 A 
ATOM     36  C   UNL     1       9.974   6.617  -0.165  0.00  0.00    +0.020 A 
ATOM     38  C   UNL     1       9.852   5.430  -0.868  0.00  0.00    +0.111 A 
ENDBRANCH  26  30
ENDBRANCH  24  26
ENDBRANCH   9  24
ENDBRANCH  16  22
TORSDOF 8
ENDMDL
MODEL 5
REMARK VINA RESULT:      -6.4      1.919      2.782
REMARK  Name = 7052041
REMARK  9 active torsions:
REMARK  status: ('A' for Active; 'I' for Inactive)
REMARK    1  A    between atoms: O_5  and  C_27
REMARK    2  A    between atoms: O_5  and  C_37
REMARK    3  A    between atoms: N_9  and  C_24
REMARK    4  A    between atoms: C_11  and  C_18
REMARK    5  A    between atoms: C_16  and  C_22
REMARK    6  A    between atoms: C_23  and  C_25
REMARK    7  A    between atoms: C_24  and  C_26
REMARK    8  A    between atoms: C_24  and  C_27
REMARK    9  A    between atoms: C_26  and  C_30
REMARK                            x       y       z     vdW  Elec       q    Type
REMARK                         _______ _______ _______ _____ _____    ______ ____
ROOT
ATOM      2  O   UNL     1      10.236   9.050  22.765  0.00  0.00    -0.275 OA
ATOM      4  O   UNL     1      15.505   6.207  19.091  0.00  0.00    -0.270 OA
ATOM      7  N   UNL     1      12.447   8.993  22.048  0.00  0.00    -0.287 N 
ATOM      8  N   UNL     1      14.669   7.581  20.783  0.00  0.00    -0.294 N 
ATOM     16  C   UNL     1      13.798   9.567  22.038  0.00  0.00    +0.179 C 
ATOM     18  C   UNL     1      11.338   9.594  22.653  0.00  0.00    +0.219 C 
ATOM     19  C   UNL     1      12.299   7.637  21.513  0.00  0.00    +0.127 C 
ATOM     20  C   UNL     1      14.897   8.510  21.899  0.00  0.00    +0.140 C 
ATOM     21  C   UNL     1      13.282   7.341  20.391  0.00  0.00    +0.127 C 
ATOM     23  C   UNL     1      15.684   6.954  20.052  0.00  0.00    +0.247 C 
ENDROOT
BRANCH  23  25
ATOM      1  F   UNL     1      20.221   5.373  20.723  0.00  0.00    -0.205 F 
ATOM     25  C   UNL     1      17.080   7.190  20.454  0.00  0.00    +0.040 A 
ATOM     28  C   UNL     1      18.008   6.149  20.397  0.00  0.00    +0.051 A 
ATOM     29  C   UNL     1      17.477   8.453  20.891  0.00  0.00    +0.013 A 
ATOM     31  C   UNL     1      19.330   6.372  20.777  0.00  0.00    +0.124 A 
ATOM     32  C   UNL     1      18.799   8.677  21.271  0.00  0.00    +0.004 A 
ATOM     34  C   UNL     1      19.727   7.636  21.214  0.00  0.00    +0.038 A 
ENDBRANCH  23  25
BRANCH  18  11
ATOM     11  C   UNL     1      11.532  10.979  23.196  0.00  0.00    +0.075 C 
ATOM     12  C   UNL     1      10.924  11.080  24.596  0.00  0.00    +0.013 C 
ATOM     13  C   UNL     1      10.917  12.004  22.241  0.00  0.00    +0.013 C 
ATOM     14  C   UNL     1      11.016  12.500  25.149  0.00  0.00    +0.001 C 
ATOM     15  C   UNL     1      11.009  13.422  22.800  0.00  0.00    +0.001 C 
ATOM     17  C   UNL     1      10.398  13.518  24.195  0.00  0.00    +0.000 C 
ENDBRANCH  18  11
BRANCH  16  22
ATOM      3  O   UNL     1      13.004  10.609  20.039  0.00  0.00    -0.274 OA
ATOM      9  N   UNL     1      15.034  11.305  20.942  0.00  0.00    -0.301 N 
ATOM     22  C   UNL     1      13.879  10.543  20.900  0.00  0.00    +0.236 C 
ATOM     39  H   UNL     1      15.667  11.199  21.728  0.00  0.00    +0.150 HD
BRANCH   9  24
ATOM     24  C   UNL     1      15.361  12.301  19.948  0.00  0.00    +0.186 C 
BRANCH  24  27
ATOM      6  O   UNL     1      16.158  14.582  19.975  0.00  0.00    -0.249 OA
ATOM     27  C   UNL     1      16.074  13.503  20.553  0.00  0.00    +0.328 C 
BRANCH  27   5
ATOM      5  O   UNL     1      16.606  13.224  21.777  0.00  0.00    -0.467 OA
ATOM     37  C   UNL     1      18.035  13.191  21.840  0.00  0.00    +0.280 C 
ENDBRANCH  27   5
ENDBRANCH  24  27
BRANCH  24  26
ATOM     26  C   UNL     1      16.146  11.699  18.773  0.00  0.00    +0.070 C 
BRANCH  26  30
ATOM     10  N   UNL     1      13.950  10.261  16.036  0.00  0.00    -0.263 NA
ATOM     30  C   UNL     1      15.363  11.584  17.484  0.00  0.00    -0.027 A 
ATOM     33  C   UNL     1      15.321  12.637  16.575  0.00  0.00    +0.006 A 
ATOM     35  C   UNL     1      14.668  10.428  17.169  0.00  0.00    +0.114 A 
ATOM     36  C   UNL     1      14.593  12.501  15.398  0.00  0.00    +0.020 A 
ATOM     38  C   UNL     1      13.932  11.304  15.177  0.00  0.00    +0.111 A 
ENDBRANCH  26  30
ENDBRANCH  24  26
ENDBRANCH   9  24
ENDBRANCH  16  22
TORSDOF 8
ENDMDL
MODEL 6
REMARK VINA RESULT:      -6.2     27.237     30.497
REMARK  Name = 7052041
REMARK  9 active torsions:
REMARK  status: ('A' for Active; 'I' for Inactive)
REMARK    1  A    between atoms: O_5  and  C_27
REMARK    2  A    between atoms: O_5  and  C_37
REMARK    3  A    between atoms: N_9  and  C_24
REMARK    4  A    between atoms: C_11  and  C_18
REMARK    5  A    between atoms: C_16  and  C_22
REMARK    6  A    between atoms: C_23  and  C_25
REMARK    7  A    between atoms: C_24  and  C_26
REMARK    8  A    between atoms: C_24  and  C_27
REMARK    9  A    between atoms: C_26  and  C_30
REMARK                            x       y       z     vdW  Elec       q    Type
REMARK                         _______ _______ _______ _____ _____    ______ ____
ROOT
ATOM      2  O   UNL     1      -5.462 -10.794   9.561  0.00  0.00    -0.275 OA
ATOM      4  O   UNL     1     -10.837 -11.613  14.009  0.00  0.00    -0.270 OA
ATOM      7  N   UNL     1      -6.500 -10.466  11.615  0.00  0.00    -0.287 N 
ATOM      8  N   UNL     1      -8.889 -10.544  13.293  0.00  0.00    -0.294 N 
ATOM     16  C   UNL     1      -6.483  -9.918  12.978  0.00  0.00    +0.179 C 
ATOM     18  C   UNL     1      -5.406 -10.445  10.743  0.00  0.00    +0.219 C 
ATOM     19  C   UNL     1      -7.791 -10.930  11.103  0.00  0.00    +0.127 C 
ATOM     20  C   UNL     1      -7.870  -9.499  13.471  0.00  0.00    +0.140 C 
ATOM     21  C   UNL     1      -8.688 -11.488  12.197  0.00  0.00    +0.127 C 
ATOM     23  C   UNL     1     -10.001 -10.718  14.124  0.00  0.00    +0.247 C 
ENDROOT
BRANCH  23  25
ATOM      1  F   UNL     1     -11.949  -6.633  15.873  0.00  0.00    -0.205 F 
ATOM     25  C   UNL     1     -10.207  -9.761  15.223  0.00  0.00    +0.040 A 
ATOM     28  C   UNL     1     -10.997  -8.628  15.023  0.00  0.00    +0.051 A 
ATOM     29  C   UNL     1      -9.613  -9.986  16.465  0.00  0.00    +0.013 A 
ATOM     31  C   UNL     1     -11.191  -7.721  16.064  0.00  0.00    +0.124 A 
ATOM     32  C   UNL     1      -9.808  -9.079  17.507  0.00  0.00    +0.004 A 
ATOM     34  C   UNL     1     -10.597  -7.947  17.307  0.00  0.00    +0.038 A 
ENDBRANCH  23  25
BRANCH  18  11
ATOM     11  C   UNL     1      -4.103  -9.956  11.304  0.00  0.00    +0.075 C 
ATOM     12  C   UNL     1      -3.355  -9.139  10.248  0.00  0.00    +0.013 C 
ATOM     13  C   UNL     1      -3.268 -11.142  11.791  0.00  0.00    +0.013 C 
ATOM     14  C   UNL     1      -1.980  -8.701  10.745  0.00  0.00    +0.001 C 
ATOM     15  C   UNL     1      -1.893 -10.698  12.285  0.00  0.00    +0.001 C 
ATOM     17  C   UNL     1      -1.151  -9.886  11.227  0.00  0.00    +0.000 C 
ENDBRANCH  18  11
BRANCH  16  22
ATOM      3  O   UNL     1      -6.096 -12.163  13.702  0.00  0.00    -0.274 OA
ATOM      9  N   UNL     1      -5.193 -10.409  14.938  0.00  0.00    -0.301 N 
ATOM     22  C   UNL     1      -5.909 -10.963  13.891  0.00  0.00    +0.236 C 
ATOM     39  H   UNL     1      -5.062  -9.403  14.969  0.00  0.00    +0.150 HD
BRANCH   9  24
ATOM     24  C   UNL     1      -4.560 -11.199  15.969  0.00  0.00    +0.186 C 
BRANCH  24  27
ATOM      6  O   UNL     1      -2.188 -10.739  16.019  0.00  0.00    -0.249 OA
ATOM     27  C   UNL     1      -3.096 -11.481  15.657  0.00  0.00    +0.328 C 
BRANCH  27   5
ATOM      5  O   UNL     1      -2.935 -12.622  14.929  0.00  0.00    -0.467 OA
ATOM     37  C   UNL     1      -3.760 -13.726  15.314  0.00  0.00    +0.280 C 
ENDBRANCH  27   5
ENDBRANCH  24  27
BRANCH  24  26
ATOM     26  C   UNL     1      -4.741 -10.575  17.360  0.00  0.00    +0.070 C 
BRANCH  26  30
ATOM     10  N   UNL     1      -7.403 -10.897  20.042  0.00  0.00    -0.263 NA
ATOM     30  C   UNL     1      -5.927 -11.101  18.138  0.00  0.00    -0.027 A 
ATOM     33  C   UNL     1      -6.622 -12.226  17.710  0.00  0.00    +0.006 A 
ATOM     35  C   UNL     1      -6.353 -10.479  19.300  0.00  0.00    +0.114 A 
ATOM     36  C   UNL     1      -7.708 -12.687  18.447  0.00  0.00    +0.020 A 
ATOM     38  C   UNL     1      -8.055 -11.994  19.595  0.00  0.00    +0.111 A 
ENDBRANCH  26  30
ENDBRANCH  24  26
ENDBRANCH   9  24
ENDBRANCH  16  22
TORSDOF 8
ENDMDL
MODEL 7
REMARK VINA RESULT:      -6.2      2.626      3.840
REMARK  Name = 7052041
REMARK  9 active torsions:
REMARK  status: ('A' for Active; 'I' for Inactive)
REMARK    1  A    between atoms: O_5  and  C_27
REMARK    2  A    between atoms: O_5  and  C_37
REMARK    3  A    between atoms: N_9  and  C_24
REMARK    4  A    between atoms: C_11  and  C_18
REMARK    5  A    between atoms: C_16  and  C_22
REMARK    6  A    between atoms: C_23  and  C_25
REMARK    7  A    between atoms: C_24  and  C_26
REMARK    8  A    between atoms: C_24  and  C_27
REMARK    9  A    between atoms: C_26  and  C_30
REMARK                            x       y       z     vdW  Elec       q    Type
REMARK                         _______ _______ _______ _____ _____    ______ ____
ROOT
ATOM      2  O   UNL     1      10.494   8.860  22.312  0.00  0.00    -0.275 OA
ATOM      4  O   UNL     1      16.249   6.335  19.172  0.00  0.00    -0.270 OA
ATOM      7  N   UNL     1      12.773   8.902  21.854  0.00  0.00    -0.287 N 
ATOM      8  N   UNL     1      15.175   7.613  20.805  0.00  0.00    -0.294 N 
ATOM     16  C   UNL     1      14.095   9.519  22.021  0.00  0.00    +0.179 C 
ATOM     18  C   UNL     1      11.581   9.442  22.348  0.00  0.00    +0.219 C 
ATOM     19  C   UNL     1      12.736   7.565  21.257  0.00  0.00    +0.127 C 
ATOM     20  C   UNL     1      15.240   8.504  21.972  0.00  0.00    +0.140 C 
ATOM     21  C   UNL     1      13.852   7.345  20.246  0.00  0.00    +0.127 C 
ATOM     23  C   UNL     1      16.289   7.049  20.174  0.00  0.00    +0.247 C 
ENDROOT
BRANCH  23  25
ATOM      1  F   UNL     1      19.689  10.137  21.736  0.00  0.00    -0.205 F 
ATOM     25  C   UNL     1      17.621   7.313  20.742  0.00  0.00    +0.040 A 
ATOM     28  C   UNL     1      18.032   8.626  20.975  0.00  0.00    +0.051 A 
ATOM     29  C   UNL     1      18.472   6.252  21.048  0.00  0.00    +0.013 A 
ATOM     31  C   UNL     1      19.293   8.877  21.513  0.00  0.00    +0.124 A 
ATOM     32  C   UNL     1      19.734   6.502  21.587  0.00  0.00    +0.004 A 
ATOM     34  C   UNL     1      20.145   7.815  21.820  0.00  0.00    +0.038 A 
ENDBRANCH  23  25
BRANCH  18  11
ATOM     11  C   UNL     1      11.662  10.810  22.959  0.00  0.00    +0.075 C 
ATOM     12  C   UNL     1      10.920  10.828  24.298  0.00  0.00    +0.013 C 
ATOM     13  C   UNL     1      11.093  11.849  21.990  0.00  0.00    +0.013 C 
ATOM     14  C   UNL     1      10.897  12.226  24.911  0.00  0.00    +0.001 C 
ATOM     15  C   UNL     1      11.070  13.244  22.608  0.00  0.00    +0.001 C 
ATOM     17  C   UNL     1      10.327  13.256  23.941  0.00  0.00    +0.000 C 
ENDBRANCH  18  11
BRANCH  16  22
ATOM      3  O   UNL     1      13.643  10.480  19.880  0.00  0.00    -0.274 OA
ATOM      9  N   UNL     1      15.209  11.504  21.267  0.00  0.00    -0.301 N 
ATOM     22  C   UNL     1      14.270  10.542  20.935  0.00  0.00    +0.236 C 
ATOM     39  H   UNL     1      15.632  11.484  22.189  0.00  0.00    +0.150 HD
BRANCH   9  24
ATOM     24  C   UNL     1      15.577  12.586  20.383  0.00  0.00    +0.186 C 
BRANCH  24  27
ATOM      6  O   UNL     1      14.443  14.236  21.736  0.00  0.00    -0.249 OA
ATOM     27  C   UNL     1      14.729  13.830  20.615  0.00  0.00    +0.328 C 
BRANCH  27   5
ATOM      5  O   UNL     1      14.326  14.403  19.445  0.00  0.00    -0.467 OA
ATOM     37  C   UNL     1      13.529  13.577  18.591  0.00  0.00    +0.280 C 
ENDBRANCH  27   5
ENDBRANCH  24  27
BRANCH  24  26
ATOM     26  C   UNL     1      17.080  12.895  20.453  0.00  0.00    +0.070 C 
BRANCH  26  30
ATOM     10  N   UNL     1      17.689  12.883  16.711  0.00  0.00    -0.263 NA
ATOM     30  C   UNL     1      17.800  12.832  19.125  0.00  0.00    -0.027 A 
ATOM     33  C   UNL     1      19.180  12.670  19.066  0.00  0.00    +0.006 A 
ATOM     35  C   UNL     1      17.107  12.932  17.930  0.00  0.00    +0.114 A 
ATOM     36  C   UNL     1      19.814  12.615  17.829  0.00  0.00    +0.020 A 
ATOM     38  C   UNL     1      19.031  12.725  16.692  0.00  0.00    +0.111 A 
ENDBRANCH  26  30
ENDBRANCH  24  26
ENDBRANCH   9  24
ENDBRANCH  16  22
TORSDOF 8
ENDMDL
MODEL 8
REMARK VINA RESULT:      -6.1     28.047     31.085
REMARK  Name = 7052041
REMARK  9 active torsions:
REMARK  status: ('A' for Active; 'I' for Inactive)
REMARK    1  A    between atoms: O_5  and  C_27
REMARK    2  A    between atoms: O_5  and  C_37
REMARK    3  A    between atoms: N_9  and  C_24
REMARK    4  A    between atoms: C_11  and  C_18
REMARK    5  A    between atoms: C_16  and  C_22
REMARK    6  A    between atoms: C_23  and  C_25
REMARK    7  A    between atoms: C_24  and  C_26
REMARK    8  A    between atoms: C_24  and  C_27
REMARK    9  A    between atoms: C_26  and  C_30
REMARK                            x       y       z     vdW  Elec       q    Type
REMARK                         _______ _______ _______ _____ _____    ______ ____
ROOT
ATOM      2  O   UNL     1      -6.127 -12.002  10.511  0.00  0.00    -0.275 OA
ATOM      4  O   UNL     1     -11.903 -10.635  14.268  0.00  0.00    -0.270 OA
ATOM      7  N   UNL     1      -7.243 -10.949  12.257  0.00  0.00    -0.287 N 
ATOM      8  N   UNL     1      -9.729 -10.152  13.567  0.00  0.00    -0.294 N 
ATOM     16  C   UNL     1      -7.229 -10.057  13.424  0.00  0.00    +0.179 C 
ATOM     18  C   UNL     1      -6.100 -11.355  11.561  0.00  0.00    +0.219 C 
ATOM     19  C   UNL     1      -8.554 -11.309  11.713  0.00  0.00    +0.127 C 
ATOM     20  C   UNL     1      -8.540  -9.288  13.605  0.00  0.00    +0.140 C 
ATOM     21  C   UNL     1      -9.631 -11.383  12.785  0.00  0.00    +0.127 C 
ATOM     23  C   UNL     1     -10.917  -9.899  14.260  0.00  0.00    +0.247 C 
ENDROOT
BRANCH  23  25
ATOM      1  F   UNL     1     -12.250  -5.252  14.671  0.00  0.00    -0.205 F 
ATOM     25  C   UNL     1     -11.017  -8.655  15.042  0.00  0.00    +0.040 A 
ATOM     28  C   UNL     1     -11.598  -7.520  14.475  0.00  0.00    +0.051 A 
ATOM     29  C   UNL     1     -10.531  -8.611  16.348  0.00  0.00    +0.013 A 
ATOM     31  C   UNL     1     -11.693  -6.342  15.214  0.00  0.00    +0.124 A 
ATOM     32  C   UNL     1     -10.626  -7.433  17.089  0.00  0.00    +0.004 A 
ATOM     34  C   UNL     1     -11.207  -6.298  16.522  0.00  0.00    +0.038 A 
ENDBRANCH  23  25
BRANCH  18  11
ATOM     11  C   UNL     1      -4.776 -10.960  12.146  0.00  0.00    +0.075 C 
ATOM     12  C   UNL     1      -3.899 -10.319  11.067  0.00  0.00    +0.013 C 
ATOM     13  C   UNL     1      -4.096 -12.181  12.769  0.00  0.00    +0.013 C 
ATOM     14  C   UNL     1      -2.507  -9.987  11.596  0.00  0.00    +0.001 C 
ATOM     15  C   UNL     1      -2.703 -11.843  13.294  0.00  0.00    +0.001 C 
ATOM     17  C   UNL     1      -1.832 -11.208  12.214  0.00  0.00    +0.000 C 
ENDBRANCH  18  11
BRANCH  16  22
ATOM      3  O   UNL     1      -6.993 -12.119  14.609  0.00  0.00    -0.274 OA
ATOM      9  N   UNL     1      -6.677 -10.118  15.757  0.00  0.00    -0.301 N 
ATOM     22  C   UNL     1      -6.951 -10.892  14.642  0.00  0.00    +0.236 C 
ATOM     39  H   UNL     1      -6.622  -9.109  15.657  0.00  0.00    +0.150 HD
BRANCH   9  24
ATOM     24  C   UNL     1      -6.400 -10.679  17.059  0.00  0.00    +0.186 C 
BRANCH  24  27
ATOM      6  O   UNL     1      -4.059 -10.296  16.597  0.00  0.00    -0.249 OA
ATOM     27  C   UNL     1      -4.922 -10.593  17.417  0.00  0.00    +0.328 C 
BRANCH  27   5
ATOM      5  O   UNL     1      -4.691 -10.898  18.726  0.00  0.00    -0.467 OA
ATOM     37  C   UNL     1      -4.085 -12.171  18.969  0.00  0.00    +0.280 C 
ENDBRANCH  27   5
ENDBRANCH  24  27
BRANCH  24  26
ATOM     26  C   UNL     1      -7.292 -10.064  18.148  0.00  0.00    +0.070 C 
BRANCH  26  30
ATOM     10  N   UNL     1     -10.282 -11.503  19.982  0.00  0.00    -0.263 NA
ATOM     30  C   UNL     1      -8.190 -11.052  18.860  0.00  0.00    -0.027 A 
ATOM     33  C   UNL     1      -7.791 -12.369  19.056  0.00  0.00    +0.006 A 
ATOM     35  C   UNL     1      -9.433 -10.672  19.338  0.00  0.00    +0.114 A 
ATOM     36  C   UNL     1      -8.639 -13.254  19.714  0.00  0.00    +0.020 A 
ATOM     38  C   UNL     1      -9.862 -12.776  20.155  0.00  0.00    +0.111 A 
ENDBRANCH  26  30
ENDBRANCH  24  26
ENDBRANCH   9  24
ENDBRANCH  16  22
TORSDOF 8
ENDMDL
MODEL 9
REMARK VINA RESULT:      -6.1     13.807     17.764
REMARK  Name = 7052041
REMARK  9 active torsions:
REMARK  status: ('A' for Active; 'I' for Inactive)
REMARK    1  A    between atoms: O_5  and  C_27
REMARK    2  A    between atoms: O_5  and  C_37
REMARK    3  A    between atoms: N_9  and  C_24
REMARK    4  A    between atoms: C_11  and  C_18
REMARK    5  A    between atoms: C_16  and  C_22
REMARK    6  A    between atoms: C_23  and  C_25
REMARK    7  A    between atoms: C_24  and  C_26
REMARK    8  A    between atoms: C_24  and  C_27
REMARK    9  A    between atoms: C_26  and  C_30
REMARK                            x       y       z     vdW  Elec       q    Type
REMARK                         _______ _______ _______ _____ _____    ______ ____
ROOT
ATOM      2  O   UNL     1      18.394  -2.827  32.188  0.00  0.00    -0.275 OA
ATOM      4  O   UNL     1      21.059  -1.864  25.759  0.00  0.00    -0.270 OA
ATOM      7  N   UNL     1      18.279  -2.972  29.870  0.00  0.00    -0.287 N 
ATOM      8  N   UNL     1      19.283  -2.239  27.228  0.00  0.00    -0.294 N 
ATOM     16  C   UNL     1      17.556  -3.364  28.653  0.00  0.00    +0.179 C 
ATOM     18  C   UNL     1      17.851  -3.264  31.170  0.00  0.00    +0.219 C 
ATOM     19  C   UNL     1      19.441  -2.098  29.699  0.00  0.00    +0.127 C 
ATOM     20  C   UNL     1      17.846  -2.445  27.464  0.00  0.00    +0.140 C 
ATOM     21  C   UNL     1      20.168  -2.342  28.386  0.00  0.00    +0.127 C 
ATOM     23  C   UNL     1      19.855  -1.997  25.974  0.00  0.00    +0.247 C 
ENDROOT
BRANCH  23  25
ATOM      1  F   UNL     1      18.278  -3.606  21.677  0.00  0.00    -0.205 F 
ATOM     25  C   UNL     1      18.962  -1.885  24.810  0.00  0.00    +0.040 A 
ATOM     28  C   UNL     1      19.045  -2.818  23.775  0.00  0.00    +0.051 A 
ATOM     29  C   UNL     1      18.032  -0.848  24.740  0.00  0.00    +0.013 A 
ATOM     31  C   UNL     1      18.199  -2.712  22.671  0.00  0.00    +0.124 A 
ATOM     32  C   UNL     1      17.186  -0.742  23.637  0.00  0.00    +0.004 A 
ATOM     34  C   UNL     1      17.269  -1.674  22.602  0.00  0.00    +0.038 A 
ENDBRANCH  23  25
BRANCH  18  11
ATOM     11  C   UNL     1      16.652  -4.156  31.303  0.00  0.00    +0.075 C 
ATOM     12  C   UNL     1      15.445  -3.341  31.773  0.00  0.00    +0.013 C 
ATOM     13  C   UNL     1      16.962  -5.305  32.265  0.00  0.00    +0.013 C 
ATOM     14  C   UNL     1      14.225  -4.227  32.012  0.00  0.00    +0.001 C 
ATOM     15  C   UNL     1      15.738  -6.187  32.502  0.00  0.00    +0.001 C 
ATOM     17  C   UNL     1      14.539  -5.370  32.973  0.00  0.00    +0.000 C 
ENDBRANCH  18  11
BRANCH  16  22
ATOM      3  O   UNL     1      18.819  -5.373  28.941  0.00  0.00    -0.274 OA
ATOM      9  N   UNL     1      17.228  -5.276  27.243  0.00  0.00    -0.301 N 
ATOM     22  C   UNL     1      17.945  -4.776  28.318  0.00  0.00    +0.236 C 
ATOM     39  H   UNL     1      16.493  -4.709  26.833  0.00  0.00    +0.150 HD
BRANCH   9  24
ATOM     24  C   UNL     1      17.429  -6.602  26.708  0.00  0.00    +0.186 C 
BRANCH  24  27
ATOM      6  O   UNL     1      15.441  -7.802  27.374  0.00  0.00    -0.249 OA
ATOM     27  C   UNL     1      16.654  -7.658  27.485  0.00  0.00    +0.328 C 
BRANCH  27   5
ATOM      5  O   UNL     1      17.460  -8.386  28.309  0.00  0.00    -0.467 OA
ATOM     37  C   UNL     1      18.734  -8.749  27.770  0.00  0.00    +0.280 C 
ENDBRANCH  27   5
ENDBRANCH  24  27
BRANCH  24  26
ATOM     26  C   UNL     1      17.131  -6.663  25.203  0.00  0.00    +0.070 C 
BRANCH  26  30
ATOM     10  N   UNL     1      20.742  -6.278  24.111  0.00  0.00    -0.263 NA
ATOM     30  C   UNL     1      18.351  -6.567  24.313  0.00  0.00    -0.027 A 
ATOM     33  C   UNL     1      18.238  -6.669  22.931  0.00  0.00    +0.006 A 
ATOM     35  C   UNL     1      19.614  -6.373  24.849  0.00  0.00    +0.114 A 
ATOM     36  C   UNL     1      19.378  -6.576  22.139  0.00  0.00    +0.020 A 
ATOM     38  C   UNL     1      20.595  -6.382  22.771  0.00  0.00    +0.111 A 
ENDBRANCH  26  30
ENDBRANCH  24  26
ENDBRANCH   9  24
ENDBRANCH  16  22
TORSDOF 8
ENDMDL
MODEL 10
REMARK VINA RESULT:      -6.1     13.764     16.989
REMARK  Name = 7052041
REMARK  9 active torsions:
REMARK  status: ('A' for Active; 'I' for Inactive)
REMARK    1  A    between atoms: O_5  and  C_27
REMARK    2  A    between atoms: O_5  and  C_37
REMARK    3  A    between atoms: N_9  and  C_24
REMARK    4  A    between atoms: C_11  and  C_18
REMARK    5  A    between atoms: C_16  and  C_22
REMARK    6  A    between atoms: C_23  and  C_25
REMARK    7  A    between atoms: C_24  and  C_26
REMARK    8  A    between atoms: C_24  and  C_27
REMARK    9  A    between atoms: C_26  and  C_30
REMARK                            x       y       z     vdW  Elec       q    Type
REMARK                         _______ _______ _______ _____ _____    ______ ____
ROOT
ATOM      2  O   UNL     1      12.458   8.304   1.585  0.00  0.00    -0.275 OA
ATOM      4  O   UNL     1      18.033  11.158   4.768  0.00  0.00    -0.270 OA
ATOM      7  N   UNL     1      14.274   8.205   3.034  0.00  0.00    -0.287 N 
ATOM      8  N   UNL     1      16.767   9.329   4.060  0.00  0.00    -0.294 N 
ATOM     16  C   UNL     1      15.101   7.458   3.989  0.00  0.00    +0.179 C 
ATOM     18  C   UNL     1      13.082   7.726   2.478  0.00  0.00    +0.219 C 
ATOM     19  C   UNL     1      14.819   9.468   2.530  0.00  0.00    +0.127 C 
ATOM     20  C   UNL     1      16.574   7.874   3.960  0.00  0.00    +0.140 C 
ATOM     21  C   UNL     1      15.690  10.178   3.554  0.00  0.00    +0.127 C 
ATOM     23  C   UNL     1      17.880   9.944   4.642  0.00  0.00    +0.247 C 
ENDROOT
BRANCH  23  25
ATOM      1  F   UNL     1      21.358   6.645   3.897  0.00  0.00    -0.205 F 
ATOM     25  C   UNL     1      18.967   9.087   5.144  0.00  0.00    +0.040 A 
ATOM     28  C   UNL     1      19.662   8.255   4.265  0.00  0.00    +0.051 A 
ATOM     29  C   UNL     1      19.303   9.107   6.497  0.00  0.00    +0.013 A 
ATOM     31  C   UNL     1      20.691   7.444   4.740  0.00  0.00    +0.124 A 
ATOM     32  C   UNL     1      20.333   8.296   6.972  0.00  0.00    +0.004 A 
ATOM     34  C   UNL     1      21.028   7.464   6.094  0.00  0.00    +0.038 A 
ENDBRANCH  23  25
BRANCH  18  11
ATOM     11  C   UNL     1      12.561   6.426   3.015  0.00  0.00    +0.075 C 
ATOM     12  C   UNL     1      12.525   5.378   1.900  0.00  0.00    +0.013 C 
ATOM     13  C   UNL     1      11.177   6.634   3.633  0.00  0.00    +0.013 C 
ATOM     14  C   UNL     1      11.913   4.065   2.380  0.00  0.00    +0.001 C 
ATOM     15  C   UNL     1      10.568   5.318   4.109  0.00  0.00    +0.001 C 
ATOM     17  C   UNL     1      10.532   4.278   2.992  0.00  0.00    +0.000 C 
ENDBRANCH  18  11
BRANCH  16  22
ATOM      3  O   UNL     1      14.863   6.977   6.319  0.00  0.00    -0.274 OA
ATOM      9  N   UNL     1      13.614   8.710   5.393  0.00  0.00    -0.301 N 
ATOM     22  C   UNL     1      14.534   7.676   5.363  0.00  0.00    +0.236 C 
ATOM     39  H   UNL     1      13.454   9.253   4.550  0.00  0.00    +0.150 HD
BRANCH   9  24
ATOM     24  C   UNL     1      12.908   9.106   6.589  0.00  0.00    +0.186 C 
BRANCH  24  27
ATOM      6  O   UNL     1      12.582  11.197   7.755  0.00  0.00    -0.249 OA
ATOM     27  C   UNL     1      13.311  10.497   7.060  0.00  0.00    +0.328 C 
BRANCH  27   5
ATOM      5  O   UNL     1      14.545  10.857   6.605  0.00  0.00    -0.467 OA
ATOM     37  C   UNL     1      15.284  11.743   7.450  0.00  0.00    +0.280 C 
ENDBRANCH  27   5
ENDBRANCH  24  27
BRANCH  24  26
ATOM     26  C   UNL     1      11.387   8.973   6.425  0.00  0.00    +0.070 C 
BRANCH  26  30
ATOM     10  N   UNL     1      11.016   5.614   8.144  0.00  0.00    -0.263 NA
ATOM     30  C   UNL     1      10.769   7.815   7.177  0.00  0.00    -0.027 A 
ATOM     33  C   UNL     1       9.441   7.855   7.586  0.00  0.00    +0.006 A 
ATOM     35  C   UNL     1      11.507   6.682   7.477  0.00  0.00    +0.114 A 
ATOM     36  C   UNL     1       8.900   6.774   8.275  0.00  0.00    +0.020 A 
ATOM     38  C   UNL     1       9.721   5.687   8.527  0.00  0.00    +0.111 A 
ENDBRANCH  26  30
ENDBRANCH  24  26
ENDBRANCH   9  24
ENDBRANCH  16  22
TORSDOF 8
ENDMDL
