MODEL 1
REMARK VINA RESULT:      -6.4      0.000      0.000
REMARK  Name = 7674736
REMARK  7 active torsions:
REMARK  status: ('A' for Active; 'I' for Inactive)
REMARK    1  A    between atoms: S_1  and  N_9
REMARK    2  A    between atoms: S_1  and  C_20
REMARK    3  A    between atoms: O_8  and  C_30
REMARK    4  A    between atoms: O_8  and  C_31
REMARK    5  A    between atoms: C_20  and  C_23
REMARK    6  A    between atoms: C_21  and  C_24
REMARK    7  A    between atoms: C_23  and  C_25
REMARK                            x       y       z     vdW  Elec       q    Type
REMARK                         _______ _______ _______ _____ _____    ______ ____
ROOT
ATOM      7  O   UNL     1      11.229   3.755   3.161  0.00  0.00    -0.267 OA
ATOM      9  N   UNL     1      13.965   5.553  -0.598  0.00  0.00    -0.180 NA
ATOM     10  N   UNL     1      11.399   4.831   1.099  0.00  0.00    -0.311 N 
ATOM     11  C   UNL     1      12.358   3.682  -0.980  0.00  0.00    +0.025 C 
ATOM     12  C   UNL     1      11.577   6.005  -1.121  0.00  0.00    +0.052 C 
ATOM     13  C   UNL     1      11.439   4.621  -1.750  0.00  0.00    +0.017 C 
ATOM     14  C   UNL     1      13.818   4.151  -1.081  0.00  0.00    +0.114 C 
ATOM     15  C   UNL     1      13.027   6.499  -1.276  0.00  0.00    +0.118 C 
ATOM     16  C   UNL     1      11.871   3.588   0.471  0.00  0.00    +0.130 C 
ATOM     17  C   UNL     1      11.179   5.983   0.342  0.00  0.00    +0.026 A 
ATOM     18  C   UNL     1      10.638   7.071   0.914  0.00  0.00    +0.022 A 
ATOM     19  C   UNL     1      11.082   4.764   2.470  0.00  0.00    +0.259 A 
ATOM     21  C   UNL     1      10.511   6.011   3.092  0.00  0.00    +0.047 A 
ATOM     22  C   UNL     1      10.306   7.083   2.311  0.00  0.00    +0.015 A 
ENDROOT
BRANCH  21  24
ATOM     24  C   UNL     1      10.187   6.068   4.527  0.00  0.00    -0.012 A 
ATOM     26  C   UNL     1       8.860   5.977   4.949  0.00  0.00    +0.012 A 
ATOM     27  C   UNL     1      11.208   6.215   5.468  0.00  0.00    +0.012 A 
ATOM     28  C   UNL     1       8.554   6.032   6.308  0.00  0.00    +0.046 A 
ATOM     29  C   UNL     1      10.901   6.270   6.827  0.00  0.00    +0.046 A 
ATOM     30  C   UNL     1       9.575   6.178   7.248  0.00  0.00    +0.130 A 
BRANCH  30   8
ATOM      8  O   UNL     1       9.276   6.233   8.575  0.00  0.00    -0.406 OA
BRANCH   8  31
ATOM      2  F   UNL     1       9.518   3.959   8.547  0.00  0.00    -0.133 F 
ATOM      3  F   UNL     1       8.297   4.889  10.101  0.00  0.00    -0.133 F 
ATOM      4  F   UNL     1      10.469   5.115  10.173  0.00  0.00    -0.133 F 
ATOM     31  C   UNL     1       9.407   5.043   9.344  0.00  0.00    +0.575 C 
ENDBRANCH   8  31
ENDBRANCH  30   8
ENDBRANCH  21  24
BRANCH   9   1
ATOM      1  S   UNL     1      15.573   6.109  -0.416  0.00  0.00    +0.032 S 
ATOM      5  O   UNL     1      15.853   7.076  -1.456  0.00  0.00    -0.158 OA
ATOM      6  O   UNL     1      16.437   4.972  -0.185  0.00  0.00    -0.158 OA
BRANCH   1  20
ATOM     20  C   UNL     1      15.399   6.987   1.115  0.00  0.00    +0.185 C 
BRANCH  20  23
ATOM     23  C   UNL     1      14.521   6.225   2.094  0.00  0.00    +0.021 C 
ATOM     25  C   UNL     1      14.028   7.124   3.215  0.00  0.00    +0.005 C 
ENDBRANCH  20  23
ENDBRANCH   1  20
ENDBRANCH   9   1
TORSDOF 6
ENDMDL
MODEL 2
REMARK VINA RESULT:      -6.2      2.650      3.894
REMARK  Name = 7674736
REMARK  7 active torsions:
REMARK  status: ('A' for Active; 'I' for Inactive)
REMARK    1  A    between atoms: S_1  and  N_9
REMARK    2  A    between atoms: S_1  and  C_20
REMARK    3  A    between atoms: O_8  and  C_30
REMARK    4  A    between atoms: O_8  and  C_31
REMARK    5  A    between atoms: C_20  and  C_23
REMARK    6  A    between atoms: C_21  and  C_24
REMARK    7  A    between atoms: C_23  and  C_25
REMARK                            x       y       z     vdW  Elec       q    Type
REMARK                         _______ _______ _______ _____ _____    ______ ____
ROOT
ATOM      7  O   UNL     1      11.738   7.062   1.406  0.00  0.00    -0.267 OA
ATOM      9  N   UNL     1      11.684   4.329  -2.764  0.00  0.00    -0.180 NA
ATOM     10  N   UNL     1      12.701   5.466   0.005  0.00  0.00    -0.311 N 
ATOM     11  C   UNL     1      13.487   6.011  -2.371  0.00  0.00    +0.025 C 
ATOM     12  C   UNL     1      13.738   3.731  -1.497  0.00  0.00    +0.052 C 
ATOM     13  C   UNL     1      14.492   4.889  -2.146  0.00  0.00    +0.017 C 
ATOM     14  C   UNL     1      12.357   5.545  -3.303  0.00  0.00    +0.114 C 
ATOM     15  C   UNL     1      12.645   3.227  -2.456  0.00  0.00    +0.118 C 
ATOM     16  C   UNL     1      12.965   6.494  -1.012  0.00  0.00    +0.130 C 
ATOM     17  C   UNL     1      13.129   4.148  -0.173  0.00  0.00    +0.026 A 
ATOM     18  C   UNL     1      12.981   3.253   0.817  0.00  0.00    +0.022 A 
ATOM     19  C   UNL     1      12.096   5.901   1.200  0.00  0.00    +0.259 A 
ATOM     21  C   UNL     1      11.910   4.867   2.278  0.00  0.00    +0.047 A 
ATOM     22  C   UNL     1      12.356   3.621   2.057  0.00  0.00    +0.015 A 
ENDROOT
BRANCH  21  24
ATOM     24  C   UNL     1      11.247   5.201   3.550  0.00  0.00    -0.012 A 
ATOM     26  C   UNL     1      10.132   4.475   3.969  0.00  0.00    +0.012 A 
ATOM     27  C   UNL     1      11.733   6.246   4.337  0.00  0.00    +0.012 A 
ATOM     28  C   UNL     1       9.504   4.792   5.174  0.00  0.00    +0.046 A 
ATOM     29  C   UNL     1      11.106   6.563   5.541  0.00  0.00    +0.046 A 
ATOM     30  C   UNL     1       9.992   5.836   5.960  0.00  0.00    +0.130 A 
BRANCH  30   8
ATOM      8  O   UNL     1       9.379   6.146   7.136  0.00  0.00    -0.406 OA
BRANCH   8  31
ATOM      2  F   UNL     1       9.715   4.091   8.081  0.00  0.00    -0.133 F 
ATOM      3  F   UNL     1       8.878   5.706   9.291  0.00  0.00    -0.133 F 
ATOM      4  F   UNL     1      10.986   5.782   8.722  0.00  0.00    -0.133 F 
ATOM     31  C   UNL     1       9.754   5.422   8.302  0.00  0.00    +0.575 C 
ENDBRANCH   8  31
ENDBRANCH  30   8
ENDBRANCH  21  24
BRANCH   9   1
ATOM      1  S   UNL     1      10.250   3.858  -3.567  0.00  0.00    +0.032 S 
ATOM      5  O   UNL     1       9.793   2.603  -3.011  0.00  0.00    -0.158 OA
ATOM      6  O   UNL     1      10.433   4.034  -4.992  0.00  0.00    -0.158 OA
BRANCH   1  20
ATOM     20  C   UNL     1       9.166   5.139  -2.991  0.00  0.00    +0.185 C 
BRANCH  20  23
ATOM     23  C   UNL     1       9.369   5.413  -1.510  0.00  0.00    +0.021 C 
ATOM     25  C   UNL     1       9.357   6.902  -1.213  0.00  0.00    +0.005 C 
ENDBRANCH  20  23
ENDBRANCH   1  20
ENDBRANCH   9   1
TORSDOF 6
ENDMDL
MODEL 3
REMARK VINA RESULT:      -6.1     24.999     27.847
REMARK  Name = 7674736
REMARK  7 active torsions:
REMARK  status: ('A' for Active; 'I' for Inactive)
REMARK    1  A    between atoms: S_1  and  N_9
REMARK    2  A    between atoms: S_1  and  C_20
REMARK    3  A    between atoms: O_8  and  C_30
REMARK    4  A    between atoms: O_8  and  C_31
REMARK    5  A    between atoms: C_20  and  C_23
REMARK    6  A    between atoms: C_21  and  C_24
REMARK    7  A    between atoms: C_23  and  C_25
REMARK                            x       y       z     vdW  Elec       q    Type
REMARK                         _______ _______ _______ _____ _____    ______ ____
ROOT
ATOM      7  O   UNL     1      -6.778 -10.347  13.994  0.00  0.00    -0.267 OA
ATOM      9  N   UNL     1      -2.564 -12.951  13.435  0.00  0.00    -0.180 NA
ATOM     10  N   UNL     1      -4.471 -10.569  14.257  0.00  0.00    -0.311 N 
ATOM     11  C   UNL     1      -2.869 -10.766  12.268  0.00  0.00    +0.025 C 
ATOM     12  C   UNL     1      -1.982 -10.810  14.557  0.00  0.00    +0.052 C 
ATOM     13  C   UNL     1      -1.854 -10.119  13.202  0.00  0.00    +0.017 C 
ATOM     14  C   UNL     1      -2.580 -12.267  12.111  0.00  0.00    +0.114 C 
ATOM     15  C   UNL     1      -1.635 -12.302  14.410  0.00  0.00    +0.118 C 
ATOM     16  C   UNL     1      -4.281 -10.493  12.801  0.00  0.00    +0.130 C 
ATOM     17  C   UNL     1      -3.379 -10.646  15.124  0.00  0.00    +0.026 A 
ATOM     18  C   UNL     1      -3.570 -10.597  16.453  0.00  0.00    +0.022 A 
ATOM     19  C   UNL     1      -5.794 -10.452  14.728  0.00  0.00    +0.259 A 
ATOM     21  C   UNL     1      -5.980 -10.436  16.221  0.00  0.00    +0.047 A 
ATOM     22  C   UNL     1      -4.892 -10.497  17.005  0.00  0.00    +0.015 A 
ENDROOT
BRANCH  21  24
ATOM     24  C   UNL     1      -7.322 -10.364  16.823  0.00  0.00    -0.012 A 
ATOM     26  C   UNL     1      -7.986 -11.533  17.195  0.00  0.00    +0.012 A 
ATOM     27  C   UNL     1      -7.932  -9.124  17.020  0.00  0.00    +0.012 A 
ATOM     28  C   UNL     1      -9.257 -11.464  17.764  0.00  0.00    +0.046 A 
ATOM     29  C   UNL     1      -9.204  -9.055  17.590  0.00  0.00    +0.046 A 
ATOM     30  C   UNL     1      -9.866 -10.224  17.962  0.00  0.00    +0.130 A 
BRANCH  30   8
ATOM      8  O   UNL     1     -11.107 -10.157  18.517  0.00  0.00    -0.406 OA
BRANCH   8  31
ATOM      2  F   UNL     1     -10.051 -10.193  20.544  0.00  0.00    -0.133 F 
ATOM      3  F   UNL     1     -11.618 -11.656  20.125  0.00  0.00    -0.133 F 
ATOM      4  F   UNL     1     -12.168  -9.567  20.455  0.00  0.00    -0.133 F 
ATOM     31  C   UNL     1     -11.232 -10.377  19.917  0.00  0.00    +0.575 C 
ENDBRANCH   8  31
ENDBRANCH  30   8
ENDBRANCH  21  24
BRANCH   9   1
ATOM      1  S   UNL     1      -2.507 -14.660  13.386  0.00  0.00    +0.032 S 
ATOM      5  O   UNL     1      -1.158 -15.092  13.679  0.00  0.00    -0.158 OA
ATOM      6  O   UNL     1      -3.210 -15.116  12.206  0.00  0.00    -0.158 OA
BRANCH   1  20
ATOM     20  C   UNL     1      -3.518 -15.020  14.799  0.00  0.00    +0.185 C 
BRANCH  20  23
ATOM     23  C   UNL     1      -4.758 -14.143  14.831  0.00  0.00    +0.021 C 
ATOM     25  C   UNL     1      -5.365 -14.088  16.222  0.00  0.00    +0.005 C 
ENDBRANCH  20  23
ENDBRANCH   1  20
ENDBRANCH   9   1
TORSDOF 6
ENDMDL
MODEL 4
REMARK VINA RESULT:      -6.0      3.000      4.705
REMARK  Name = 7674736
REMARK  7 active torsions:
REMARK  status: ('A' for Active; 'I' for Inactive)
REMARK    1  A    between atoms: S_1  and  N_9
REMARK    2  A    between atoms: S_1  and  C_20
REMARK    3  A    between atoms: O_8  and  C_30
REMARK    4  A    between atoms: O_8  and  C_31
REMARK    5  A    between atoms: C_20  and  C_23
REMARK    6  A    between atoms: C_21  and  C_24
REMARK    7  A    between atoms: C_23  and  C_25
REMARK                            x       y       z     vdW  Elec       q    Type
REMARK                         _______ _______ _______ _____ _____    ______ ____
ROOT
ATOM      7  O   UNL     1      11.256   6.969   1.193  0.00  0.00    -0.267 OA
ATOM      9  N   UNL     1      11.435   3.898  -2.730  0.00  0.00    -0.180 NA
ATOM     10  N   UNL     1      12.398   5.434  -0.142  0.00  0.00    -0.311 N 
ATOM     11  C   UNL     1      12.941   5.885  -2.604  0.00  0.00    +0.025 C 
ATOM     12  C   UNL     1      13.630   3.767  -1.571  0.00  0.00    +0.052 C 
ATOM     13  C   UNL     1      14.135   4.971  -2.362  0.00  0.00    +0.017 C 
ATOM     14  C   UNL     1      11.856   5.155  -3.412  0.00  0.00    +0.114 C 
ATOM     15  C   UNL     1      12.586   3.003  -2.406  0.00  0.00    +0.118 C 
ATOM     16  C   UNL     1      12.423   6.395  -1.254  0.00  0.00    +0.130 C 
ATOM     17  C   UNL     1      13.035   4.196  -0.244  0.00  0.00    +0.026 A 
ATOM     18  C   UNL     1      13.099   3.382   0.823  0.00  0.00    +0.022 A 
ATOM     19  C   UNL     1      11.796   5.870   1.056  0.00  0.00    +0.259 A 
ATOM     21  C   UNL     1      11.852   4.921   2.223  0.00  0.00    +0.047 A 
ATOM     22  C   UNL     1      12.492   3.752   2.071  0.00  0.00    +0.015 A 
ENDROOT
BRANCH  21  24
ATOM     24  C   UNL     1      11.215   5.255   3.509  0.00  0.00    -0.012 A 
ATOM     26  C   UNL     1      11.720   6.293   4.291  0.00  0.00    +0.012 A 
ATOM     27  C   UNL     1      10.105   4.530   3.946  0.00  0.00    +0.012 A 
ATOM     28  C   UNL     1      11.117   6.608   5.508  0.00  0.00    +0.046 A 
ATOM     29  C   UNL     1       9.502   4.844   5.163  0.00  0.00    +0.046 A 
ATOM     30  C   UNL     1      10.007   5.884   5.944  0.00  0.00    +0.130 A 
BRANCH  30   8
ATOM      8  O   UNL     1       9.419   6.190   7.133  0.00  0.00    -0.406 OA
BRANCH   8  31
ATOM      2  F   UNL     1      11.074   5.719   8.638  0.00  0.00    -0.133 F 
ATOM      3  F   UNL     1       9.720   4.128   7.999  0.00  0.00    -0.133 F 
ATOM      4  F   UNL     1       8.973   5.699   9.321  0.00  0.00    -0.133 F 
ATOM     31  C   UNL     1       9.800   5.447   8.285  0.00  0.00    +0.575 C 
ENDBRANCH   8  31
ENDBRANCH  30   8
ENDBRANCH  21  24
BRANCH   9   1
ATOM      1  S   UNL     1      10.059   3.124  -3.389  0.00  0.00    +0.032 S 
ATOM      5  O   UNL     1       8.923   4.014  -3.276  0.00  0.00    -0.158 OA
ATOM      6  O   UNL     1      10.009   1.764  -2.898  0.00  0.00    -0.158 OA
BRANCH   1  20
ATOM     20  C   UNL     1      10.548   3.074  -5.093  0.00  0.00    +0.185 C 
BRANCH  20  23
ATOM     23  C   UNL     1       9.509   3.728  -5.988  0.00  0.00    +0.021 C 
ATOM     25  C   UNL     1       9.298   2.936  -7.267  0.00  0.00    +0.005 C 
ENDBRANCH  20  23
ENDBRANCH   1  20
ENDBRANCH   9   1
TORSDOF 6
ENDMDL
MODEL 5
REMARK VINA RESULT:      -5.9     27.584     29.912
REMARK  Name = 7674736
REMARK  7 active torsions:
REMARK  status: ('A' for Active; 'I' for Inactive)
REMARK    1  A    between atoms: S_1  and  N_9
REMARK    2  A    between atoms: S_1  and  C_20
REMARK    3  A    between atoms: O_8  and  C_30
REMARK    4  A    between atoms: O_8  and  C_31
REMARK    5  A    between atoms: C_20  and  C_23
REMARK    6  A    between atoms: C_21  and  C_24
REMARK    7  A    between atoms: C_23  and  C_25
REMARK                            x       y       z     vdW  Elec       q    Type
REMARK                         _______ _______ _______ _____ _____    ______ ____
ROOT
ATOM      7  O   UNL     1     -13.035   9.955  20.566  0.00  0.00    -0.267 OA
ATOM      9  N   UNL     1     -12.121  11.753  16.007  0.00  0.00    -0.180 NA
ATOM     10  N   UNL     1     -11.581  10.347  18.786  0.00  0.00    -0.311 N 
ATOM     11  C   UNL     1     -10.964  12.707  18.004  0.00  0.00    +0.025 C 
ATOM     12  C   UNL     1     -10.010  10.754  16.860  0.00  0.00    +0.052 C 
ATOM     13  C   UNL     1      -9.657  12.065  17.558  0.00  0.00    +0.017 C 
ATOM     14  C   UNL     1     -11.865  12.994  16.792  0.00  0.00    +0.114 C 
ATOM     15  C   UNL     1     -10.864  11.049  15.613  0.00  0.00    +0.118 C 
ATOM     16  C   UNL     1     -11.641  11.795  19.034  0.00  0.00    +0.130 C 
ATOM     17  C   UNL     1     -10.749   9.818  17.797  0.00  0.00    +0.026 A 
ATOM     18  C   UNL     1     -10.622   8.488  17.665  0.00  0.00    +0.022 A 
ATOM     19  C   UNL     1     -12.319   9.525  19.661  0.00  0.00    +0.259 A 
ATOM     21  C   UNL     1     -12.185   8.039  19.465  0.00  0.00    +0.047 A 
ATOM     22  C   UNL     1     -11.357   7.589  18.510  0.00  0.00    +0.015 A 
ENDROOT
BRANCH  21  24
ATOM     24  C   UNL     1     -12.946   7.088  20.293  0.00  0.00    -0.012 A 
ATOM     26  C   UNL     1     -12.285   6.287  21.224  0.00  0.00    +0.012 A 
ATOM     27  C   UNL     1     -14.331   6.988  20.146  0.00  0.00    +0.012 A 
ATOM     28  C   UNL     1     -13.006   5.386  22.008  0.00  0.00    +0.046 A 
ATOM     29  C   UNL     1     -15.052   6.087  20.930  0.00  0.00    +0.046 A 
ATOM     30  C   UNL     1     -14.391   5.287  21.861  0.00  0.00    +0.130 A 
BRANCH  30   8
ATOM      8  O   UNL     1     -15.094   4.408  22.625  0.00  0.00    -0.406 OA
BRANCH   8  31
ATOM      2  F   UNL     1     -17.144   4.813  23.554  0.00  0.00    -0.133 F 
ATOM      3  F   UNL     1     -15.510   6.221  23.902  0.00  0.00    -0.133 F 
ATOM      4  F   UNL     1     -15.460   4.267  24.878  0.00  0.00    -0.133 F 
ATOM     31  C   UNL     1     -15.811   4.913  23.746  0.00  0.00    +0.575 C 
ENDBRANCH   8  31
ENDBRANCH  30   8
ENDBRANCH  21  24
BRANCH   9   1
ATOM      1  S   UNL     1     -13.312  11.882  14.785  0.00  0.00    +0.032 S 
ATOM      5  O   UNL     1     -12.652  12.012  13.504  0.00  0.00    -0.158 OA
ATOM      6  O   UNL     1     -14.324  12.821  15.217  0.00  0.00    -0.158 OA
BRANCH   1  20
ATOM     20  C   UNL     1     -13.999  10.250  14.885  0.00  0.00    +0.185 C 
BRANCH  20  23
ATOM     23  C   UNL     1     -14.141   9.795  16.328  0.00  0.00    +0.021 C 
ATOM     25  C   UNL     1     -14.406   8.302  16.417  0.00  0.00    +0.005 C 
ENDBRANCH  20  23
ENDBRANCH   1  20
ENDBRANCH   9   1
TORSDOF 6
ENDMDL
MODEL 6
REMARK VINA RESULT:      -5.9     13.830     15.310
REMARK  Name = 7674736
REMARK  7 active torsions:
REMARK  status: ('A' for Active; 'I' for Inactive)
REMARK    1  A    between atoms: S_1  and  N_9
REMARK    2  A    between atoms: S_1  and  C_20
REMARK    3  A    between atoms: O_8  and  C_30
REMARK    4  A    between atoms: O_8  and  C_31
REMARK    5  A    between atoms: C_20  and  C_23
REMARK    6  A    between atoms: C_21  and  C_24
REMARK    7  A    between atoms: C_23  and  C_25
REMARK                            x       y       z     vdW  Elec       q    Type
REMARK                         _______ _______ _______ _____ _____    ______ ____
ROOT
ATOM      7  O   UNL     1      14.431   9.439  15.011  0.00  0.00    -0.267 OA
ATOM      9  N   UNL     1      18.422  12.387  14.526  0.00  0.00    -0.180 NA
ATOM     10  N   UNL     1      15.420  11.551  15.052  0.00  0.00    -0.311 N 
ATOM     11  C   UNL     1      16.477  12.618  12.978  0.00  0.00    +0.025 C 
ATOM     12  C   UNL     1      16.485  13.832  15.113  0.00  0.00    +0.052 C 
ATOM     13  C   UNL     1      16.102  13.938  13.639  0.00  0.00    +0.017 C 
ATOM     14  C   UNL     1      17.988  12.363  13.100  0.00  0.00    +0.114 C 
ATOM     15  C   UNL     1      18.007  13.635  15.235  0.00  0.00    +0.118 C 
ATOM     16  C   UNL     1      15.640  11.494  13.600  0.00  0.00    +0.130 C 
ATOM     17  C   UNL     1      15.748  12.691  15.788  0.00  0.00    +0.026 A 
ATOM     18  C   UNL     1      15.432  12.766  17.091  0.00  0.00    +0.022 A 
ATOM     19  C   UNL     1      14.767  10.446  15.636  0.00  0.00    +0.259 A 
ATOM     21  C   UNL     1      14.459  10.544  17.105  0.00  0.00    +0.047 A 
ATOM     22  C   UNL     1      14.783  11.671  17.757  0.00  0.00    +0.015 A 
ENDROOT
BRANCH  21  24
ATOM     24  C   UNL     1      13.820   9.430  17.827  0.00  0.00    -0.012 A 
ATOM     26  C   UNL     1      12.431   9.374  17.940  0.00  0.00    +0.012 A 
ATOM     27  C   UNL     1      14.606   8.429  18.400  0.00  0.00    +0.012 A 
ATOM     28  C   UNL     1      11.828   8.320  18.624  0.00  0.00    +0.046 A 
ATOM     29  C   UNL     1      14.003   7.374  19.084  0.00  0.00    +0.046 A 
ATOM     30  C   UNL     1      12.614   7.318  19.196  0.00  0.00    +0.130 A 
BRANCH  30   8
ATOM      8  O   UNL     1      12.025   6.289  19.864  0.00  0.00    -0.406 OA
BRANCH   8  31
ATOM      2  F   UNL     1      10.434   7.255  21.193  0.00  0.00    -0.133 F 
ATOM      3  F   UNL     1      12.513   7.216  21.863  0.00  0.00    -0.133 F 
ATOM      4  F   UNL     1      11.363   5.359  21.845  0.00  0.00    -0.133 F 
ATOM     31  C   UNL     1      11.567   6.522  21.191  0.00  0.00    +0.575 C 
ENDBRANCH   8  31
ENDBRANCH  30   8
ENDBRANCH  21  24
BRANCH   9   1
ATOM      1  S   UNL     1      20.024  11.865  14.821  0.00  0.00    +0.032 S 
ATOM      5  O   UNL     1      20.261  10.643  14.084  0.00  0.00    -0.158 OA
ATOM      6  O   UNL     1      20.292  11.960  16.240  0.00  0.00    -0.158 OA
BRANCH   1  20
ATOM     20  C   UNL     1      20.904  13.175  14.009  0.00  0.00    +0.185 C 
BRANCH  20  23
ATOM     23  C   UNL     1      21.856  12.633  12.957  0.00  0.00    +0.021 C 
ATOM     25  C   UNL     1      21.359  12.927  11.552  0.00  0.00    +0.005 C 
ENDBRANCH  20  23
ENDBRANCH   1  20
ENDBRANCH   9   1
TORSDOF 6
ENDMDL
MODEL 7
REMARK VINA RESULT:      -5.9     27.239     30.527
REMARK  Name = 7674736
REMARK  7 active torsions:
REMARK  status: ('A' for Active; 'I' for Inactive)
REMARK    1  A    between atoms: S_1  and  N_9
REMARK    2  A    between atoms: S_1  and  C_20
REMARK    3  A    between atoms: O_8  and  C_30
REMARK    4  A    between atoms: O_8  and  C_31
REMARK    5  A    between atoms: C_20  and  C_23
REMARK    6  A    between atoms: C_21  and  C_24
REMARK    7  A    between atoms: C_23  and  C_25
REMARK                            x       y       z     vdW  Elec       q    Type
REMARK                         _______ _______ _______ _____ _____    ______ ____
ROOT
ATOM      7  O   UNL     1     -14.804   9.533  19.992  0.00  0.00    -0.267 OA
ATOM      9  N   UNL     1     -11.491   9.756  16.274  0.00  0.00    -0.180 NA
ATOM     10  N   UNL     1     -12.604   9.670  19.231  0.00  0.00    -0.311 N 
ATOM     11  C   UNL     1     -11.738  11.660  17.871  0.00  0.00    +0.025 C 
ATOM     12  C   UNL     1     -10.226   9.803  18.414  0.00  0.00    +0.052 C 
ATOM     13  C   UNL     1     -10.390  11.319  18.494  0.00  0.00    +0.017 C 
ATOM     14  C   UNL     1     -11.782  11.213  16.401  0.00  0.00    +0.114 C 
ATOM     15  C   UNL     1     -10.211   9.363  16.939  0.00  0.00    +0.118 C 
ATOM     16  C   UNL     1     -12.851  11.023  18.711  0.00  0.00    +0.130 C 
ATOM     17  C   UNL     1     -11.334   9.093  19.167  0.00  0.00    +0.026 A 
ATOM     18  C   UNL     1     -11.105   7.905  19.751  0.00  0.00    +0.022 A 
ATOM     19  C   UNL     1     -13.681   9.039  19.885  0.00  0.00    +0.259 A 
ATOM     21  C   UNL     1     -13.402   7.693  20.498  0.00  0.00    +0.047 A 
ATOM     22  C   UNL     1     -12.159   7.196  20.420  0.00  0.00    +0.015 A 
ENDROOT
BRANCH  21  24
ATOM     24  C   UNL     1     -14.466   6.924  21.167  0.00  0.00    -0.012 A 
ATOM     26  C   UNL     1     -14.551   6.912  22.559  0.00  0.00    +0.012 A 
ATOM     27  C   UNL     1     -15.390   6.205  20.407  0.00  0.00    +0.012 A 
ATOM     28  C   UNL     1     -15.558   6.183  23.191  0.00  0.00    +0.046 A 
ATOM     29  C   UNL     1     -16.397   5.476  21.039  0.00  0.00    +0.046 A 
ATOM     30  C   UNL     1     -16.482   5.465  22.430  0.00  0.00    +0.130 A 
BRANCH  30   8
ATOM      8  O   UNL     1     -17.464   4.753  23.048  0.00  0.00    -0.406 OA
BRANCH   8  31
ATOM      2  F   UNL     1     -17.868   2.699  22.128  0.00  0.00    -0.133 F 
ATOM      3  F   UNL     1     -17.915   2.931  24.300  0.00  0.00    -0.133 F 
ATOM      4  F   UNL     1     -15.996   3.013  23.260  0.00  0.00    -0.133 F 
ATOM     31  C   UNL     1     -17.301   3.345  23.169  0.00  0.00    +0.575 C 
ENDBRANCH   8  31
ENDBRANCH  30   8
ENDBRANCH  21  24
BRANCH   9   1
ATOM      1  S   UNL     1     -11.759   9.079  14.726  0.00  0.00    +0.032 S 
ATOM      5  O   UNL     1     -10.924   7.906  14.579  0.00  0.00    -0.158 OA
ATOM      6  O   UNL     1     -11.754  10.142  13.745  0.00  0.00    -0.158 OA
BRANCH   1  20
ATOM     20  C   UNL     1     -13.434   8.537  14.939  0.00  0.00    +0.185 C 
BRANCH  20  23
ATOM     23  C   UNL     1     -13.705   8.124  16.376  0.00  0.00    +0.021 C 
ATOM     25  C   UNL     1     -15.193   8.124  16.684  0.00  0.00    +0.005 C 
ENDBRANCH  20  23
ENDBRANCH   1  20
ENDBRANCH   9   1
TORSDOF 6
ENDMDL
MODEL 8
REMARK VINA RESULT:      -5.9     15.803     18.418
REMARK  Name = 7674736
REMARK  7 active torsions:
REMARK  status: ('A' for Active; 'I' for Inactive)
REMARK    1  A    between atoms: S_1  and  N_9
REMARK    2  A    between atoms: S_1  and  C_20
REMARK    3  A    between atoms: O_8  and  C_30
REMARK    4  A    between atoms: O_8  and  C_31
REMARK    5  A    between atoms: C_20  and  C_23
REMARK    6  A    between atoms: C_21  and  C_24
REMARK    7  A    between atoms: C_23  and  C_25
REMARK                            x       y       z     vdW  Elec       q    Type
REMARK                         _______ _______ _______ _____ _____    ______ ____
ROOT
ATOM      7  O   UNL     1      -6.614   9.565   5.397  0.00  0.00    -0.267 OA
ATOM      9  N   UNL     1      -1.953  10.542   3.922  0.00  0.00    -0.180 NA
ATOM     10  N   UNL     1      -4.310   9.271   5.602  0.00  0.00    -0.311 N 
ATOM     11  C   UNL     1      -2.724  11.190   6.207  0.00  0.00    +0.025 C 
ATOM     12  C   UNL     1      -1.823   8.939   5.818  0.00  0.00    +0.052 C 
ATOM     13  C   UNL     1      -1.858  10.095   6.815  0.00  0.00    +0.017 C 
ATOM     14  C   UNL     1      -2.127  11.674   4.876  0.00  0.00    +0.114 C 
ATOM     15  C   UNL     1      -1.171   9.411   4.506  0.00  0.00    +0.118 C 
ATOM     16  C   UNL     1      -4.156  10.663   6.050  0.00  0.00    +0.130 C 
ATOM     17  C   UNL     1      -3.217   8.404   5.554  0.00  0.00    +0.026 A 
ATOM     18  C   UNL     1      -3.399   7.107   5.253  0.00  0.00    +0.022 A 
ATOM     19  C   UNL     1      -5.622   8.837   5.330  0.00  0.00    +0.259 A 
ATOM     21  C   UNL     1      -5.791   7.388   4.961  0.00  0.00    +0.047 A 
ATOM     22  C   UNL     1      -4.707   6.598   4.947  0.00  0.00    +0.015 A 
ENDROOT
BRANCH  21  24
ATOM     24  C   UNL     1      -7.112   6.838   4.612  0.00  0.00    -0.012 A 
ATOM     26  C   UNL     1      -7.832   7.370   3.543  0.00  0.00    +0.012 A 
ATOM     27  C   UNL     1      -7.646   5.782   5.354  0.00  0.00    +0.012 A 
ATOM     28  C   UNL     1      -9.082   6.849   3.214  0.00  0.00    +0.046 A 
ATOM     29  C   UNL     1      -8.897   5.261   5.025  0.00  0.00    +0.046 A 
ATOM     30  C   UNL     1      -9.615   5.793   3.955  0.00  0.00    +0.130 A 
BRANCH  30   8
ATOM      8  O   UNL     1     -10.836   5.285   3.634  0.00  0.00    -0.406 OA
BRANCH   8  31
ATOM      2  F   UNL     1     -12.080   4.435   5.354  0.00  0.00    -0.133 F 
ATOM      3  F   UNL     1     -13.053   5.661   3.830  0.00  0.00    -0.133 F 
ATOM      4  F   UNL     1     -11.718   6.614   5.273  0.00  0.00    -0.133 F 
ATOM     31  C   UNL     1     -11.914   5.498   4.539  0.00  0.00    +0.575 C 
ENDBRANCH   8  31
ENDBRANCH  30   8
ENDBRANCH  21  24
BRANCH   9   1
ATOM      1  S   UNL     1      -1.540  10.979   2.321  0.00  0.00    +0.032 S 
ATOM      5  O   UNL     1      -0.821   9.883   1.708  0.00  0.00    -0.158 OA
ATOM      6  O   UNL     1      -1.010  12.325   2.326  0.00  0.00    -0.158 OA
BRANCH   1  20
ATOM     20  C   UNL     1      -3.165  11.033   1.612  0.00  0.00    +0.185 C 
BRANCH  20  23
ATOM     23  C   UNL     1      -4.033   9.897   2.127  0.00  0.00    +0.021 C 
ATOM     25  C   UNL     1      -5.510  10.193   1.932  0.00  0.00    +0.005 C 
ENDBRANCH  20  23
ENDBRANCH   1  20
ENDBRANCH   9   1
TORSDOF 6
ENDMDL
MODEL 9
REMARK VINA RESULT:      -5.9     24.769     28.109
REMARK  Name = 7674736
REMARK  7 active torsions:
REMARK  status: ('A' for Active; 'I' for Inactive)
REMARK    1  A    between atoms: S_1  and  N_9
REMARK    2  A    between atoms: S_1  and  C_20
REMARK    3  A    between atoms: O_8  and  C_30
REMARK    4  A    between atoms: O_8  and  C_31
REMARK    5  A    between atoms: C_20  and  C_23
REMARK    6  A    between atoms: C_21  and  C_24
REMARK    7  A    between atoms: C_23  and  C_25
REMARK                            x       y       z     vdW  Elec       q    Type
REMARK                         _______ _______ _______ _____ _____    ______ ____
ROOT
ATOM      7  O   UNL     1     -11.312  -7.523  10.019  0.00  0.00    -0.267 OA
ATOM      9  N   UNL     1     -15.170  -4.519  10.994  0.00  0.00    -0.180 NA
ATOM     10  N   UNL     1     -12.181  -5.543  10.893  0.00  0.00    -0.311 N 
ATOM     11  C   UNL     1     -13.829  -5.509  12.854  0.00  0.00    +0.025 C 
ATOM     12  C   UNL     1     -13.113  -3.397  11.826  0.00  0.00    +0.052 C 
ATOM     13  C   UNL     1     -13.227  -4.142  13.153  0.00  0.00    +0.017 C 
ATOM     14  C   UNL     1     -15.224  -5.359  12.225  0.00  0.00    +0.114 C 
ATOM     15  C   UNL     1     -14.516  -3.196  11.226  0.00  0.00    +0.118 C 
ATOM     16  C   UNL     1     -12.864  -6.293  11.957  0.00  0.00    +0.130 C 
ATOM     17  C   UNL     1     -12.225  -4.148  10.853  0.00  0.00    +0.026 A 
ATOM     18  C   UNL     1     -11.500  -3.479   9.941  0.00  0.00    +0.022 A 
ATOM     19  C   UNL     1     -11.402  -6.294   9.991  0.00  0.00    +0.259 A 
ATOM     21  C   UNL     1     -10.630  -5.518   8.958  0.00  0.00    +0.047 A 
ATOM     22  C   UNL     1     -10.697  -4.178   8.978  0.00  0.00    +0.015 A 
ENDROOT
BRANCH  21  24
ATOM     24  C   UNL     1      -9.819  -6.204   7.937  0.00  0.00    -0.012 A 
ATOM     26  C   UNL     1      -8.462  -6.437   8.162  0.00  0.00    +0.012 A 
ATOM     27  C   UNL     1     -10.408  -6.619   6.742  0.00  0.00    +0.012 A 
ATOM     28  C   UNL     1      -7.695  -7.085   7.195  0.00  0.00    +0.046 A 
ATOM     29  C   UNL     1      -9.641  -7.268   5.775  0.00  0.00    +0.046 A 
ATOM     30  C   UNL     1      -8.285  -7.501   6.001  0.00  0.00    +0.130 A 
BRANCH  30   8
ATOM      8  O   UNL     1      -7.536  -8.134   5.056  0.00  0.00    -0.406 OA
BRANCH   8  31
ATOM      2  F   UNL     1      -5.991  -9.563   5.949  0.00  0.00    -0.133 F 
ATOM      3  F   UNL     1      -7.009 -10.106   4.094  0.00  0.00    -0.133 F 
ATOM      4  F   UNL     1      -8.123 -10.145   5.974  0.00  0.00    -0.133 F 
ATOM     31  C   UNL     1      -7.164  -9.488   5.287  0.00  0.00    +0.575 C 
ENDBRANCH   8  31
ENDBRANCH  30   8
ENDBRANCH  21  24
BRANCH   9   1
ATOM      1  S   UNL     1     -16.601  -4.484  10.058  0.00  0.00    +0.032 S 
ATOM      5  O   UNL     1     -17.037  -3.111   9.924  0.00  0.00    -0.158 OA
ATOM      6  O   UNL     1     -17.493  -5.521  10.529  0.00  0.00    -0.158 OA
BRANCH   1  20
ATOM     20  C   UNL     1     -15.934  -5.002   8.498  0.00  0.00    +0.185 C 
BRANCH  20  23
ATOM     23  C   UNL     1     -14.927  -6.127   8.672  0.00  0.00    +0.021 C 
ATOM     25  C   UNL     1     -14.091  -6.324   7.419  0.00  0.00    +0.005 C 
ENDBRANCH  20  23
ENDBRANCH   1  20
ENDBRANCH   9   1
TORSDOF 6
ENDMDL
MODEL 10
REMARK VINA RESULT:      -5.8     23.868     25.800
REMARK  Name = 7674736
REMARK  7 active torsions:
REMARK  status: ('A' for Active; 'I' for Inactive)
REMARK    1  A    between atoms: S_1  and  N_9
REMARK    2  A    between atoms: S_1  and  C_20
REMARK    3  A    between atoms: O_8  and  C_30
REMARK    4  A    between atoms: O_8  and  C_31
REMARK    5  A    between atoms: C_20  and  C_23
REMARK    6  A    between atoms: C_21  and  C_24
REMARK    7  A    between atoms: C_23  and  C_25
REMARK                            x       y       z     vdW  Elec       q    Type
REMARK                         _______ _______ _______ _____ _____    ______ ____
ROOT
ATOM      7  O   UNL     1      -5.047 -13.022   9.888  0.00  0.00    -0.267 OA
ATOM      9  N   UNL     1      -3.922 -11.554  14.518  0.00  0.00    -0.180 NA
ATOM     10  N   UNL     1      -3.539 -12.145  11.437  0.00  0.00    -0.311 N 
ATOM     11  C   UNL     1      -2.721 -13.474  13.468  0.00  0.00    +0.025 C 
ATOM     12  C   UNL     1      -1.912 -11.185  13.102  0.00  0.00    +0.052 C 
ATOM     13  C   UNL     1      -1.463 -12.624  13.341  0.00  0.00    +0.017 C 
ATOM     14  C   UNL     1      -3.577 -12.998  14.652  0.00  0.00    +0.114 C 
ATOM     15  C   UNL     1      -2.720 -10.690  14.315  0.00  0.00    +0.118 C 
ATOM     16  C   UNL     1      -3.485 -13.436  12.139  0.00  0.00    +0.130 C 
ATOM     17  C   UNL     1      -2.738 -11.073  11.835  0.00  0.00    +0.026 A 
ATOM     18  C   UNL     1      -2.718  -9.943  11.110  0.00  0.00    +0.022 A 
ATOM     19  C   UNL     1      -4.354 -12.085  10.289  0.00  0.00    +0.259 A 
ATOM     21  C   UNL     1      -4.339 -10.793   9.518  0.00  0.00    +0.047 A 
ATOM     22  C   UNL     1      -3.536  -9.803   9.938  0.00  0.00    +0.015 A 
ENDROOT
BRANCH  21  24
ATOM     24  C   UNL     1      -5.187 -10.603   8.329  0.00  0.00    -0.012 A 
ATOM     26  C   UNL     1      -4.744 -11.034   7.078  0.00  0.00    +0.012 A 
ATOM     27  C   UNL     1      -6.435  -9.991   8.452  0.00  0.00    +0.012 A 
ATOM     28  C   UNL     1      -5.547 -10.853   5.952  0.00  0.00    +0.046 A 
ATOM     29  C   UNL     1      -7.239  -9.811   7.327  0.00  0.00    +0.046 A 
ATOM     30  C   UNL     1      -6.795 -10.242   6.077  0.00  0.00    +0.130 A 
BRANCH  30   8
ATOM      8  O   UNL     1      -7.579 -10.066   4.978  0.00  0.00    -0.406 OA
BRANCH   8  31
ATOM      2  F   UNL     1      -8.869  -8.182   4.865  0.00  0.00    -0.133 F 
ATOM      3  F   UNL     1      -7.746  -8.821   3.103  0.00  0.00    -0.133 F 
ATOM      4  F   UNL     1      -6.670  -7.975   4.805  0.00  0.00    -0.133 F 
ATOM     31  C   UNL     1      -7.717  -8.751   4.453  0.00  0.00    +0.575 C 
ENDBRANCH   8  31
ENDBRANCH  30   8
ENDBRANCH  21  24
BRANCH   9   1
ATOM      1  S   UNL     1      -5.080 -10.962  15.630  0.00  0.00    +0.032 S 
ATOM      5  O   UNL     1      -4.397 -10.200  16.653  0.00  0.00    -0.158 OA
ATOM      6  O   UNL     1      -5.995 -12.032  15.965  0.00  0.00    -0.158 OA
BRANCH   1  20
ATOM     20  C   UNL     1      -5.933  -9.822  14.573  0.00  0.00    +0.185 C 
BRANCH  20  23
ATOM     23  C   UNL     1      -6.135 -10.399  13.182  0.00  0.00    +0.021 C 
ATOM     25  C   UNL     1      -6.456  -9.314  12.170  0.00  0.00    +0.005 C 
ENDBRANCH  20  23
ENDBRANCH   1  20
ENDBRANCH   9   1
TORSDOF 6
ENDMDL
