MODEL 1
REMARK VINA RESULT:      -6.8      0.000      0.000
REMARK  Name = 11867058
REMARK  11 active torsions:
REMARK  status: ('A' for Active; 'I' for Inactive)
REMARK    1  A    between atoms: O_3  and  C_15
REMARK    2  A    between atoms: O_4  and  C_20
REMARK    3  A    between atoms: N_8  and  C_26
REMARK    4  A    between atoms: N_8  and  C_27
REMARK    5  A    between atoms: C_10  and  C_18
REMARK    6  A    between atoms: C_12  and  C_20
REMARK    7  A    between atoms: C_12  and  C_21
REMARK    8  A    between atoms: C_13  and  C_23
REMARK    9  A    between atoms: C_23  and  C_24
REMARK   10  A    between atoms: C_26  and  C_29
REMARK   11  A    between atoms: C_28  and  C_30
REMARK                            x       y       z     vdW  Elec       q    Type
REMARK                         _______ _______ _______ _____ _____    ______ ____
ROOT
ATOM      1  S   UNL     1      11.349   3.773   2.344  0.00  0.00    -0.057 S 
ATOM      6  O   UNL     1       8.976   6.970   4.757  0.00  0.00    -0.270 OA
ATOM      7  N   UNL     1       9.986   5.965   2.165  0.00  0.00    -0.229 NA
ATOM      9  N   UNL     1      10.262   5.033   4.370  0.00  0.00    -0.261 N 
ATOM     10  C   UNL     1      10.921   6.088  -1.574  0.00  0.00    -0.019 C 
ATOM     11  C   UNL     1      10.980   4.502  -1.692  0.00  0.00    +0.011 C 
ATOM     12  C   UNL     1      11.464   3.905  -3.070  0.00  0.00    +0.021 C 
ATOM     13  C   UNL     1      10.015   6.456  -0.309  0.00  0.00    +0.054 C 
ATOM     14  C   UNL     1      10.250   6.676  -2.843  0.00  0.00    +0.010 C 
ATOM     15  C   UNL     1      10.729   4.634  -4.230  0.00  0.00    +0.123 C 
ATOM     16  C   UNL     1      11.676   3.865  -0.454  0.00  0.00    +0.049 C 
ATOM     17  C   UNL     1      10.832   6.152  -4.148  0.00  0.00    +0.032 C 
ATOM     18  C   UNL     1      12.320   6.732  -1.409  0.00  0.00    +0.012 C 
ATOM     19  C   UNL     1      10.396   5.625   0.889  0.00  0.00    +0.058 A 
ATOM     21  C   UNL     1      11.064   2.404  -3.139  0.00  0.00    +0.016 C 
ATOM     22  C   UNL     1      11.126   4.457   0.800  0.00  0.00    +0.015 A 
ATOM     25  C   UNL     1      10.436   5.065   3.012  0.00  0.00    +0.165 A 
ATOM     28  C   UNL     1       9.559   5.965   5.150  0.00  0.00    +0.250 C 
ATOM     39  H   UNL     1      10.665   4.211   4.808  0.00  0.00    +0.157 HD
ENDROOT
BRANCH  28  30
ATOM      2  F   UNL     1       9.347   4.839  10.615  0.00  0.00    -0.205 F 
ATOM     30  C   UNL     1       9.504   5.665   6.606  0.00  0.00    +0.037 A 
ATOM     31  C   UNL     1       9.099   6.657   7.473  0.00  0.00    +0.016 A 
ATOM     32  C   UNL     1       9.857   4.405   7.039  0.00  0.00    +0.016 A 
ATOM     34  C   UNL     1       9.045   6.376   8.838  0.00  0.00    +0.039 A 
ATOM     35  C   UNL     1       9.804   4.124   8.404  0.00  0.00    +0.039 A 
ATOM     36  C   UNL     1       9.398   5.109   9.304  0.00  0.00    +0.123 A 
ENDBRANCH  28  30
BRANCH  15   3
ATOM      3  O   UNL     1      11.238   4.207  -5.494  0.00  0.00    -0.391 OA
ATOM     37  H   UNL     1      11.522   3.282  -5.408  0.00  0.00    +0.210 HD
ENDBRANCH  15   3
BRANCH  12  20
ATOM     20  C   UNL     1      12.994   3.937  -3.280  0.00  0.00    +0.165 C 
BRANCH  20   4
ATOM      4  O   UNL     1      13.348   2.809  -4.047  0.00  0.00    -0.394 OA
ATOM     38  H   UNL     1      12.828   2.052  -3.729  0.00  0.00    +0.209 HD
ENDBRANCH  20   4
ENDBRANCH  12  20
BRANCH  13  23
ATOM     23  C   UNL     1       9.972   7.950   0.033  0.00  0.00    +0.106 C 
BRANCH  23  24
ATOM      5  O   UNL     1       8.214   8.547  -1.481  0.00  0.00    -0.276 OA
ATOM      8  N   UNL     1       7.955   9.192   0.731  0.00  0.00    -0.293 N 
ATOM     24  C   UNL     1       8.642   8.583  -0.325  0.00  0.00    +0.217 C 
ATOM     27  C   UNL     1       6.664   9.842   0.552  0.00  0.00    +0.133 C 
BRANCH   8  26
ATOM     26  C   UNL     1       8.483   9.221   2.094  0.00  0.00    +0.196 C 
BRANCH  26  29
ATOM     29  C   UNL     1       7.433   9.545   3.058  0.00  0.00    -0.086 C 
ATOM     33  C   UNL     1       6.574   9.813   3.853  0.00  0.00    +0.005 C 
ENDBRANCH  26  29
ENDBRANCH   8  26
ENDBRANCH  23  24
ENDBRANCH  13  23
TORSDOF 8
ENDMDL
MODEL 2
REMARK VINA RESULT:      -6.7     18.409     21.905
REMARK  Name = 11867058
REMARK  11 active torsions:
REMARK  status: ('A' for Active; 'I' for Inactive)
REMARK    1  A    between atoms: O_3  and  C_15
REMARK    2  A    between atoms: O_4  and  C_20
REMARK    3  A    between atoms: N_8  and  C_26
REMARK    4  A    between atoms: N_8  and  C_27
REMARK    5  A    between atoms: C_10  and  C_18
REMARK    6  A    between atoms: C_12  and  C_20
REMARK    7  A    between atoms: C_12  and  C_21
REMARK    8  A    between atoms: C_13  and  C_23
REMARK    9  A    between atoms: C_23  and  C_24
REMARK   10  A    between atoms: C_26  and  C_29
REMARK   11  A    between atoms: C_28  and  C_30
REMARK                            x       y       z     vdW  Elec       q    Type
REMARK                         _______ _______ _______ _____ _____    ______ ____
ROOT
ATOM      1  S   UNL     1      17.525   5.801  19.452  0.00  0.00    -0.057 S 
ATOM      6  O   UNL     1      21.189   7.853  21.461  0.00  0.00    -0.270 OA
ATOM      7  N   UNL     1      18.315   7.887  20.762  0.00  0.00    -0.229 NA
ATOM      9  N   UNL     1      19.979   6.211  20.280  0.00  0.00    -0.261 N 
ATOM     10  C   UNL     1      14.806   9.392  20.227  0.00  0.00    -0.019 C 
ATOM     11  C   UNL     1      14.107   7.962  20.227  0.00  0.00    +0.011 C 
ATOM     12  C   UNL     1      12.562   7.920  19.910  0.00  0.00    +0.021 C 
ATOM     13  C   UNL     1      16.208   9.256  20.982  0.00  0.00    +0.054 C 
ATOM     14  C   UNL     1      13.924  10.397  21.012  0.00  0.00    +0.010 C 
ATOM     15  C   UNL     1      11.839   9.017  20.743  0.00  0.00    +0.123 C 
ATOM     16  C   UNL     1      14.940   6.921  19.422  0.00  0.00    +0.049 C 
ATOM     17  C   UNL     1      12.462  10.398  20.588  0.00  0.00    +0.032 C 
ATOM     18  C   UNL     1      15.041   9.947  18.801  0.00  0.00    +0.012 C 
ATOM     19  C   UNL     1      16.967   8.046  20.500  0.00  0.00    +0.058 A 
ATOM     21  C   UNL     1      11.989   6.546  20.358  0.00  0.00    +0.016 C 
ATOM     22  C   UNL     1      16.376   7.002  19.818  0.00  0.00    +0.015 A 
ATOM     25  C   UNL     1      18.717   6.744  20.251  0.00  0.00    +0.165 A 
ATOM     28  C   UNL     1      21.118   6.781  20.869  0.00  0.00    +0.250 C 
ATOM     39  H   UNL     1      20.037   5.291  19.857  0.00  0.00    +0.157 HD
ENDROOT
BRANCH  28  30
ATOM      2  F   UNL     1      25.774   3.717  20.520  0.00  0.00    -0.205 F 
ATOM     30  C   UNL     1      22.359   5.965  20.777  0.00  0.00    +0.037 A 
ATOM     31  C   UNL     1      22.261   4.594  20.881  0.00  0.00    +0.016 A 
ATOM     32  C   UNL     1      23.564   6.607  20.589  0.00  0.00    +0.016 A 
ATOM     34  C   UNL     1      23.423   3.829  20.794  0.00  0.00    +0.039 A 
ATOM     35  C   UNL     1      24.727   5.842  20.502  0.00  0.00    +0.039 A 
ATOM     36  C   UNL     1      24.657   4.453  20.604  0.00  0.00    +0.123 A 
ENDBRANCH  28  30
BRANCH  15   3
ATOM      3  O   UNL     1      10.459   9.092  20.384  0.00  0.00    -0.391 OA
ATOM     37  H   UNL     1      10.401   9.451  19.483  0.00  0.00    +0.210 HD
ENDBRANCH  15   3
BRANCH  12  20
ATOM     20  C   UNL     1      12.211   8.047  18.411  0.00  0.00    +0.165 C 
BRANCH  20   4
ATOM      4  O   UNL     1      11.970   6.750  17.913  0.00  0.00    -0.394 OA
ATOM     38  H   UNL     1      11.081   6.738  17.521  0.00  0.00    +0.209 HD
ENDBRANCH  20   4
ENDBRANCH  12  20
BRANCH  13  23
ATOM     23  C   UNL     1      17.078  10.518  20.945  0.00  0.00    +0.106 C 
BRANCH  23  24
ATOM      5  O   UNL     1      16.337  11.358  23.063  0.00  0.00    -0.276 OA
ATOM      8  N   UNL     1      18.625  11.336  22.687  0.00  0.00    -0.293 N 
ATOM     24  C   UNL     1      17.294  11.107  22.325  0.00  0.00    +0.217 C 
ATOM     27  C   UNL     1      18.999  11.896  23.979  0.00  0.00    +0.133 C 
BRANCH   8  26
ATOM     26  C   UNL     1      19.742  11.030  21.795  0.00  0.00    +0.196 C 
BRANCH  26  29
ATOM     29  C   UNL     1      20.308  12.250  21.221  0.00  0.00    -0.086 C 
ATOM     33  C   UNL     1      20.773  13.251  20.747  0.00  0.00    +0.005 C 
ENDBRANCH  26  29
ENDBRANCH   8  26
ENDBRANCH  23  24
ENDBRANCH  13  23
TORSDOF 8
ENDMDL
MODEL 3
REMARK VINA RESULT:      -6.6     15.133     21.403
REMARK  Name = 11867058
REMARK  11 active torsions:
REMARK  status: ('A' for Active; 'I' for Inactive)
REMARK    1  A    between atoms: O_3  and  C_15
REMARK    2  A    between atoms: O_4  and  C_20
REMARK    3  A    between atoms: N_8  and  C_26
REMARK    4  A    between atoms: N_8  and  C_27
REMARK    5  A    between atoms: C_10  and  C_18
REMARK    6  A    between atoms: C_12  and  C_20
REMARK    7  A    between atoms: C_12  and  C_21
REMARK    8  A    between atoms: C_13  and  C_23
REMARK    9  A    between atoms: C_23  and  C_24
REMARK   10  A    between atoms: C_26  and  C_29
REMARK   11  A    between atoms: C_28  and  C_30
REMARK                            x       y       z     vdW  Elec       q    Type
REMARK                         _______ _______ _______ _____ _____    ______ ____
ROOT
ATOM      1  S   UNL     1      13.440  14.103  18.967  0.00  0.00    -0.057 S 
ATOM      6  O   UNL     1      13.873  10.339  16.262  0.00  0.00    -0.270 OA
ATOM      7  N   UNL     1      13.177  11.531  18.878  0.00  0.00    -0.229 NA
ATOM      9  N   UNL     1      13.942  12.616  16.866  0.00  0.00    -0.261 N 
ATOM     10  C   UNL     1      12.406  11.609  22.655  0.00  0.00    -0.019 C 
ATOM     11  C   UNL     1      11.745  13.054  22.570  0.00  0.00    +0.011 C 
ATOM     12  C   UNL     1      11.307  13.722  23.931  0.00  0.00    +0.021 C 
ATOM     13  C   UNL     1      12.362  10.959  21.196  0.00  0.00    +0.054 C 
ATOM     14  C   UNL     1      11.575  10.716  23.613  0.00  0.00    +0.010 C 
ATOM     15  C   UNL     1      10.528  12.680  24.784  0.00  0.00    +0.123 C 
ATOM     16  C   UNL     1      12.563  14.001  21.643  0.00  0.00    +0.049 C 
ATOM     17  C   UNL     1      11.277  11.365  24.957  0.00  0.00    +0.032 C 
ATOM     18  C   UNL     1      13.871  11.646  23.157  0.00  0.00    +0.012 C 
ATOM     19  C   UNL     1      12.829  11.941  20.152  0.00  0.00    +0.058 A 
ATOM     21  C   UNL     1      10.331  14.894  23.628  0.00  0.00    +0.016 C 
ATOM     22  C   UNL     1      12.894  13.302  20.367  0.00  0.00    +0.015 A 
ATOM     25  C   UNL     1      13.523  12.584  18.170  0.00  0.00    +0.165 A 
ATOM     28  C   UNL     1      14.090  11.518  16.004  0.00  0.00    +0.250 C 
ATOM     39  H   UNL     1      14.109  13.555  16.520  0.00  0.00    +0.157 HD
ENDROOT
BRANCH  28  30
ATOM      2  F   UNL     1      15.760  12.761  10.823  0.00  0.00    -0.205 F 
ATOM     30  C   UNL     1      14.535  11.848  14.623  0.00  0.00    +0.037 A 
ATOM     31  C   UNL     1      13.618  12.375  13.739  0.00  0.00    +0.016 A 
ATOM     32  C   UNL     1      15.849  11.617  14.276  0.00  0.00    +0.016 A 
ATOM     34  C   UNL     1      14.035  12.686  12.445  0.00  0.00    +0.039 A 
ATOM     35  C   UNL     1      16.266  11.928  12.981  0.00  0.00    +0.039 A 
ATOM     36  C   UNL     1      15.360  12.463  12.066  0.00  0.00    +0.123 A 
ENDBRANCH  28  30
BRANCH  15   3
ATOM      3  O   UNL     1      10.229  13.212  26.075  0.00  0.00    -0.391 OA
ATOM     37  H   UNL     1      10.415  12.523  26.735  0.00  0.00    +0.210 HD
ENDBRANCH  15   3
BRANCH  12  20
ATOM     20  C   UNL     1      12.464  14.344  24.742  0.00  0.00    +0.165 C 
BRANCH  20   4
ATOM      4  O   UNL     1      11.962  15.477  25.412  0.00  0.00    -0.394 OA
ATOM     38  H   UNL     1      11.288  15.179  26.046  0.00  0.00    +0.209 HD
ENDBRANCH  20   4
ENDBRANCH  12  20
BRANCH  13  23
ATOM     23  C   UNL     1      13.093   9.616  21.072  0.00  0.00    +0.106 C 
BRANCH  23  24
ATOM      5  O   UNL     1      11.201   8.428  20.204  0.00  0.00    -0.276 OA
ATOM      8  N   UNL     1      13.220   8.130  19.104  0.00  0.00    -0.293 N 
ATOM     24  C   UNL     1      12.405   8.676  20.101  0.00  0.00    +0.217 C 
ATOM     27  C   UNL     1      12.711   7.211  18.094  0.00  0.00    +0.133 C 
BRANCH   8  26
ATOM     26  C   UNL     1      14.645   8.439  19.002  0.00  0.00    +0.196 C 
BRANCH  26  29
ATOM     29  C   UNL     1      15.462   7.250  19.240  0.00  0.00    -0.086 C 
ATOM     33  C   UNL     1      16.134   6.275  19.439  0.00  0.00    +0.005 C 
ENDBRANCH  26  29
ENDBRANCH   8  26
ENDBRANCH  23  24
ENDBRANCH  13  23
TORSDOF 8
ENDMDL
MODEL 4
REMARK VINA RESULT:      -6.6     23.029     25.360
REMARK  Name = 11867058
REMARK  11 active torsions:
REMARK  status: ('A' for Active; 'I' for Inactive)
REMARK    1  A    between atoms: O_3  and  C_15
REMARK    2  A    between atoms: O_4  and  C_20
REMARK    3  A    between atoms: N_8  and  C_26
REMARK    4  A    between atoms: N_8  and  C_27
REMARK    5  A    between atoms: C_10  and  C_18
REMARK    6  A    between atoms: C_12  and  C_20
REMARK    7  A    between atoms: C_12  and  C_21
REMARK    8  A    between atoms: C_13  and  C_23
REMARK    9  A    between atoms: C_23  and  C_24
REMARK   10  A    between atoms: C_26  and  C_29
REMARK   11  A    between atoms: C_28  and  C_30
REMARK                            x       y       z     vdW  Elec       q    Type
REMARK                         _______ _______ _______ _____ _____    ______ ____
ROOT
ATOM      1  S   UNL     1      -8.486  -9.724  12.756  0.00  0.00    -0.057 S 
ATOM      6  O   UNL     1      -4.336 -10.508  14.713  0.00  0.00    -0.270 OA
ATOM      7  N   UNL     1      -5.952  -9.965  12.296  0.00  0.00    -0.229 NA
ATOM      9  N   UNL     1      -6.670 -10.210  14.583  0.00  0.00    -0.261 N 
ATOM     10  C   UNL     1      -6.745  -9.731   8.530  0.00  0.00    -0.019 C 
ATOM     11  C   UNL     1      -8.007  -8.791   8.774  0.00  0.00    +0.011 C 
ATOM     12  C   UNL     1      -8.880  -8.425   7.512  0.00  0.00    +0.021 C 
ATOM     13  C   UNL     1      -5.787  -9.611   9.804  0.00  0.00    +0.054 C 
ATOM     14  C   UNL     1      -5.965  -9.235   7.284  0.00  0.00    +0.010 C 
ATOM     15  C   UNL     1      -7.943  -7.995   6.348  0.00  0.00    +0.123 C 
ATOM     16  C   UNL     1      -8.842  -9.268   9.998  0.00  0.00    +0.049 C 
ATOM     17  C   UNL     1      -6.840  -9.006   6.060  0.00  0.00    +0.032 C 
ATOM     18  C   UNL     1      -7.132 -11.215   8.314  0.00  0.00    +0.012 C 
ATOM     19  C   UNL     1      -6.574  -9.724  11.084  0.00  0.00    +0.058 A 
ATOM     21  C   UNL     1      -9.780  -7.204   7.857  0.00  0.00    +0.016 C 
ATOM     22  C   UNL     1      -7.941  -9.549  11.152  0.00  0.00    +0.015 A 
ATOM     25  C   UNL     1      -6.862  -9.992  13.245  0.00  0.00    +0.165 A 
ATOM     28  C   UNL     1      -5.447 -10.450  15.229  0.00  0.00    +0.250 C 
ATOM     39  H   UNL     1      -7.523 -10.138  15.129  0.00  0.00    +0.157 HD
ENDROOT
BRANCH  28  30
ATOM      2  F   UNL     1      -5.748 -11.093  20.767  0.00  0.00    -0.205 F 
ATOM     30  C   UNL     1      -5.528 -10.623  16.704  0.00  0.00    +0.037 A 
ATOM     31  C   UNL     1      -4.494 -11.261  17.355  0.00  0.00    +0.016 A 
ATOM     32  C   UNL     1      -6.632 -10.136  17.370  0.00  0.00    +0.016 A 
ATOM     34  C   UNL     1      -4.569 -11.422  18.739  0.00  0.00    +0.039 A 
ATOM     35  C   UNL     1      -6.707 -10.297  18.754  0.00  0.00    +0.039 A 
ATOM     36  C   UNL     1      -5.676 -10.939  19.439  0.00  0.00    +0.123 A 
ENDBRANCH  28  30
BRANCH  15   3
ATOM      3  O   UNL     1      -8.693  -7.780   5.153  0.00  0.00    -0.391 OA
ATOM     37  H   UNL     1      -8.321  -7.006   4.698  0.00  0.00    +0.210 HD
ENDBRANCH  15   3
BRANCH  12  20
ATOM     20  C   UNL     1      -9.849  -9.539   7.057  0.00  0.00    +0.165 C 
BRANCH  20   4
ATOM      4  O   UNL     1     -11.008  -8.921   6.546  0.00  0.00    -0.394 OA
ATOM     38  H   UNL     1     -10.968  -8.960   5.576  0.00  0.00    +0.209 HD
ENDBRANCH  20   4
ENDBRANCH  12  20
BRANCH  13  23
ATOM     23  C   UNL     1      -4.588 -10.569   9.793  0.00  0.00    +0.106 C 
BRANCH  23  24
ATOM      5  O   UNL     1      -2.984  -8.797   9.964  0.00  0.00    -0.276 OA
ATOM      8  N   UNL     1      -2.617 -10.672  11.276  0.00  0.00    -0.293 N 
ATOM     24  C   UNL     1      -3.331  -9.920  10.339  0.00  0.00    +0.217 C 
ATOM     27  C   UNL     1      -1.389 -10.190  11.895  0.00  0.00    +0.133 C 
BRANCH   8  26
ATOM     26  C   UNL     1      -3.049 -12.001  11.705  0.00  0.00    +0.196 C 
BRANCH  26  29
ATOM     29  C   UNL     1      -2.210 -12.502  12.794  0.00  0.00    -0.086 C 
ATOM     33  C   UNL     1      -1.524 -12.911  13.690  0.00  0.00    +0.005 C 
ENDBRANCH  26  29
ENDBRANCH   8  26
ENDBRANCH  23  24
ENDBRANCH  13  23
TORSDOF 8
ENDMDL
MODEL 5
REMARK VINA RESULT:      -6.4     28.160     32.270
REMARK  Name = 11867058
REMARK  11 active torsions:
REMARK  status: ('A' for Active; 'I' for Inactive)
REMARK    1  A    between atoms: O_3  and  C_15
REMARK    2  A    between atoms: O_4  and  C_20
REMARK    3  A    between atoms: N_8  and  C_26
REMARK    4  A    between atoms: N_8  and  C_27
REMARK    5  A    between atoms: C_10  and  C_18
REMARK    6  A    between atoms: C_12  and  C_20
REMARK    7  A    between atoms: C_12  and  C_21
REMARK    8  A    between atoms: C_13  and  C_23
REMARK    9  A    between atoms: C_23  and  C_24
REMARK   10  A    between atoms: C_26  and  C_29
REMARK   11  A    between atoms: C_28  and  C_30
REMARK                            x       y       z     vdW  Elec       q    Type
REMARK                         _______ _______ _______ _____ _____    ______ ____
ROOT
ATOM      1  S   UNL     1     -12.961   5.327  22.379  0.00  0.00    -0.057 S 
ATOM      6  O   UNL     1     -16.959   5.698  24.735  0.00  0.00    -0.270 OA
ATOM      7  N   UNL     1     -15.037   6.816  22.784  0.00  0.00    -0.229 NA
ATOM      9  N   UNL     1     -14.924   4.749  24.019  0.00  0.00    -0.261 N 
ATOM     10  C   UNL     1     -13.387   9.497  20.559  0.00  0.00    -0.019 C 
ATOM     11  C   UNL     1     -12.636   8.411  19.670  0.00  0.00    +0.011 C 
ATOM     12  C   UNL     1     -11.634   8.949  18.577  0.00  0.00    +0.021 C 
ATOM     13  C   UNL     1     -14.633   8.786  21.261  0.00  0.00    +0.054 C 
ATOM     14  C   UNL     1     -13.922  10.631  19.646  0.00  0.00    +0.010 C 
ATOM     15  C   UNL     1     -12.310  10.105  17.787  0.00  0.00    +0.123 C 
ATOM     16  C   UNL     1     -12.051   7.264  20.547  0.00  0.00    +0.049 C 
ATOM     17  C   UNL     1     -12.881  11.194  18.688  0.00  0.00    +0.032 C 
ATOM     18  C   UNL     1     -12.474  10.123  21.643  0.00  0.00    +0.012 C 
ATOM     19  C   UNL     1     -14.232   7.465  21.866  0.00  0.00    +0.058 A 
ATOM     21  C   UNL     1     -11.332   7.810  17.562  0.00  0.00    +0.016 C 
ATOM     22  C   UNL     1     -13.079   6.791  21.519  0.00  0.00    +0.015 A 
ATOM     25  C   UNL     1     -14.464   5.684  23.129  0.00  0.00    +0.165 A 
ATOM     28  C   UNL     1     -16.118   4.806  24.755  0.00  0.00    +0.250 C 
ATOM     39  H   UNL     1     -14.328   3.931  24.087  0.00  0.00    +0.157 HD
ENDROOT
BRANCH  28  30
ATOM      2  F   UNL     1     -17.111   0.397  28.035  0.00  0.00    -0.205 F 
ATOM     30  C   UNL     1     -16.384   3.632  25.629  0.00  0.00    +0.037 A 
ATOM     31  C   UNL     1     -16.481   2.383  25.052  0.00  0.00    +0.016 A 
ATOM     32  C   UNL     1     -16.522   3.831  26.986  0.00  0.00    +0.016 A 
ATOM     34  C   UNL     1     -16.729   1.282  25.871  0.00  0.00    +0.039 A 
ATOM     35  C   UNL     1     -16.770   2.730  27.805  0.00  0.00    +0.039 A 
ATOM     36  C   UNL     1     -16.873   1.455  27.249  0.00  0.00    +0.123 A 
ENDBRANCH  28  30
BRANCH  15   3
ATOM      3  O   UNL     1     -11.386  10.700  16.877  0.00  0.00    -0.391 OA
ATOM     37  H   UNL     1     -10.501  10.657  17.275  0.00  0.00    +0.210 HD
ENDBRANCH  15   3
BRANCH  12  20
ATOM     20  C   UNL     1     -10.259   9.388  19.128  0.00  0.00    +0.165 C 
BRANCH  20   4
ATOM      4  O   UNL     1      -9.333   9.339  18.067  0.00  0.00    -0.394 OA
ATOM     38  H   UNL     1      -8.810   8.525  18.160  0.00  0.00    +0.209 HD
ENDBRANCH  20   4
ENDBRANCH  12  20
BRANCH  13  23
ATOM     23  C   UNL     1     -15.384   9.662  22.272  0.00  0.00    +0.106 C 
BRANCH  23  24
ATOM      5  O   UNL     1     -17.390   9.691  20.961  0.00  0.00    -0.276 OA
ATOM      8  N   UNL     1     -16.751  11.692  21.943  0.00  0.00    -0.293 N 
ATOM     24  C   UNL     1     -16.599  10.331  21.660  0.00  0.00    +0.217 C 
ATOM     27  C   UNL     1     -17.866  12.478  21.432  0.00  0.00    +0.133 C 
BRANCH   8  26
ATOM     26  C   UNL     1     -15.800  12.429  22.774  0.00  0.00    +0.196 C 
BRANCH  26  29
ATOM     29  C   UNL     1     -14.928  13.271  21.957  0.00  0.00    -0.086 C 
ATOM     33  C   UNL     1     -14.209  13.963  21.288  0.00  0.00    +0.005 C 
ENDBRANCH  26  29
ENDBRANCH   8  26
ENDBRANCH  23  24
ENDBRANCH  13  23
TORSDOF 8
ENDMDL
MODEL 6
REMARK VINA RESULT:      -6.3     24.493     28.493
REMARK  Name = 11867058
REMARK  11 active torsions:
REMARK  status: ('A' for Active; 'I' for Inactive)
REMARK    1  A    between atoms: O_3  and  C_15
REMARK    2  A    between atoms: O_4  and  C_20
REMARK    3  A    between atoms: N_8  and  C_26
REMARK    4  A    between atoms: N_8  and  C_27
REMARK    5  A    between atoms: C_10  and  C_18
REMARK    6  A    between atoms: C_12  and  C_20
REMARK    7  A    between atoms: C_12  and  C_21
REMARK    8  A    between atoms: C_13  and  C_23
REMARK    9  A    between atoms: C_23  and  C_24
REMARK   10  A    between atoms: C_26  and  C_29
REMARK   11  A    between atoms: C_28  and  C_30
REMARK                            x       y       z     vdW  Elec       q    Type
REMARK                         _______ _______ _______ _____ _____    ______ ____
ROOT
ATOM      1  S   UNL     1      -5.739 -10.822  12.615  0.00  0.00    -0.057 S 
ATOM      6  O   UNL     1      -9.125  -8.477  10.445  0.00  0.00    -0.270 OA
ATOM      7  N   UNL     1      -8.010  -9.625  12.933  0.00  0.00    -0.229 NA
ATOM      9  N   UNL     1      -7.103  -9.660  10.700  0.00  0.00    -0.261 N 
ATOM     10  C   UNL     1      -8.004 -10.863  16.584  0.00  0.00    -0.019 C 
ATOM     11  C   UNL     1      -6.415 -10.828  16.676  0.00  0.00    +0.011 C 
ATOM     12  C   UNL     1      -5.763 -11.381  18.002  0.00  0.00    +0.021 C 
ATOM     13  C   UNL     1      -8.452  -9.885  15.402  0.00  0.00    +0.054 C 
ATOM     14  C   UNL     1      -8.610 -10.336  17.911  0.00  0.00    +0.010 C 
ATOM     15  C   UNL     1      -6.516 -10.791  19.228  0.00  0.00    +0.123 C 
ATOM     16  C   UNL     1      -5.758 -11.378  15.377  0.00  0.00    +0.049 C 
ATOM     17  C   UNL     1      -8.026 -10.987  19.157  0.00  0.00    +0.032 C 
ATOM     18  C   UNL     1      -8.560 -12.284  16.314  0.00  0.00    +0.012 C 
ATOM     19  C   UNL     1      -7.620 -10.113  14.166  0.00  0.00    +0.058 A 
ATOM     21  C   UNL     1      -4.290 -10.891  18.084  0.00  0.00    +0.016 C 
ATOM     22  C   UNL     1      -6.407 -10.769  14.180  0.00  0.00    +0.015 A 
ATOM     25  C   UNL     1      -7.099  -9.945  12.040  0.00  0.00    +0.165 A 
ATOM     28  C   UNL     1      -8.092  -8.959   9.993  0.00  0.00    +0.250 C 
ATOM     39  H   UNL     1      -6.264  -9.972  10.220  0.00  0.00    +0.157 HD
ENDROOT
BRANCH  28  30
ATOM      2  F   UNL     1      -7.079  -8.236   4.549  0.00  0.00    -0.205 F 
ATOM     30  C   UNL     1      -7.823  -8.767   8.542  0.00  0.00    +0.037 A 
ATOM     31  C   UNL     1      -8.443  -7.726   7.884  0.00  0.00    +0.016 A 
ATOM     32  C   UNL     1      -6.962  -9.635   7.906  0.00  0.00    +0.016 A 
ATOM     34  C   UNL     1      -8.189  -7.545   6.525  0.00  0.00    +0.039 A 
ATOM     35  C   UNL     1      -6.709  -9.454   6.546  0.00  0.00    +0.039 A 
ATOM     36  C   UNL     1      -7.322  -8.410   5.855  0.00  0.00    +0.123 A 
ENDBRANCH  28  30
BRANCH  15   3
ATOM      3  O   UNL     1      -6.035 -11.371  20.440  0.00  0.00    -0.391 OA
ATOM     37  H   UNL     1      -5.451 -10.726  20.872  0.00  0.00    +0.210 HD
ENDBRANCH  15   3
BRANCH  12  20
ATOM     20  C   UNL     1      -5.693 -12.922  18.087  0.00  0.00    +0.165 C 
BRANCH  20   4
ATOM      4  O   UNL     1      -4.422 -13.269  18.589  0.00  0.00    -0.394 OA
ATOM     38  H   UNL     1      -3.750 -12.874  18.008  0.00  0.00    +0.209 HD
ENDBRANCH  20   4
ENDBRANCH  12  20
BRANCH  13  23
ATOM     23  C   UNL     1      -9.952  -9.913  15.084  0.00  0.00    +0.106 C 
BRANCH  23  24
ATOM      5  O   UNL     1     -10.111  -7.534  14.841  0.00  0.00    -0.276 OA
ATOM      8  N   UNL     1     -11.796  -8.578  16.043  0.00  0.00    -0.293 N 
ATOM     24  C   UNL     1     -10.610  -8.564  15.301  0.00  0.00    +0.217 C 
ATOM     27  C   UNL     1     -12.549  -7.367  16.338  0.00  0.00    +0.133 C 
BRANCH   8  26
ATOM     26  C   UNL     1     -12.368  -9.812  16.578  0.00  0.00    +0.196 C 
BRANCH  26  29
ATOM     29  C   UNL     1     -12.226  -9.872  18.033  0.00  0.00    -0.086 C 
ATOM     33  C   UNL     1     -12.112  -9.922  19.227  0.00  0.00    +0.005 C 
ENDBRANCH  26  29
ENDBRANCH   8  26
ENDBRANCH  23  24
ENDBRANCH  13  23
TORSDOF 8
ENDMDL
MODEL 7
REMARK VINA RESULT:      -6.3     35.370     38.688
REMARK  Name = 11867058
REMARK  11 active torsions:
REMARK  status: ('A' for Active; 'I' for Inactive)
REMARK    1  A    between atoms: O_3  and  C_15
REMARK    2  A    between atoms: O_4  and  C_20
REMARK    3  A    between atoms: N_8  and  C_26
REMARK    4  A    between atoms: N_8  and  C_27
REMARK    5  A    between atoms: C_10  and  C_18
REMARK    6  A    between atoms: C_12  and  C_20
REMARK    7  A    between atoms: C_12  and  C_21
REMARK    8  A    between atoms: C_13  and  C_23
REMARK    9  A    between atoms: C_23  and  C_24
REMARK   10  A    between atoms: C_26  and  C_29
REMARK   11  A    between atoms: C_28  and  C_30
REMARK                            x       y       z     vdW  Elec       q    Type
REMARK                         _______ _______ _______ _____ _____    ______ ____
ROOT
ATOM      1  S   UNL     1      -5.047  11.889  34.638  0.00  0.00    -0.057 S 
ATOM      6  O   UNL     1      -6.672   8.872  37.789  0.00  0.00    -0.270 OA
ATOM      7  N   UNL     1      -4.446  10.518  36.748  0.00  0.00    -0.229 NA
ATOM      9  N   UNL     1      -6.693  10.289  35.906  0.00  0.00    -0.261 N 
ATOM     10  C   UNL     1      -0.805  11.714  36.329  0.00  0.00    -0.019 C 
ATOM     11  C   UNL     1      -1.251  13.096  35.678  0.00  0.00    +0.011 C 
ATOM     12  C   UNL     1      -0.103  14.041  35.148  0.00  0.00    +0.021 C 
ATOM     13  C   UNL     1      -2.039  11.143  37.168  0.00  0.00    +0.054 C 
ATOM     14  C   UNL     1       0.377  11.959  37.303  0.00  0.00    +0.010 C 
ATOM     15  C   UNL     1       1.015  14.140  36.224  0.00  0.00    +0.123 C 
ATOM     16  C   UNL     1      -2.417  12.899  34.665  0.00  0.00    +0.049 C 
ATOM     17  C   UNL     1       1.510  12.780  36.703  0.00  0.00    +0.032 C 
ATOM     18  C   UNL     1      -0.370  10.665  35.275  0.00  0.00    +0.012 C 
ATOM     19  C   UNL     1      -3.317  11.224  36.374  0.00  0.00    +0.058 A 
ATOM     21  C   UNL     1      -0.678  15.472  34.947  0.00  0.00    +0.016 C 
ATOM     22  C   UNL     1      -3.471  12.031  35.266  0.00  0.00    +0.015 A 
ATOM     25  C   UNL     1      -5.417  10.786  35.901  0.00  0.00    +0.165 A 
ATOM     28  C   UNL     1      -7.238   9.382  36.828  0.00  0.00    +0.250 C 
ATOM     39  H   UNL     1      -7.280  10.680  35.175  0.00  0.00    +0.157 HD
ENDROOT
BRANCH  28  30
ATOM      2  F   UNL     1     -12.606   8.077  36.010  0.00  0.00    -0.205 F 
ATOM     30  C   UNL     1      -8.669   9.035  36.611  0.00  0.00    +0.037 A 
ATOM     31  C   UNL     1      -9.355   9.658  35.591  0.00  0.00    +0.016 A 
ATOM     32  C   UNL     1      -9.258   8.101  37.436  0.00  0.00    +0.016 A 
ATOM     34  C   UNL     1     -10.696   9.332  35.386  0.00  0.00    +0.039 A 
ATOM     35  C   UNL     1     -10.599   7.775  37.231  0.00  0.00    +0.039 A 
ATOM     36  C   UNL     1     -11.318   8.390  36.207  0.00  0.00    +0.123 A 
ENDBRANCH  28  30
BRANCH  15   3
ATOM      3  O   UNL     1       2.127  14.883  35.726  0.00  0.00    -0.391 OA
ATOM     37  H   UNL     1       2.816  14.252  35.456  0.00  0.00    +0.210 HD
ENDBRANCH  15   3
BRANCH  12  20
ATOM     20  C   UNL     1       0.483  13.633  33.779  0.00  0.00    +0.165 C 
BRANCH  20   4
ATOM      4  O   UNL     1       0.890  14.808  33.116  0.00  0.00    -0.394 OA
ATOM     38  H   UNL     1       0.512  15.568  33.589  0.00  0.00    +0.209 HD
ENDBRANCH  20   4
ENDBRANCH  12  20
BRANCH  13  23
ATOM     23  C   UNL     1      -1.823   9.737  37.745  0.00  0.00    +0.106 C 
BRANCH  23  24
ATOM      5  O   UNL     1      -1.751  10.781  39.901  0.00  0.00    -0.276 OA
ATOM      8  N   UNL     1      -1.019   8.585  39.775  0.00  0.00    -0.293 N 
ATOM     24  C   UNL     1      -1.535   9.767  39.233  0.00  0.00    +0.217 C 
ATOM     27  C   UNL     1      -0.691   8.451  41.189  0.00  0.00    +0.133 C 
BRANCH   8  26
ATOM     26  C   UNL     1      -0.771   7.395  38.964  0.00  0.00    +0.196 C 
BRANCH  26  29
ATOM     29  C   UNL     1      -1.435   6.222  39.531  0.00  0.00    -0.086 C 
ATOM     33  C   UNL     1      -1.981   5.261  40.000  0.00  0.00    +0.005 C 
ENDBRANCH  26  29
ENDBRANCH   8  26
ENDBRANCH  23  24
ENDBRANCH  13  23
TORSDOF 8
ENDMDL
MODEL 8
REMARK VINA RESULT:      -6.3      3.724      8.637
REMARK  Name = 11867058
REMARK  11 active torsions:
REMARK  status: ('A' for Active; 'I' for Inactive)
REMARK    1  A    between atoms: O_3  and  C_15
REMARK    2  A    between atoms: O_4  and  C_20
REMARK    3  A    between atoms: N_8  and  C_26
REMARK    4  A    between atoms: N_8  and  C_27
REMARK    5  A    between atoms: C_10  and  C_18
REMARK    6  A    between atoms: C_12  and  C_20
REMARK    7  A    between atoms: C_12  and  C_21
REMARK    8  A    between atoms: C_13  and  C_23
REMARK    9  A    between atoms: C_23  and  C_24
REMARK   10  A    between atoms: C_26  and  C_29
REMARK   11  A    between atoms: C_28  and  C_30
REMARK                            x       y       z     vdW  Elec       q    Type
REMARK                         _______ _______ _______ _____ _____    ______ ____
ROOT
ATOM      1  S   UNL     1      10.896   4.474   1.823  0.00  0.00    -0.057 S 
ATOM      6  O   UNL     1       8.887   6.337  -1.942  0.00  0.00    -0.270 OA
ATOM      7  N   UNL     1       9.568   6.508   0.932  0.00  0.00    -0.229 NA
ATOM      9  N   UNL     1      10.074   4.762  -0.651  0.00  0.00    -0.261 N 
ATOM     10  C   UNL     1       9.382   7.810   4.556  0.00  0.00    -0.019 C 
ATOM     11  C   UNL     1      10.779   7.154   4.947  0.00  0.00    +0.011 C 
ATOM     12  C   UNL     1      11.220   7.257   6.458  0.00  0.00    +0.021 C 
ATOM     13  C   UNL     1       9.343   7.980   2.968  0.00  0.00    +0.054 C 
ATOM     14  C   UNL     1       9.273   9.216   5.201  0.00  0.00    +0.010 C 
ATOM     15  C   UNL     1      11.005   8.715   6.956  0.00  0.00    +0.123 C 
ATOM     16  C   UNL     1      10.924   5.724   4.348  0.00  0.00    +0.049 C 
ATOM     17  C   UNL     1       9.599   9.239   6.688  0.00  0.00    +0.032 C 
ATOM     18  C   UNL     1       8.170   6.960   5.012  0.00  0.00    +0.012 C 
ATOM     19  C   UNL     1       9.804   6.722   2.277  0.00  0.00    +0.058 A 
ATOM     21  C   UNL     1      12.742   6.953   6.563  0.00  0.00    +0.016 C 
ATOM     22  C   UNL     1      10.527   5.731   2.910  0.00  0.00    +0.015 A 
ATOM     25  C   UNL     1      10.092   5.353   0.585  0.00  0.00    +0.165 A 
ATOM     28  C   UNL     1       9.487   5.274  -1.818  0.00  0.00    +0.250 C 
ATOM     39  H   UNL     1      10.587   3.887  -0.686  0.00  0.00    +0.157 HD
ENDROOT
BRANCH  28  30
ATOM      2  F   UNL     1      10.087   2.114  -6.383  0.00  0.00    -0.205 F 
ATOM     30  C   UNL     1       9.646   4.431  -3.034  0.00  0.00    +0.037 A 
ATOM     31  C   UNL     1       8.893   4.727  -4.150  0.00  0.00    +0.016 A 
ATOM     32  C   UNL     1      10.543   3.385  -3.004  0.00  0.00    +0.016 A 
ATOM     34  C   UNL     1       9.043   3.938  -5.290  0.00  0.00    +0.039 A 
ATOM     35  C   UNL     1      10.693   2.596  -4.145  0.00  0.00    +0.039 A 
ATOM     36  C   UNL     1       9.943   2.872  -5.288  0.00  0.00    +0.123 A 
ENDBRANCH  28  30
BRANCH  15   3
ATOM      3  O   UNL     1      11.272   8.813   8.354  0.00  0.00    -0.391 OA
ATOM     37  H   UNL     1      10.872   9.636   8.681  0.00  0.00    +0.210 HD
ENDBRANCH  15   3
BRANCH  12  20
ATOM     20  C   UNL     1      10.529   6.246   7.398  0.00  0.00    +0.165 C 
BRANCH  20   4
ATOM      4  O   UNL     1      11.536   5.541   8.089  0.00  0.00    -0.394 OA
ATOM     38  H   UNL     1      11.125   4.771   8.517  0.00  0.00    +0.209 HD
ENDBRANCH  20   4
ENDBRANCH  12  20
BRANCH  13  23
ATOM     23  C   UNL     1       8.000   8.468   2.410  0.00  0.00    +0.106 C 
BRANCH  23  24
ATOM      5  O   UNL     1       9.221  10.247   1.367  0.00  0.00    -0.276 OA
ATOM      8  N   UNL     1       6.920  10.496   1.506  0.00  0.00    -0.293 N 
ATOM     24  C   UNL     1       8.121   9.811   1.716  0.00  0.00    +0.217 C 
ATOM     27  C   UNL     1       6.866  11.797   0.852  0.00  0.00    +0.133 C 
BRANCH   8  26
ATOM     26  C   UNL     1       5.628   9.958   1.928  0.00  0.00    +0.196 C 
BRANCH  26  29
ATOM     29  C   UNL     1       4.828   9.544   0.777  0.00  0.00    -0.086 C 
ATOM     33  C   UNL     1       4.167   9.204  -0.166  0.00  0.00    +0.005 C 
ENDBRANCH  26  29
ENDBRANCH   8  26
ENDBRANCH  23  24
ENDBRANCH  13  23
TORSDOF 8
ENDMDL
MODEL 9
REMARK VINA RESULT:      -6.1     23.524     25.194
REMARK  Name = 11867058
REMARK  11 active torsions:
REMARK  status: ('A' for Active; 'I' for Inactive)
REMARK    1  A    between atoms: O_3  and  C_15
REMARK    2  A    between atoms: O_4  and  C_20
REMARK    3  A    between atoms: N_8  and  C_26
REMARK    4  A    between atoms: N_8  and  C_27
REMARK    5  A    between atoms: C_10  and  C_18
REMARK    6  A    between atoms: C_12  and  C_20
REMARK    7  A    between atoms: C_12  and  C_21
REMARK    8  A    between atoms: C_13  and  C_23
REMARK    9  A    between atoms: C_23  and  C_24
REMARK   10  A    between atoms: C_26  and  C_29
REMARK   11  A    between atoms: C_28  and  C_30
REMARK                            x       y       z     vdW  Elec       q    Type
REMARK                         _______ _______ _______ _____ _____    ______ ____
ROOT
ATOM      1  S   UNL     1      -4.419 -12.551  12.024  0.00  0.00    -0.057 S 
ATOM      6  O   UNL     1      -7.060  -9.809  14.703  0.00  0.00    -0.270 OA
ATOM      7  N   UNL     1      -6.277 -10.751  12.011  0.00  0.00    -0.229 NA
ATOM      9  N   UNL     1      -5.429 -11.423  14.164  0.00  0.00    -0.261 N 
ATOM     10  C   UNL     1      -6.023 -10.703   8.164  0.00  0.00    -0.019 C 
ATOM     11  C   UNL     1      -5.607 -12.238   8.093  0.00  0.00    +0.011 C 
ATOM     12  C   UNL     1      -5.225 -12.812   6.674  0.00  0.00    +0.021 C 
ATOM     13  C   UNL     1      -6.771 -10.458   9.554  0.00  0.00    +0.054 C 
ATOM     14  C   UNL     1      -7.014 -10.384   7.013  0.00  0.00    +0.010 C 
ATOM     15  C   UNL     1      -6.293 -12.362   5.637  0.00  0.00    +0.123 C 
ATOM     16  C   UNL     1      -4.586 -12.602   9.211  0.00  0.00    +0.049 C 
ATOM     17  C   UNL     1      -6.544 -10.859   5.646  0.00  0.00    +0.032 C 
ATOM     18  C   UNL     1      -4.812  -9.745   8.055  0.00  0.00    +0.012 C 
ATOM     19  C   UNL     1      -6.012 -11.085  10.695  0.00  0.00    +0.058 A 
ATOM     21  C   UNL     1      -5.261 -14.366   6.730  0.00  0.00    +0.016 C 
ATOM     22  C   UNL     1      -5.048 -12.058  10.521  0.00  0.00    +0.015 A 
ATOM     25  C   UNL     1      -5.493 -11.456  12.796  0.00  0.00    +0.165 A 
ATOM     28  C   UNL     1      -6.198 -10.621  15.022  0.00  0.00    +0.250 C 
ATOM     39  H   UNL     1      -4.776 -12.095  14.553  0.00  0.00    +0.157 HD
ENDROOT
BRANCH  28  30
ATOM      2  F   UNL     1      -5.235 -11.347  20.474  0.00  0.00    -0.205 F 
ATOM     30  C   UNL     1      -5.941 -10.813  16.475  0.00  0.00    +0.037 A 
ATOM     31  C   UNL     1      -6.962 -10.568  17.368  0.00  0.00    +0.016 A 
ATOM     32  C   UNL     1      -4.691 -11.231  16.879  0.00  0.00    +0.016 A 
ATOM     34  C   UNL     1      -6.722 -10.750  18.730  0.00  0.00    +0.039 A 
ATOM     35  C   UNL     1      -4.451 -11.413  18.240  0.00  0.00    +0.039 A 
ATOM     36  C   UNL     1      -5.466 -11.172  19.166  0.00  0.00    +0.123 A 
ENDBRANCH  28  30
BRANCH  15   3
ATOM      3  O   UNL     1      -5.911 -12.756   4.319  0.00  0.00    -0.391 OA
ATOM     37  H   UNL     1      -5.667 -11.956   3.824  0.00  0.00    +0.210 HD
ENDBRANCH  15   3
BRANCH  12  20
ATOM     20  C   UNL     1      -3.803 -12.446   6.195  0.00  0.00    +0.165 C 
BRANCH  20   4
ATOM      4  O   UNL     1      -3.291 -13.549   5.483  0.00  0.00    -0.394 OA
ATOM     38  H   UNL     1      -2.484 -13.851   5.933  0.00  0.00    +0.209 HD
ENDBRANCH  20   4
ENDBRANCH  12  20
BRANCH  13  23
ATOM     23  C   UNL     1      -7.114  -8.991   9.845  0.00  0.00    +0.106 C 
BRANCH  23  24
ATOM      5  O   UNL     1      -9.331  -9.452  10.630  0.00  0.00    -0.276 OA
ATOM      8  N   UNL     1      -9.095  -7.708   9.119  0.00  0.00    -0.293 N 
ATOM     24  C   UNL     1      -8.610  -8.754   9.912  0.00  0.00    +0.217 C 
ATOM     27  C   UNL     1     -10.507  -7.352   9.073  0.00  0.00    +0.133 C 
BRANCH   8  26
ATOM     26  C   UNL     1      -8.220  -6.895   8.277  0.00  0.00    +0.196 C 
BRANCH  26  29
ATOM     29  C   UNL     1      -8.505  -7.109   6.859  0.00  0.00    -0.086 C 
ATOM     33  C   UNL     1      -8.737  -7.288   5.694  0.00  0.00    +0.005 C 
ENDBRANCH  26  29
ENDBRANCH   8  26
ENDBRANCH  23  24
ENDBRANCH  13  23
TORSDOF 8
ENDMDL
MODEL 10
REMARK VINA RESULT:      -6.1      6.367      8.978
REMARK  Name = 11867058
REMARK  11 active torsions:
REMARK  status: ('A' for Active; 'I' for Inactive)
REMARK    1  A    between atoms: O_3  and  C_15
REMARK    2  A    between atoms: O_4  and  C_20
REMARK    3  A    between atoms: N_8  and  C_26
REMARK    4  A    between atoms: N_8  and  C_27
REMARK    5  A    between atoms: C_10  and  C_18
REMARK    6  A    between atoms: C_12  and  C_20
REMARK    7  A    between atoms: C_12  and  C_21
REMARK    8  A    between atoms: C_13  and  C_23
REMARK    9  A    between atoms: C_23  and  C_24
REMARK   10  A    between atoms: C_26  and  C_29
REMARK   11  A    between atoms: C_28  and  C_30
REMARK                            x       y       z     vdW  Elec       q    Type
REMARK                         _______ _______ _______ _____ _____    ______ ____
ROOT
ATOM      1  S   UNL     1      14.869   8.193   6.563  0.00  0.00    -0.057 S 
ATOM      6  O   UNL     1      17.869   7.949   3.012  0.00  0.00    -0.270 OA
ATOM      7  N   UNL     1      15.080   7.939   3.997  0.00  0.00    -0.229 NA
ATOM      9  N   UNL     1      17.133   8.145   5.242  0.00  0.00    -0.261 N 
ATOM     10  C   UNL     1      11.268   7.374   3.870  0.00  0.00    -0.019 C 
ATOM     11  C   UNL     1      11.009   8.306   5.134  0.00  0.00    +0.011 C 
ATOM     12  C   UNL     1       9.529   8.380   5.676  0.00  0.00    +0.021 C 
ATOM     13  C   UNL     1      12.679   7.780   3.239  0.00  0.00    +0.054 C 
ATOM     14  C   UNL     1      10.167   7.628   2.807  0.00  0.00    +0.010 C 
ATOM     15  C   UNL     1       8.556   8.591   4.481  0.00  0.00    +0.123 C 
ATOM     16  C   UNL     1      12.072   8.065   6.246  0.00  0.00    +0.049 C 
ATOM     17  C   UNL     1       8.751   7.576   3.362  0.00  0.00    +0.032 C 
ATOM     18  C   UNL     1      11.277   5.866   4.224  0.00  0.00    +0.012 C 
ATOM     19  C   UNL     1      13.733   7.908   4.309  0.00  0.00    +0.058 A 
ATOM     21  C   UNL     1       9.393   9.618   6.607  0.00  0.00    +0.016 C 
ATOM     22  C   UNL     1      13.439   8.053   5.649  0.00  0.00    +0.015 A 
ATOM     25  C   UNL     1      15.772   8.079   5.107  0.00  0.00    +0.165 A 
ATOM     28  C   UNL     1      18.084   8.078   4.212  0.00  0.00    +0.250 C 
ATOM     39  H   UNL     1      17.436   8.302   6.198  0.00  0.00    +0.157 HD
ENDROOT
BRANCH  28  30
ATOM      2  F   UNL     1      23.404   8.566   5.839  0.00  0.00    -0.205 F 
ATOM     30  C   UNL     1      19.502   8.209   4.644  0.00  0.00    +0.037 A 
ATOM     31  C   UNL     1      19.884   9.338   5.337  0.00  0.00    +0.016 A 
ATOM     32  C   UNL     1      20.385   7.195   4.339  0.00  0.00    +0.016 A 
ATOM     34  C   UNL     1      21.212   9.459   5.744  0.00  0.00    +0.039 A 
ATOM     35  C   UNL     1      21.714   7.317   4.746  0.00  0.00    +0.039 A 
ATOM     36  C   UNL     1      22.128   8.449   5.448  0.00  0.00    +0.123 A 
ENDBRANCH  28  30
BRANCH  15   3
ATOM      3  O   UNL     1       7.200   8.534   4.922  0.00  0.00    -0.391 OA
ATOM     37  H   UNL     1       6.650   8.257   4.170  0.00  0.00    +0.210 HD
ENDBRANCH  15   3
BRANCH  12  20
ATOM     20  C   UNL     1       9.097   7.169   6.531  0.00  0.00    +0.165 C 
BRANCH  20   4
ATOM      4  O   UNL     1       8.293   7.648   7.584  0.00  0.00    -0.394 OA
ATOM     38  H   UNL     1       8.216   8.613   7.491  0.00  0.00    +0.209 HD
ENDBRANCH  20   4
ENDBRANCH  12  20
BRANCH  13  23
ATOM     23  C   UNL     1      13.150   6.876   2.092  0.00  0.00    +0.106 C 
BRANCH  23  24
ATOM      5  O   UNL     1      12.856   8.687   0.549  0.00  0.00    -0.276 OA
ATOM      8  N   UNL     1      12.529   6.545  -0.275  0.00  0.00    -0.293 N 
ATOM     24  C   UNL     1      12.835   7.467   0.731  0.00  0.00    +0.217 C 
ATOM     27  C   UNL     1      12.206   6.951  -1.637  0.00  0.00    +0.133 C 
BRANCH   8  26
ATOM     26  C   UNL     1      12.511   5.103  -0.035  0.00  0.00    +0.196 C 
BRANCH  26  29
ATOM     29  C   UNL     1      11.224   4.676   0.512  0.00  0.00    -0.086 C 
ATOM     33  C   UNL     1      10.167   4.328   0.965  0.00  0.00    +0.005 C 
ENDBRANCH  26  29
ENDBRANCH   8  26
ENDBRANCH  23  24
ENDBRANCH  13  23
TORSDOF 8
ENDMDL
