MODEL 1
REMARK VINA RESULT:      -7.6      0.000      0.000
REMARK  Name = 26742072
REMARK  7 active torsions:
REMARK  status: ('A' for Active; 'I' for Inactive)
REMARK    1  A    between atoms: O_1  and  C_9
REMARK    2  A    between atoms: O_4  and  C_25
REMARK    3  A    between atoms: O_4  and  C_29
REMARK    4  A    between atoms: N_6  and  C_8
REMARK    5  A    between atoms: N_7  and  C_17
REMARK    6  A    between atoms: C_15  and  C_16
REMARK    7  A    between atoms: C_17  and  C_18
REMARK                            x       y       z     vdW  Elec       q    Type
REMARK                         _______ _______ _______ _____ _____    ______ ____
ROOT
ATOM      2  O   UNL     1      14.792   9.919  21.676  0.00  0.00    -0.253 OA
ATOM      5  N   UNL     1      12.494   9.704  21.430  0.00  0.00    -0.284 N 
ATOM      7  N   UNL     1      13.431  10.744  23.333  0.00  0.00    -0.295 N 
ATOM      8  C   UNL     1      12.774   7.431  20.407  0.00  0.00    +0.119 C 
ATOM      9  C   UNL     1      11.971   6.821  21.572  0.00  0.00    +0.136 C 
ATOM     10  C   UNL     1      10.569   7.402  21.793  0.00  0.00    +0.035 C 
ATOM     11  C   UNL     1      12.629   8.944  20.188  0.00  0.00    +0.134 C 
ATOM     12  C   UNL     1      10.569   8.685  22.628  0.00  0.00    +0.022 C 
ATOM     13  C   UNL     1      11.117   9.902  21.895  0.00  0.00    +0.109 C 
ATOM     14  C   UNL     1      13.653  10.113  22.114  0.00  0.00    +0.303 C 
ATOM     32  H   UNL     1      12.503  10.788  23.734  0.00  0.00    +0.151 HD
ENDROOT
BRANCH   8   6
ATOM      3  O   UNL     1      14.734   7.209  18.320  0.00  0.00    -0.270 OA
ATOM      6  N   UNL     1      14.174   7.083  20.566  0.00  0.00    -0.305 N 
ATOM     15  C   UNL     1      15.040   7.003  19.491  0.00  0.00    +0.244 C 
ATOM     30  H   UNL     1      14.496   6.889  21.508  0.00  0.00    +0.149 HD
BRANCH  15  16
ATOM     16  C   UNL     1      16.435   6.609  19.816  0.00  0.00    +0.037 A 
ATOM     19  C   UNL     1      17.144   5.773  18.954  0.00  0.00    +0.016 A 
ATOM     20  C   UNL     1      17.036   7.073  20.987  0.00  0.00    +0.016 A 
ATOM     21  C   UNL     1      18.452   5.401  19.261  0.00  0.00    +0.046 A 
ATOM     22  C   UNL     1      18.344   6.701  21.294  0.00  0.00    +0.046 A 
ATOM     25  C   UNL     1      19.052   5.865  20.432  0.00  0.00    +0.120 A 
BRANCH  25   4
ATOM      4  O   UNL     1      20.330   5.503  20.731  0.00  0.00    -0.495 OA
ATOM     29  C   UNL     1      20.862   5.968  21.971  0.00  0.00    +0.277 C 
ENDBRANCH  25   4
ENDBRANCH  15  16
ENDBRANCH   8   6
BRANCH   9   1
ATOM      1  O   UNL     1      11.833   5.422  21.288  0.00  0.00    -0.390 OA
ATOM     31  H   UNL     1      12.626   5.140  20.803  0.00  0.00    +0.210 HD
ENDBRANCH   9   1
BRANCH   7  17
ATOM     17  C   UNL     1      14.515  11.215  24.165  0.00  0.00    +0.141 C 
BRANCH  17  18
ATOM     18  C   UNL     1      14.058  12.256  25.147  0.00  0.00    -0.030 A 
ATOM     23  C   UNL     1      13.010  13.116  24.816  0.00  0.00    +0.005 A 
ATOM     24  C   UNL     1      14.683  12.363  26.389  0.00  0.00    +0.005 A 
ATOM     26  C   UNL     1      12.587  14.082  25.728  0.00  0.00    +0.000 A 
ATOM     27  C   UNL     1      14.258  13.329  27.301  0.00  0.00    +0.000 A 
ATOM     28  C   UNL     1      13.210  14.189  26.971  0.00  0.00    +0.000 A 
ENDBRANCH  17  18
ENDBRANCH   7  17
TORSDOF 6
ENDMDL
MODEL 2
REMARK VINA RESULT:      -6.9     28.160     29.788
REMARK  Name = 26742072
REMARK  7 active torsions:
REMARK  status: ('A' for Active; 'I' for Inactive)
REMARK    1  A    between atoms: O_1  and  C_9
REMARK    2  A    between atoms: O_4  and  C_25
REMARK    3  A    between atoms: O_4  and  C_29
REMARK    4  A    between atoms: N_6  and  C_8
REMARK    5  A    between atoms: N_7  and  C_17
REMARK    6  A    between atoms: C_15  and  C_16
REMARK    7  A    between atoms: C_17  and  C_18
REMARK                            x       y       z     vdW  Elec       q    Type
REMARK                         _______ _______ _______ _____ _____    ______ ____
ROOT
ATOM      2  O   UNL     1      -7.794 -10.536  15.744  0.00  0.00    -0.253 OA
ATOM      5  N   UNL     1      -7.167 -11.570  17.725  0.00  0.00    -0.284 N 
ATOM      7  N   UNL     1      -8.403  -9.557  17.732  0.00  0.00    -0.295 N 
ATOM      8  C   UNL     1      -4.957 -12.222  16.734  0.00  0.00    +0.119 C 
ATOM      9  C   UNL     1      -4.242 -11.374  17.804  0.00  0.00    +0.136 C 
ATOM     10  C   UNL     1      -4.569 -11.723  19.261  0.00  0.00    +0.035 C 
ATOM     11  C   UNL     1      -6.414 -12.609  17.023  0.00  0.00    +0.134 C 
ATOM     12  C   UNL     1      -5.851 -11.059  19.770  0.00  0.00    +0.022 C 
ATOM     13  C   UNL     1      -7.129 -11.650  19.189  0.00  0.00    +0.109 C 
ATOM     14  C   UNL     1      -7.793 -10.554  16.979  0.00  0.00    +0.303 C 
ATOM     32  H   UNL     1      -8.291  -9.520  18.736  0.00  0.00    +0.151 HD
ENDROOT
BRANCH   8   6
ATOM      3  O   UNL     1      -2.964 -12.632  14.709  0.00  0.00    -0.270 OA
ATOM      6  N   UNL     1      -4.868 -11.541  15.456  0.00  0.00    -0.305 N 
ATOM     15  C   UNL     1      -3.864 -11.812  14.544  0.00  0.00    +0.244 C 
ATOM     30  H   UNL     1      -5.574 -10.841  15.256  0.00  0.00    +0.149 HD
BRANCH  15  16
ATOM     16  C   UNL     1      -3.895 -11.012  13.294  0.00  0.00    +0.037 A 
ATOM     19  C   UNL     1      -5.061 -10.340  12.924  0.00  0.00    +0.016 A 
ATOM     20  C   UNL     1      -2.761 -10.934  12.486  0.00  0.00    +0.016 A 
ATOM     21  C   UNL     1      -5.091  -9.590  11.749  0.00  0.00    +0.046 A 
ATOM     22  C   UNL     1      -2.791 -10.184  11.311  0.00  0.00    +0.046 A 
ATOM     25  C   UNL     1      -3.956  -9.513  10.942  0.00  0.00    +0.120 A 
BRANCH  25   4
ATOM      4  O   UNL     1      -3.986  -8.781   9.794  0.00  0.00    -0.495 OA
ATOM     29  C   UNL     1      -4.698  -9.336   8.689  0.00  0.00    +0.277 C 
ENDBRANCH  25   4
ENDBRANCH  15  16
ENDBRANCH   8   6
BRANCH   9   1
ATOM      1  O   UNL     1      -2.834 -11.565  17.606  0.00  0.00    -0.390 OA
ATOM     31  H   UNL     1      -2.378 -10.784  17.961  0.00  0.00    +0.210 HD
ENDBRANCH   9   1
BRANCH   7  17
ATOM     17  C   UNL     1      -9.079  -8.435  17.119  0.00  0.00    +0.141 C 
BRANCH  17  18
ATOM     18  C   UNL     1     -10.573  -8.587  17.163  0.00  0.00    -0.030 A 
ATOM     23  C   UNL     1     -11.369  -7.937  16.219  0.00  0.00    +0.005 A 
ATOM     24  C   UNL     1     -11.163  -9.379  18.147  0.00  0.00    +0.005 A 
ATOM     26  C   UNL     1     -12.756  -8.079  16.261  0.00  0.00    +0.000 A 
ATOM     27  C   UNL     1     -12.550  -9.522  18.187  0.00  0.00    +0.000 A 
ATOM     28  C   UNL     1     -13.346  -8.872  17.245  0.00  0.00    +0.000 A 
ENDBRANCH  17  18
ENDBRANCH   7  17
TORSDOF 6
ENDMDL
MODEL 3
REMARK VINA RESULT:      -6.6      4.798      7.172
REMARK  Name = 26742072
REMARK  7 active torsions:
REMARK  status: ('A' for Active; 'I' for Inactive)
REMARK    1  A    between atoms: O_1  and  C_9
REMARK    2  A    between atoms: O_4  and  C_25
REMARK    3  A    between atoms: O_4  and  C_29
REMARK    4  A    between atoms: N_6  and  C_8
REMARK    5  A    between atoms: N_7  and  C_17
REMARK    6  A    between atoms: C_15  and  C_16
REMARK    7  A    between atoms: C_17  and  C_18
REMARK                            x       y       z     vdW  Elec       q    Type
REMARK                         _______ _______ _______ _____ _____    ______ ____
ROOT
ATOM      2  O   UNL     1      15.617  10.705  19.837  0.00  0.00    -0.253 OA
ATOM      5  N   UNL     1      13.557   9.651  19.652  0.00  0.00    -0.284 N 
ATOM      7  N   UNL     1      15.283   8.743  20.985  0.00  0.00    -0.295 N 
ATOM      8  C   UNL     1      13.410  10.270  17.227  0.00  0.00    +0.119 C 
ATOM      9  C   UNL     1      13.389   8.774  16.859  0.00  0.00    +0.136 C 
ATOM     10  C   UNL     1      12.279   7.942  17.513  0.00  0.00    +0.035 C 
ATOM     11  C   UNL     1      13.069  10.628  18.680  0.00  0.00    +0.134 C 
ATOM     12  C   UNL     1      12.631   7.463  18.924  0.00  0.00    +0.022 C 
ATOM     13  C   UNL     1      12.624   8.566  19.973  0.00  0.00    +0.109 C 
ATOM     14  C   UNL     1      14.872   9.768  20.141  0.00  0.00    +0.303 C 
ATOM     32  H   UNL     1      14.708   7.924  21.129  0.00  0.00    +0.151 HD
ENDROOT
BRANCH   8   6
ATOM      3  O   UNL     1      14.068  11.664  14.804  0.00  0.00    -0.270 OA
ATOM      6  N   UNL     1      14.704  10.825  16.869  0.00  0.00    -0.305 N 
ATOM     15  C   UNL     1      14.918  11.482  15.671  0.00  0.00    +0.244 C 
ATOM     30  H   UNL     1      15.457  10.702  17.536  0.00  0.00    +0.149 HD
BRANCH  15  16
ATOM     16  C   UNL     1      16.303  11.968  15.443  0.00  0.00    +0.037 A 
ATOM     19  C   UNL     1      16.923  11.754  14.212  0.00  0.00    +0.016 A 
ATOM     20  C   UNL     1      16.985  12.635  16.460  0.00  0.00    +0.016 A 
ATOM     21  C   UNL     1      18.225  12.208  13.999  0.00  0.00    +0.046 A 
ATOM     22  C   UNL     1      18.286  13.089  16.247  0.00  0.00    +0.046 A 
ATOM     25  C   UNL     1      18.906  12.876  15.017  0.00  0.00    +0.120 A 
BRANCH  25   4
ATOM      4  O   UNL     1      20.176  13.319  14.808  0.00  0.00    -0.495 OA
ATOM     29  C   UNL     1      21.014  12.518  13.975  0.00  0.00    +0.277 C 
ENDBRANCH  25   4
ENDBRANCH  15  16
ENDBRANCH   8   6
BRANCH   9   1
ATOM      1  O   UNL     1      13.218   8.703  15.436  0.00  0.00    -0.390 OA
ATOM     31  H   UNL     1      14.090   8.531  15.044  0.00  0.00    +0.210 HD
ENDBRANCH   9   1
BRANCH   7  17
ATOM     17  C   UNL     1      16.608   8.708  21.563  0.00  0.00    +0.141 C 
BRANCH  17  18
ATOM     18  C   UNL     1      17.439   7.593  20.994  0.00  0.00    -0.030 A 
ATOM     23  C   UNL     1      18.679   7.288  21.558  0.00  0.00    +0.005 A 
ATOM     24  C   UNL     1      16.972   6.864  19.902  0.00  0.00    +0.005 A 
ATOM     26  C   UNL     1      19.450   6.254  21.028  0.00  0.00    +0.000 A 
ATOM     27  C   UNL     1      17.742   5.828  19.373  0.00  0.00    +0.000 A 
ATOM     28  C   UNL     1      18.982   5.523  19.937  0.00  0.00    +0.000 A 
ENDBRANCH  17  18
ENDBRANCH   7  17
TORSDOF 6
ENDMDL
MODEL 4
REMARK VINA RESULT:      -6.6     15.225     18.783
REMARK  Name = 26742072
REMARK  7 active torsions:
REMARK  status: ('A' for Active; 'I' for Inactive)
REMARK    1  A    between atoms: O_1  and  C_9
REMARK    2  A    between atoms: O_4  and  C_25
REMARK    3  A    between atoms: O_4  and  C_29
REMARK    4  A    between atoms: N_6  and  C_8
REMARK    5  A    between atoms: N_7  and  C_17
REMARK    6  A    between atoms: C_15  and  C_16
REMARK    7  A    between atoms: C_17  and  C_18
REMARK                            x       y       z     vdW  Elec       q    Type
REMARK                         _______ _______ _______ _____ _____    ______ ____
ROOT
ATOM      2  O   UNL     1      15.428   6.754   4.669  0.00  0.00    -0.253 OA
ATOM      5  N   UNL     1      15.313   7.345   2.427  0.00  0.00    -0.284 N 
ATOM      7  N   UNL     1      16.621   8.584   3.955  0.00  0.00    -0.295 N 
ATOM      8  C   UNL     1      12.880   6.740   2.350  0.00  0.00    +0.119 C 
ATOM      9  C   UNL     1      12.541   8.202   1.999  0.00  0.00    +0.136 C 
ATOM     10  C   UNL     1      13.236   8.768   0.755  0.00  0.00    +0.035 C 
ATOM     11  C   UNL     1      14.334   6.299   2.132  0.00  0.00    +0.134 C 
ATOM     12  C   UNL     1      14.647   9.293   1.035  0.00  0.00    +0.022 C 
ATOM     13  C   UNL     1      15.676   8.200   1.293  0.00  0.00    +0.109 C 
ATOM     14  C   UNL     1      15.767   7.505   3.749  0.00  0.00    +0.303 C 
ATOM     32  H   UNL     1      16.793   9.258   3.222  0.00  0.00    +0.151 HD
ENDROOT
BRANCH   8   6
ATOM      3  O   UNL     1      10.348   5.715   3.235  0.00  0.00    -0.270 OA
ATOM      6  N   UNL     1      12.481   6.481   3.721  0.00  0.00    -0.305 N 
ATOM     15  C   UNL     1      11.232   5.983   4.044  0.00  0.00    +0.244 C 
ATOM     30  H   UNL     1      13.160   6.690   4.445  0.00  0.00    +0.149 HD
BRANCH  15  16
ATOM     16  C   UNL     1      10.968   5.797   5.494  0.00  0.00    +0.037 A 
ATOM     19  C   UNL     1      10.009   4.878   5.917  0.00  0.00    +0.016 A 
ATOM     20  C   UNL     1      11.678   6.544   6.433  0.00  0.00    +0.016 A 
ATOM     21  C   UNL     1       9.760   4.705   7.278  0.00  0.00    +0.046 A 
ATOM     22  C   UNL     1      11.430   6.371   7.795  0.00  0.00    +0.046 A 
ATOM     25  C   UNL     1      10.470   5.453   8.217  0.00  0.00    +0.120 A 
BRANCH  25   4
ATOM      4  O   UNL     1      10.227   5.283   9.546  0.00  0.00    -0.495 OA
ATOM     29  C   UNL     1       9.015   4.621   9.904  0.00  0.00    +0.277 C 
ENDBRANCH  25   4
ENDBRANCH  15  16
ENDBRANCH   8   6
BRANCH   9   1
ATOM      1  O   UNL     1      11.124   8.254   1.778  0.00  0.00    -0.390 OA
ATOM     31  H   UNL     1      10.689   7.921   2.580  0.00  0.00    +0.210 HD
ENDBRANCH   9   1
BRANCH   7  17
ATOM     17  C   UNL     1      17.167   8.895   5.257  0.00  0.00    +0.141 C 
BRANCH  17  18
ATOM     18  C   UNL     1      18.587   8.424   5.397  0.00  0.00    -0.030 A 
ATOM     23  C   UNL     1      19.238   7.837   4.311  0.00  0.00    +0.005 A 
ATOM     24  C   UNL     1      19.254   8.575   6.612  0.00  0.00    +0.005 A 
ATOM     26  C   UNL     1      20.556   7.400   4.443  0.00  0.00    +0.000 A 
ATOM     27  C   UNL     1      20.572   8.139   6.743  0.00  0.00    +0.000 A 
ATOM     28  C   UNL     1      21.224   7.552   5.658  0.00  0.00    +0.000 A 
ENDBRANCH  17  18
ENDBRANCH   7  17
TORSDOF 6
ENDMDL
MODEL 5
REMARK VINA RESULT:      -6.5     15.754     18.795
REMARK  Name = 26742072
REMARK  7 active torsions:
REMARK  status: ('A' for Active; 'I' for Inactive)
REMARK    1  A    between atoms: O_1  and  C_9
REMARK    2  A    between atoms: O_4  and  C_25
REMARK    3  A    between atoms: O_4  and  C_29
REMARK    4  A    between atoms: N_6  and  C_8
REMARK    5  A    between atoms: N_7  and  C_17
REMARK    6  A    between atoms: C_15  and  C_16
REMARK    7  A    between atoms: C_17  and  C_18
REMARK                            x       y       z     vdW  Elec       q    Type
REMARK                         _______ _______ _______ _____ _____    ______ ____
ROOT
ATOM      2  O   UNL     1      12.712   7.660   3.503  0.00  0.00    -0.253 OA
ATOM      5  N   UNL     1      12.113   6.035   1.958  0.00  0.00    -0.284 N 
ATOM      7  N   UNL     1      10.814   6.424   3.892  0.00  0.00    -0.295 N 
ATOM      8  C   UNL     1      14.520   5.425   1.604  0.00  0.00    +0.119 C 
ATOM      9  C   UNL     1      14.223   4.004   2.120  0.00  0.00    +0.136 C 
ATOM     10  C   UNL     1      13.116   3.243   1.381  0.00  0.00    +0.035 C 
ATOM     11  C   UNL     1      13.313   6.261   1.154  0.00  0.00    +0.134 C 
ATOM     12  C   UNL     1      11.709   3.584   1.878  0.00  0.00    +0.022 C 
ATOM     13  C   UNL     1      11.227   4.971   1.475  0.00  0.00    +0.109 C 
ATOM     14  C   UNL     1      11.932   6.773   3.142  0.00  0.00    +0.303 C 
ATOM     32  H   UNL     1      10.253   5.619   3.647  0.00  0.00    +0.151 HD
ENDROOT
BRANCH   8   6
ATOM      3  O   UNL     1      16.064   7.814   1.212  0.00  0.00    -0.270 OA
ATOM      6  N   UNL     1      15.275   6.145   2.614  0.00  0.00    -0.305 N 
ATOM     15  C   UNL     1      15.989   7.292   2.321  0.00  0.00    +0.244 C 
ATOM     30  H   UNL     1      15.266   5.764   3.553  0.00  0.00    +0.149 HD
BRANCH  15  16
ATOM     16  C   UNL     1      16.730   7.896   3.458  0.00  0.00    +0.037 A 
ATOM     19  C   UNL     1      16.106   8.049   4.696  0.00  0.00    +0.016 A 
ATOM     20  C   UNL     1      18.050   8.314   3.287  0.00  0.00    +0.016 A 
ATOM     21  C   UNL     1      16.801   8.618   5.762  0.00  0.00    +0.046 A 
ATOM     22  C   UNL     1      18.745   8.883   4.354  0.00  0.00    +0.046 A 
ATOM     25  C   UNL     1      18.121   9.035   5.591  0.00  0.00    +0.120 A 
BRANCH  25   4
ATOM      4  O   UNL     1      18.800   9.590   6.632  0.00  0.00    -0.495 OA
ATOM     29  C   UNL     1      19.890   8.841   7.169  0.00  0.00    +0.277 C 
ENDBRANCH  25   4
ENDBRANCH  15  16
ENDBRANCH   8   6
BRANCH   9   1
ATOM      1  O   UNL     1      15.440   3.256   1.989  0.00  0.00    -0.390 OA
ATOM     31  H   UNL     1      16.054   3.572   2.673  0.00  0.00    +0.210 HD
ENDBRANCH   9   1
BRANCH   7  17
ATOM     17  C   UNL     1      10.490   7.077   5.140  0.00  0.00    +0.141 C 
BRANCH  17  18
ATOM     18  C   UNL     1      10.243   6.089   6.244  0.00  0.00    -0.030 A 
ATOM     23  C   UNL     1      10.320   6.496   7.577  0.00  0.00    +0.005 A 
ATOM     24  C   UNL     1       9.936   4.764   5.936  0.00  0.00    +0.005 A 
ATOM     26  C   UNL     1      10.090   5.577   8.600  0.00  0.00    +0.000 A 
ATOM     27  C   UNL     1       9.705   3.846   6.960  0.00  0.00    +0.000 A 
ATOM     28  C   UNL     1       9.782   4.252   8.292  0.00  0.00    +0.000 A 
ENDBRANCH  17  18
ENDBRANCH   7  17
TORSDOF 6
ENDMDL
MODEL 6
REMARK VINA RESULT:      -6.5     30.428     33.113
REMARK  Name = 26742072
REMARK  7 active torsions:
REMARK  status: ('A' for Active; 'I' for Inactive)
REMARK    1  A    between atoms: O_1  and  C_9
REMARK    2  A    between atoms: O_4  and  C_25
REMARK    3  A    between atoms: O_4  and  C_29
REMARK    4  A    between atoms: N_6  and  C_8
REMARK    5  A    between atoms: N_7  and  C_17
REMARK    6  A    between atoms: C_15  and  C_16
REMARK    7  A    between atoms: C_17  and  C_18
REMARK                            x       y       z     vdW  Elec       q    Type
REMARK                         _______ _______ _______ _____ _____    ______ ____
ROOT
ATOM      2  O   UNL     1     -11.999  -6.550  10.712  0.00  0.00    -0.253 OA
ATOM      5  N   UNL     1     -13.729  -5.264   9.849  0.00  0.00    -0.284 N 
ATOM      7  N   UNL     1     -11.546  -5.141   8.954  0.00  0.00    -0.295 N 
ATOM      8  C   UNL     1     -14.662  -4.901  12.148  0.00  0.00    +0.119 C 
ATOM      9  C   UNL     1     -14.432  -3.386  11.989  0.00  0.00    +0.136 C 
ATOM     10  C   UNL     1     -15.100  -2.734  10.772  0.00  0.00    +0.035 C 
ATOM     11  C   UNL     1     -14.674  -5.735  10.860  0.00  0.00    +0.134 C 
ATOM     12  C   UNL     1     -14.281  -2.868   9.486  0.00  0.00    +0.022 C 
ATOM     13  C   UNL     1     -14.262  -4.276   8.906  0.00  0.00    +0.109 C 
ATOM     14  C   UNL     1     -12.396  -5.714   9.893  0.00  0.00    +0.303 C 
ATOM     32  H   UNL     1     -11.855  -4.373   8.372  0.00  0.00    +0.151 HD
ENDROOT
BRANCH   8   6
ATOM      3  O   UNL     1     -15.190  -6.174  14.668  0.00  0.00    -0.270 OA
ATOM      6  N   UNL     1     -13.678  -5.431  13.075  0.00  0.00    -0.305 N 
ATOM     15  C   UNL     1     -14.037  -6.029  14.269  0.00  0.00    +0.244 C 
ATOM     30  H   UNL     1     -12.702  -5.337  12.815  0.00  0.00    +0.149 HD
BRANCH  15  16
ATOM     16  C   UNL     1     -12.912  -6.497  15.119  0.00  0.00    +0.037 A 
ATOM     19  C   UNL     1     -11.690  -5.825  15.091  0.00  0.00    +0.016 A 
ATOM     20  C   UNL     1     -13.076  -7.610  15.943  0.00  0.00    +0.016 A 
ATOM     21  C   UNL     1     -10.633  -6.265  15.887  0.00  0.00    +0.046 A 
ATOM     22  C   UNL     1     -12.019  -8.050  16.739  0.00  0.00    +0.046 A 
ATOM     25  C   UNL     1     -10.798  -7.379  16.711  0.00  0.00    +0.120 A 
BRANCH  25   4
ATOM      4  O   UNL     1      -9.766  -7.808  17.489  0.00  0.00    -0.495 OA
ATOM     29  C   UNL     1      -8.893  -8.786  16.925  0.00  0.00    +0.277 C 
ENDBRANCH  25   4
ENDBRANCH  15  16
ENDBRANCH   8   6
BRANCH   9   1
ATOM      1  O   UNL     1     -14.957  -2.764  13.170  0.00  0.00    -0.390 OA
ATOM     31  H   UNL     1     -14.707  -3.316  13.929  0.00  0.00    +0.210 HD
ENDBRANCH   9   1
BRANCH   7  17
ATOM     17  C   UNL     1     -10.144  -5.485   8.873  0.00  0.00    +0.141 C 
BRANCH  17  18
ATOM     18  C   UNL     1      -9.827  -6.258   7.625  0.00  0.00    -0.030 A 
ATOM     23  C   UNL     1      -8.515  -6.659   7.367  0.00  0.00    +0.005 A 
ATOM     24  C   UNL     1     -10.843  -6.573   6.724  0.00  0.00    +0.005 A 
ATOM     26  C   UNL     1      -8.221  -7.377   6.208  0.00  0.00    +0.000 A 
ATOM     27  C   UNL     1     -10.548  -7.291   5.565  0.00  0.00    +0.000 A 
ATOM     28  C   UNL     1      -9.238  -7.693   5.307  0.00  0.00    +0.000 A 
ENDBRANCH  17  18
ENDBRANCH   7  17
TORSDOF 6
ENDMDL
MODEL 7
REMARK VINA RESULT:      -6.4     28.412     30.549
REMARK  Name = 26742072
REMARK  7 active torsions:
REMARK  status: ('A' for Active; 'I' for Inactive)
REMARK    1  A    between atoms: O_1  and  C_9
REMARK    2  A    between atoms: O_4  and  C_25
REMARK    3  A    between atoms: O_4  and  C_29
REMARK    4  A    between atoms: N_6  and  C_8
REMARK    5  A    between atoms: N_7  and  C_17
REMARK    6  A    between atoms: C_15  and  C_16
REMARK    7  A    between atoms: C_17  and  C_18
REMARK                            x       y       z     vdW  Elec       q    Type
REMARK                         _______ _______ _______ _____ _____    ______ ____
ROOT
ATOM      2  O   UNL     1      -7.627 -10.114  12.505  0.00  0.00    -0.253 OA
ATOM      5  N   UNL     1      -5.600 -11.068  11.898  0.00  0.00    -0.284 N 
ATOM      7  N   UNL     1      -5.958 -10.238  14.080  0.00  0.00    -0.295 N 
ATOM      8  C   UNL     1      -5.744 -10.024   9.622  0.00  0.00    +0.119 C 
ATOM      9  C   UNL     1      -4.452  -9.237   9.915  0.00  0.00    +0.136 C 
ATOM     10  C   UNL     1      -3.231 -10.079  10.304  0.00  0.00    +0.035 C 
ATOM     11  C   UNL     1      -6.023 -11.245  10.509  0.00  0.00    +0.134 C 
ATOM     12  C   UNL     1      -3.196 -10.448  11.789  0.00  0.00    +0.022 C 
ATOM     13  C   UNL     1      -4.228 -11.492  12.194  0.00  0.00    +0.109 C 
ATOM     14  C   UNL     1      -6.479 -10.453  12.809  0.00  0.00    +0.303 C 
ATOM     32  H   UNL     1      -4.981 -10.409  14.279  0.00  0.00    +0.151 HD
ENDROOT
BRANCH   8   6
ATOM      3  O   UNL     1      -7.012  -8.762   7.376  0.00  0.00    -0.270 OA
ATOM      6  N   UNL     1      -6.871  -9.111   9.663  0.00  0.00    -0.305 N 
ATOM     15  C   UNL     1      -7.411  -8.554   8.518  0.00  0.00    +0.244 C 
ATOM     30  H   UNL     1      -7.248  -8.885  10.577  0.00  0.00    +0.149 HD
BRANCH  15  16
ATOM     16  C   UNL     1      -8.545  -7.619   8.731  0.00  0.00    +0.037 A 
ATOM     19  C   UNL     1      -8.441  -6.290   8.319  0.00  0.00    +0.016 A 
ATOM     20  C   UNL     1      -9.714  -8.067   9.345  0.00  0.00    +0.016 A 
ATOM     21  C   UNL     1      -9.505  -5.411   8.521  0.00  0.00    +0.046 A 
ATOM     22  C   UNL     1     -10.778  -7.189   9.547  0.00  0.00    +0.046 A 
ATOM     25  C   UNL     1     -10.674  -5.861   9.135  0.00  0.00    +0.120 A 
BRANCH  25   4
ATOM      4  O   UNL     1     -11.712  -5.003   9.332  0.00  0.00    -0.495 OA
ATOM     29  C   UNL     1     -11.392  -3.618   9.467  0.00  0.00    +0.277 C 
ENDBRANCH  25   4
ENDBRANCH  15  16
ENDBRANCH   8   6
BRANCH   9   1
ATOM      1  O   UNL     1      -4.130  -8.514   8.719  0.00  0.00    -0.390 OA
ATOM     31  H   UNL     1      -3.304  -8.882   8.365  0.00  0.00    +0.210 HD
ENDBRANCH   9   1
BRANCH   7  17
ATOM     17  C   UNL     1      -6.727  -9.606  15.129  0.00  0.00    +0.141 C 
BRANCH  17  18
ATOM     18  C   UNL     1      -6.289 -10.055  16.494  0.00  0.00    -0.030 A 
ATOM     23  C   UNL     1      -5.006 -10.573  16.681  0.00  0.00    +0.005 A 
ATOM     24  C   UNL     1      -7.165  -9.955  17.575  0.00  0.00    +0.005 A 
ATOM     26  C   UNL     1      -4.601 -10.990  17.949  0.00  0.00    +0.000 A 
ATOM     27  C   UNL     1      -6.759 -10.371  18.842  0.00  0.00    +0.000 A 
ATOM     28  C   UNL     1      -5.477 -10.889  19.030  0.00  0.00    +0.000 A 
ENDBRANCH  17  18
ENDBRANCH   7  17
TORSDOF 6
ENDMDL
MODEL 8
REMARK VINA RESULT:      -6.3     31.880     34.941
REMARK  Name = 26742072
REMARK  7 active torsions:
REMARK  status: ('A' for Active; 'I' for Inactive)
REMARK    1  A    between atoms: O_1  and  C_9
REMARK    2  A    between atoms: O_4  and  C_25
REMARK    3  A    between atoms: O_4  and  C_29
REMARK    4  A    between atoms: N_6  and  C_8
REMARK    5  A    between atoms: N_7  and  C_17
REMARK    6  A    between atoms: C_15  and  C_16
REMARK    7  A    between atoms: C_17  and  C_18
REMARK                            x       y       z     vdW  Elec       q    Type
REMARK                         _______ _______ _______ _____ _____    ______ ____
ROOT
ATOM      2  O   UNL     1      -9.552 -10.236  36.635  0.00  0.00    -0.253 OA
ATOM      5  N   UNL     1      -7.912 -11.871  36.796  0.00  0.00    -0.284 N 
ATOM      7  N   UNL     1     -10.207 -12.422  36.900  0.00  0.00    -0.295 N 
ATOM      8  C   UNL     1      -6.455 -10.336  38.142  0.00  0.00    +0.119 C 
ATOM      9  C   UNL     1      -6.526 -11.324  39.322  0.00  0.00    +0.136 C 
ATOM     10  C   UNL     1      -6.069 -12.757  39.022  0.00  0.00    +0.035 C 
ATOM     11  C   UNL     1      -6.832 -10.886  36.760  0.00  0.00    +0.134 C 
ATOM     12  C   UNL     1      -7.164 -13.622  38.392  0.00  0.00    +0.022 C 
ATOM     13  C   UNL     1      -7.484 -13.265  36.947  0.00  0.00    +0.109 C 
ATOM     14  C   UNL     1      -9.247 -11.426  36.764  0.00  0.00    +0.303 C 
ATOM     32  H   UNL     1      -9.943 -13.373  37.125  0.00  0.00    +0.151 HD
ENDROOT
BRANCH   8   6
ATOM      3  O   UNL     1      -5.557  -7.891  39.350  0.00  0.00    -0.270 OA
ATOM      6  N   UNL     1      -7.267  -9.173  38.452  0.00  0.00    -0.305 N 
ATOM     15  C   UNL     1      -6.735  -8.038  39.037  0.00  0.00    +0.244 C 
ATOM     30  H   UNL     1      -8.254  -9.228  38.230  0.00  0.00    +0.149 HD
BRANCH  15  16
ATOM     16  C   UNL     1      -7.701  -6.945  39.315  0.00  0.00    +0.037 A 
ATOM     19  C   UNL     1      -7.247  -5.636  39.476  0.00  0.00    +0.016 A 
ATOM     20  C   UNL     1      -9.063  -7.227  39.419  0.00  0.00    +0.016 A 
ATOM     21  C   UNL     1      -8.154  -4.610  39.740  0.00  0.00    +0.046 A 
ATOM     22  C   UNL     1      -9.970  -6.200  39.683  0.00  0.00    +0.046 A 
ATOM     25  C   UNL     1      -9.516  -4.892  39.843  0.00  0.00    +0.120 A 
BRANCH  25   4
ATOM      4  O   UNL     1     -10.401  -3.890  40.100  0.00  0.00    -0.495 OA
ATOM     29  C   UNL     1     -10.188  -2.649  39.428  0.00  0.00    +0.277 C 
ENDBRANCH  25   4
ENDBRANCH  15  16
ENDBRANCH   8   6
BRANCH   9   1
ATOM      1  O   UNL     1      -5.680 -10.795  40.353  0.00  0.00    -0.390 OA
ATOM     31  H   UNL     1      -5.014 -11.471  40.562  0.00  0.00    +0.210 HD
ENDBRANCH   9   1
BRANCH   7  17
ATOM     17  C   UNL     1     -11.623 -12.132  36.900  0.00  0.00    +0.141 C 
BRANCH  17  18
ATOM     18  C   UNL     1     -12.274 -12.514  35.601  0.00  0.00    -0.030 A 
ATOM     23  C   UNL     1     -11.812 -13.621  34.888  0.00  0.00    +0.005 A 
ATOM     24  C   UNL     1     -13.340 -11.762  35.109  0.00  0.00    +0.005 A 
ATOM     26  C   UNL     1     -12.418 -13.975  33.682  0.00  0.00    +0.000 A 
ATOM     27  C   UNL     1     -13.946 -12.118  33.904  0.00  0.00    +0.000 A 
ATOM     28  C   UNL     1     -13.485 -13.224  33.191  0.00  0.00    +0.000 A 
ENDBRANCH  17  18
ENDBRANCH   7  17
TORSDOF 6
ENDMDL
MODEL 9
REMARK VINA RESULT:      -6.3     32.196     34.656
REMARK  Name = 26742072
REMARK  7 active torsions:
REMARK  status: ('A' for Active; 'I' for Inactive)
REMARK    1  A    between atoms: O_1  and  C_9
REMARK    2  A    between atoms: O_4  and  C_25
REMARK    3  A    between atoms: O_4  and  C_29
REMARK    4  A    between atoms: N_6  and  C_8
REMARK    5  A    between atoms: N_7  and  C_17
REMARK    6  A    between atoms: C_15  and  C_16
REMARK    7  A    between atoms: C_17  and  C_18
REMARK                            x       y       z     vdW  Elec       q    Type
REMARK                         _______ _______ _______ _____ _____    ______ ____
ROOT
ATOM      2  O   UNL     1     -10.674  -8.624  39.891  0.00  0.00    -0.253 OA
ATOM      5  N   UNL     1      -8.476  -8.760  40.627  0.00  0.00    -0.284 N 
ATOM      7  N   UNL     1      -9.536  -6.672  40.312  0.00  0.00    -0.295 N 
ATOM      8  C   UNL     1      -8.044 -10.709  39.109  0.00  0.00    +0.119 C 
ATOM      9  C   UNL     1      -6.977  -9.881  38.369  0.00  0.00    +0.136 C 
ATOM     10  C   UNL     1      -5.849  -9.315  39.240  0.00  0.00    +0.035 C 
ATOM     11  C   UNL     1      -8.454 -10.217  40.504  0.00  0.00    +0.134 C 
ATOM     12  C   UNL     1      -6.216  -7.997  39.928  0.00  0.00    +0.022 C 
ATOM     13  C   UNL     1      -7.217  -8.149  41.065  0.00  0.00    +0.109 C 
ATOM     14  C   UNL     1      -9.638  -8.058  40.255  0.00  0.00    +0.303 C 
ATOM     32  H   UNL     1      -8.649  -6.222  40.494  0.00  0.00    +0.151 HD
ENDROOT
BRANCH   8   6
ATOM      3  O   UNL     1      -8.657 -12.883  37.336  0.00  0.00    -0.270 OA
ATOM      6  N   UNL     1      -9.216 -10.832  38.261  0.00  0.00    -0.305 N 
ATOM     15  C   UNL     1      -9.420 -11.925  37.439  0.00  0.00    +0.244 C 
ATOM     30  H   UNL     1      -9.886 -10.071  38.288  0.00  0.00    +0.149 HD
BRANCH  15  16
ATOM     16  C   UNL     1     -10.654 -11.889  36.614  0.00  0.00    +0.037 A 
ATOM     19  C   UNL     1     -11.535 -10.813  36.722  0.00  0.00    +0.016 A 
ATOM     20  C   UNL     1     -10.935 -12.933  35.733  0.00  0.00    +0.016 A 
ATOM     21  C   UNL     1     -12.695 -10.781  35.949  0.00  0.00    +0.046 A 
ATOM     22  C   UNL     1     -12.095 -12.901  34.960  0.00  0.00    +0.046 A 
ATOM     25  C   UNL     1     -12.975 -11.825  35.068  0.00  0.00    +0.120 A 
BRANCH  25   4
ATOM      4  O   UNL     1     -14.108 -11.793  34.313  0.00  0.00    -0.495 OA
ATOM     29  C   UNL     1     -14.887 -12.988  34.262  0.00  0.00    +0.277 C 
ENDBRANCH  25   4
ENDBRANCH  15  16
ENDBRANCH   8   6
BRANCH   9   1
ATOM      1  O   UNL     1      -6.389 -10.748  37.390  0.00  0.00    -0.390 OA
ATOM     31  H   UNL     1      -5.600 -11.152  37.789  0.00  0.00    +0.210 HD
ENDBRANCH   9   1
BRANCH   7  17
ATOM     17  C   UNL     1     -10.635  -5.805  39.951  0.00  0.00    +0.141 C 
BRANCH  17  18
ATOM     18  C   UNL     1     -10.228  -4.359  39.935  0.00  0.00    -0.030 A 
ATOM     23  C   UNL     1     -10.751  -3.497  38.970  0.00  0.00    +0.005 A 
ATOM     24  C   UNL     1      -9.326  -3.879  40.884  0.00  0.00    +0.005 A 
ATOM     26  C   UNL     1     -10.371  -2.155  38.956  0.00  0.00    +0.000 A 
ATOM     27  C   UNL     1      -8.949  -2.536  40.871  0.00  0.00    +0.000 A 
ATOM     28  C   UNL     1      -9.471  -1.674  39.906  0.00  0.00    +0.000 A 
ENDBRANCH  17  18
ENDBRANCH   7  17
TORSDOF 6
ENDMDL
MODEL 10
REMARK VINA RESULT:      -6.2     17.736     20.538
REMARK  Name = 26742072
REMARK  7 active torsions:
REMARK  status: ('A' for Active; 'I' for Inactive)
REMARK    1  A    between atoms: O_1  and  C_9
REMARK    2  A    between atoms: O_4  and  C_25
REMARK    3  A    between atoms: O_4  and  C_29
REMARK    4  A    between atoms: N_6  and  C_8
REMARK    5  A    between atoms: N_7  and  C_17
REMARK    6  A    between atoms: C_15  and  C_16
REMARK    7  A    between atoms: C_17  and  C_18
REMARK                            x       y       z     vdW  Elec       q    Type
REMARK                         _______ _______ _______ _____ _____    ______ ____
ROOT
ATOM      2  O   UNL     1       8.668   7.294   2.839  0.00  0.00    -0.253 OA
ATOM      5  N   UNL     1       8.568   7.412   5.155  0.00  0.00    -0.284 N 
ATOM      7  N   UNL     1       8.243   9.330   3.815  0.00  0.00    -0.295 N 
ATOM      8  C   UNL     1      10.447   5.763   5.361  0.00  0.00    +0.119 C 
ATOM      9  C   UNL     1      11.293   6.836   6.073  0.00  0.00    +0.136 C 
ATOM     10  C   UNL     1      10.668   7.456   7.328  0.00  0.00    +0.035 C 
ATOM     11  C   UNL     1       8.932   6.004   5.310  0.00  0.00    +0.134 C 
ATOM     12  C   UNL     1       9.699   8.601   7.021  0.00  0.00    +0.022 C 
ATOM     13  C   UNL     1       8.380   8.151   6.407  0.00  0.00    +0.109 C 
ATOM     14  C   UNL     1       8.500   7.965   3.862  0.00  0.00    +0.303 C 
ATOM     32  H   UNL     1       8.228   9.887   4.660  0.00  0.00    +0.151 HD
ENDROOT
BRANCH   8   6
ATOM      3  O   UNL     1      10.543   3.291   3.904  0.00  0.00    -0.270 OA
ATOM      6  N   UNL     1      10.965   5.567   4.020  0.00  0.00    -0.305 N 
ATOM     15  C   UNL     1      10.966   4.329   3.403  0.00  0.00    +0.244 C 
ATOM     30  H   UNL     1      11.341   6.382   3.548  0.00  0.00    +0.149 HD
BRANCH  15  16
ATOM     16  C   UNL     1      11.555   4.289   2.041  0.00  0.00    +0.037 A 
ATOM     19  C   UNL     1      12.736   3.583   1.811  0.00  0.00    +0.016 A 
ATOM     20  C   UNL     1      10.930   4.960   0.990  0.00  0.00    +0.016 A 
ATOM     21  C   UNL     1      13.290   3.547   0.532  0.00  0.00    +0.046 A 
ATOM     22  C   UNL     1      11.484   4.925  -0.289  0.00  0.00    +0.046 A 
ATOM     25  C   UNL     1      12.664   4.219  -0.518  0.00  0.00    +0.120 A 
BRANCH  25   4
ATOM      4  O   UNL     1      13.205   4.184  -1.767  0.00  0.00    -0.495 OA
ATOM     29  C   UNL     1      14.613   4.398  -1.869  0.00  0.00    +0.277 C 
ENDBRANCH  25   4
ENDBRANCH  15  16
ENDBRANCH   8   6
BRANCH   9   1
ATOM      1  O   UNL     1      12.522   6.203   6.455  0.00  0.00    -0.390 OA
ATOM     31  H   UNL     1      12.326   5.598   7.190  0.00  0.00    +0.210 HD
ENDBRANCH   9   1
BRANCH   7  17
ATOM     17  C   UNL     1       8.154  10.054   2.567  0.00  0.00    +0.141 C 
BRANCH  17  18
ATOM     18  C   UNL     1       6.803   9.905   1.927  0.00  0.00    -0.030 A 
ATOM     23  C   UNL     1       5.647  10.092   2.685  0.00  0.00    +0.005 A 
ATOM     24  C   UNL     1       6.706   9.579   0.575  0.00  0.00    +0.005 A 
ATOM     26  C   UNL     1       4.393   9.953   2.089  0.00  0.00    +0.000 A 
ATOM     27  C   UNL     1       5.452   9.441  -0.021  0.00  0.00    +0.000 A 
ATOM     28  C   UNL     1       4.295   9.629   0.737  0.00  0.00    +0.000 A 
ENDBRANCH  17  18
ENDBRANCH   7  17
TORSDOF 6
ENDMDL
