MODEL 1
REMARK VINA RESULT:      -4.9      0.000      0.000
REMARK  Name = 11884340
REMARK  5 active torsions:
REMARK  status: ('A' for Active; 'I' for Inactive)
REMARK    1  A    between atoms: O_3  and  C_10
REMARK    2  A    between atoms: O_5  and  C_14
REMARK    3  A    between atoms: O_5  and  C_15
REMARK    4  A    between atoms: N_6  and  C_9
REMARK    5  A    between atoms: C_13  and  C_14
REMARK                            x       y       z     vdW  Elec       q    Type
REMARK                         _______ _______ _______ _____ _____    ______ ____
ROOT
ATOM      1  O   UNL     1      10.794   8.350  19.597  0.00  0.00    -0.369 OA
ATOM      2  O   UNL     1      13.690   7.873  20.444  0.00  0.00    -0.369 OA
ATOM      7  C   UNL     1      12.970   9.093  20.166  0.00  0.00    +0.172 C 
ATOM      8  C   UNL     1      12.032   8.793  19.014  0.00  0.00    +0.179 C 
ATOM      9  C   UNL     1      12.045   9.421  21.319  0.00  0.00    +0.130 C 
ATOM     10  C   UNL     1      12.744   7.671  18.298  0.00  0.00    +0.171 C 
ATOM     11  C   UNL     1      10.849   8.530  21.020  0.00  0.00    +0.185 C 
ATOM     12  C   UNL     1      13.357   6.898  19.444  0.00  0.00    +0.194 C 
ENDROOT
BRANCH   9   6
ATOM      4  O   UNL     1      11.057  11.020  23.540  0.00  0.00    -0.273 OA
ATOM      6  N   UNL     1      11.637  10.825  21.296  0.00  0.00    -0.306 N 
ATOM     13  C   UNL     1      11.177  11.501  22.417  0.00  0.00    +0.239 C 
ATOM     16  H   UNL     1      11.649  11.310  20.402  0.00  0.00    +0.149 HD
BRANCH  13  14
ATOM     14  C   UNL     1      10.827  12.940  22.102  0.00  0.00    +0.255 C 
BRANCH  14   5
ATOM      5  O   UNL     1      10.437  13.626  23.272  0.00  0.00    -0.374 OA
ATOM     15  C   UNL     1      11.302  14.721  23.559  0.00  0.00    +0.194 C 
ENDBRANCH  14   5
ENDBRANCH  13  14
ENDBRANCH   9   6
BRANCH  10   3
ATOM      3  O   UNL     1      11.888   6.870  17.517  0.00  0.00    -0.387 OA
ATOM     17  H   UNL     1      11.902   5.968  17.882  0.00  0.00    +0.210 HD
ENDBRANCH  10   3
TORSDOF 4
ENDMDL
MODEL 2
REMARK VINA RESULT:      -4.9      3.823      5.313
REMARK  Name = 11884340
REMARK  5 active torsions:
REMARK  status: ('A' for Active; 'I' for Inactive)
REMARK    1  A    between atoms: O_3  and  C_10
REMARK    2  A    between atoms: O_5  and  C_14
REMARK    3  A    between atoms: O_5  and  C_15
REMARK    4  A    between atoms: N_6  and  C_9
REMARK    5  A    between atoms: C_13  and  C_14
REMARK                            x       y       z     vdW  Elec       q    Type
REMARK                         _______ _______ _______ _____ _____    ______ ____
ROOT
ATOM      1  O   UNL     1      13.189   9.966  17.657  0.00  0.00    -0.369 OA
ATOM      2  O   UNL     1      11.003   7.905  17.108  0.00  0.00    -0.369 OA
ATOM      7  C   UNL     1      12.403   7.745  17.421  0.00  0.00    +0.172 C 
ATOM      8  C   UNL     1      13.138   8.872  16.725  0.00  0.00    +0.179 C 
ATOM      9  C   UNL     1      12.636   8.007  18.894  0.00  0.00    +0.130 C 
ATOM     10  C   UNL     1      12.232   9.177  15.556  0.00  0.00    +0.171 C 
ATOM     11  C   UNL     1      12.699   9.526  18.932  0.00  0.00    +0.185 C 
ATOM     12  C   UNL     1      10.859   8.965  16.151  0.00  0.00    +0.194 C 
ENDROOT
BRANCH   9   6
ATOM      4  O   UNL     1      13.394   7.272  21.605  0.00  0.00    -0.273 OA
ATOM      6  N   UNL     1      13.909   7.445  19.343  0.00  0.00    -0.306 N 
ATOM     13  C   UNL     1      14.173   7.126  20.668  0.00  0.00    +0.239 C 
ATOM     16  H   UNL     1      14.648   7.328  18.654  0.00  0.00    +0.149 HD
BRANCH  13  14
ATOM     14  C   UNL     1      15.568   6.562  20.844  0.00  0.00    +0.255 C 
BRANCH  14   5
ATOM      5  O   UNL     1      16.508   7.322  20.117  0.00  0.00    -0.374 OA
ATOM     15  C   UNL     1      17.173   8.274  20.941  0.00  0.00    +0.194 C 
ENDBRANCH  14   5
ENDBRANCH  13  14
ENDBRANCH   9   6
BRANCH  10   3
ATOM      3  O   UNL     1      12.393  10.481  15.046  0.00  0.00    -0.387 OA
ATOM     17  H   UNL     1      13.215  10.849  15.412  0.00  0.00    +0.210 HD
ENDBRANCH  10   3
TORSDOF 4
ENDMDL
MODEL 3
REMARK VINA RESULT:      -4.8     16.368     18.210
REMARK  Name = 11884340
REMARK  5 active torsions:
REMARK  status: ('A' for Active; 'I' for Inactive)
REMARK    1  A    between atoms: O_3  and  C_10
REMARK    2  A    between atoms: O_5  and  C_14
REMARK    3  A    between atoms: O_5  and  C_15
REMARK    4  A    between atoms: N_6  and  C_9
REMARK    5  A    between atoms: C_13  and  C_14
REMARK                            x       y       z     vdW  Elec       q    Type
REMARK                         _______ _______ _______ _____ _____    ______ ____
ROOT
ATOM      1  O   UNL     1      -3.707   2.470  23.591  0.00  0.00    -0.369 OA
ATOM      2  O   UNL     1      -1.555   3.152  25.648  0.00  0.00    -0.369 OA
ATOM      7  C   UNL     1      -2.224   1.907  25.349  0.00  0.00    +0.172 C 
ATOM      8  C   UNL     1      -3.660   2.254  25.012  0.00  0.00    +0.179 C 
ATOM      9  C   UNL     1      -1.675   1.321  24.066  0.00  0.00    +0.130 C 
ATOM     10  C   UNL     1      -3.873   3.537  25.779  0.00  0.00    +0.171 C 
ATOM     11  C   UNL     1      -2.446   2.105  23.013  0.00  0.00    +0.185 C 
ATOM     12  C   UNL     1      -2.524   4.210  25.658  0.00  0.00    +0.194 C 
ENDROOT
BRANCH   9   6
ATOM      4  O   UNL     1      -0.667  -0.852  25.717  0.00  0.00    -0.273 OA
ATOM      6  N   UNL     1      -1.984  -0.103  23.951  0.00  0.00    -0.306 N 
ATOM     13  C   UNL     1      -1.447  -1.067  24.794  0.00  0.00    +0.239 C 
ATOM     16  H   UNL     1      -2.584  -0.400  23.186  0.00  0.00    +0.149 HD
BRANCH  13  14
ATOM     14  C   UNL     1      -1.941  -2.456  24.446  0.00  0.00    +0.255 C 
BRANCH  14   5
ATOM      5  O   UNL     1      -3.242  -2.663  24.951  0.00  0.00    -0.374 OA
ATOM     15  C   UNL     1      -4.233  -2.536  23.935  0.00  0.00    +0.194 C 
ENDBRANCH  14   5
ENDBRANCH  13  14
ENDBRANCH   9   6
BRANCH  10   3
ATOM      3  O   UNL     1      -4.912   4.336  25.259  0.00  0.00    -0.387 OA
ATOM     17  H   UNL     1      -5.718   4.154  25.772  0.00  0.00    +0.210 HD
ENDBRANCH  10   3
TORSDOF 4
ENDMDL
MODEL 4
REMARK VINA RESULT:      -4.8     15.945     17.739
REMARK  Name = 11884340
REMARK  5 active torsions:
REMARK  status: ('A' for Active; 'I' for Inactive)
REMARK    1  A    between atoms: O_3  and  C_10
REMARK    2  A    between atoms: O_5  and  C_14
REMARK    3  A    between atoms: O_5  and  C_15
REMARK    4  A    between atoms: N_6  and  C_9
REMARK    5  A    between atoms: C_13  and  C_14
REMARK                            x       y       z     vdW  Elec       q    Type
REMARK                         _______ _______ _______ _____ _____    ______ ____
ROOT
ATOM      1  O   UNL     1      -4.441   2.022  23.454  0.00  0.00    -0.369 OA
ATOM      2  O   UNL     1      -3.441   3.697  25.805  0.00  0.00    -0.369 OA
ATOM      7  C   UNL     1      -3.001   2.420  25.292  0.00  0.00    +0.172 C 
ATOM      8  C   UNL     1      -4.244   1.682  24.838  0.00  0.00    +0.179 C 
ATOM      9  C   UNL     1      -2.206   2.621  24.020  0.00  0.00    +0.130 C 
ATOM     10  C   UNL     1      -5.317   2.278  25.717  0.00  0.00    +0.171 C 
ATOM     11  C   UNL     1      -3.310   2.770  22.984  0.00  0.00    +0.185 C 
ATOM     12  C   UNL     1      -4.876   3.720  25.826  0.00  0.00    +0.194 C 
ENDROOT
BRANCH   9   6
ATOM      4  O   UNL     1       0.502   2.058  24.923  0.00  0.00    -0.273 OA
ATOM      6  N   UNL     1      -1.387   1.450  23.709  0.00  0.00    -0.306 N 
ATOM     13  C   UNL     1      -0.098   1.275  24.193  0.00  0.00    +0.239 C 
ATOM     16  H   UNL     1      -1.769   0.758  23.070  0.00  0.00    +0.149 HD
BRANCH  13  14
ATOM     14  C   UNL     1       0.511  -0.026  23.713  0.00  0.00    +0.255 C 
BRANCH  14   5
ATOM      5  O   UNL     1      -0.387  -1.097  23.903  0.00  0.00    -0.374 OA
ATOM     15  C   UNL     1      -0.548  -1.417  25.281  0.00  0.00    +0.194 C 
ENDBRANCH  14   5
ENDBRANCH  13  14
ENDBRANCH   9   6
BRANCH  10   3
ATOM      3  O   UNL     1      -6.614   2.160  25.179  0.00  0.00    -0.387 OA
ATOM     17  H   UNL     1      -7.040   1.385  25.585  0.00  0.00    +0.210 HD
ENDBRANCH  10   3
TORSDOF 4
ENDMDL
MODEL 5
REMARK VINA RESULT:      -4.6     28.699     30.170
REMARK  Name = 11884340
REMARK  5 active torsions:
REMARK  status: ('A' for Active; 'I' for Inactive)
REMARK    1  A    between atoms: O_3  and  C_10
REMARK    2  A    between atoms: O_5  and  C_14
REMARK    3  A    between atoms: O_5  and  C_15
REMARK    4  A    between atoms: N_6  and  C_9
REMARK    5  A    between atoms: C_13  and  C_14
REMARK                            x       y       z     vdW  Elec       q    Type
REMARK                         _______ _______ _______ _____ _____    ______ ____
ROOT
ATOM      1  O   UNL     1     -13.455   1.480  30.090  0.00  0.00    -0.369 OA
ATOM      2  O   UNL     1     -15.751   2.512  31.821  0.00  0.00    -0.369 OA
ATOM      7  C   UNL     1     -15.492   2.645  30.406  0.00  0.00    +0.172 C 
ATOM      8  C   UNL     1     -13.994   2.805  30.249  0.00  0.00    +0.179 C 
ATOM      9  C   UNL     1     -15.801   1.342  29.701  0.00  0.00    +0.130 C 
ATOM     10  C   UNL     1     -13.591   3.415  31.570  0.00  0.00    +0.171 C 
ATOM     11  C   UNL     1     -14.533   0.543  29.958  0.00  0.00    +0.185 C 
ATOM     12  C   UNL     1     -14.526   2.727  32.539  0.00  0.00    +0.194 C 
ENDROOT
BRANCH   9   6
ATOM      4  O   UNL     1     -17.897   0.248  28.005  0.00  0.00    -0.273 OA
ATOM      6  N   UNL     1     -15.980   1.541  28.263  0.00  0.00    -0.306 N 
ATOM     13  C   UNL     1     -17.020   0.971  27.541  0.00  0.00    +0.239 C 
ATOM     16  H   UNL     1     -15.280   2.085  27.766  0.00  0.00    +0.149 HD
BRANCH  13  14
ATOM     14  C   UNL     1     -16.959   1.346  26.075  0.00  0.00    +0.255 C 
BRANCH  14   5
ATOM      5  O   UNL     1     -16.892   0.192  25.267  0.00  0.00    -0.374 OA
ATOM     15  C   UNL     1     -18.013   0.088  24.394  0.00  0.00    +0.194 C 
ENDBRANCH  14   5
ENDBRANCH  13  14
ENDBRANCH   9   6
BRANCH  10   3
ATOM      3  O   UNL     1     -12.237   3.202  31.899  0.00  0.00    -0.387 OA
ATOM     17  H   UNL     1     -11.733   3.988  31.627  0.00  0.00    +0.210 HD
ENDBRANCH  10   3
TORSDOF 4
ENDMDL
MODEL 6
REMARK VINA RESULT:      -4.6     26.380     28.362
REMARK  Name = 11884340
REMARK  5 active torsions:
REMARK  status: ('A' for Active; 'I' for Inactive)
REMARK    1  A    between atoms: O_3  and  C_10
REMARK    2  A    between atoms: O_5  and  C_14
REMARK    3  A    between atoms: O_5  and  C_15
REMARK    4  A    between atoms: N_6  and  C_9
REMARK    5  A    between atoms: C_13  and  C_14
REMARK                            x       y       z     vdW  Elec       q    Type
REMARK                         _______ _______ _______ _____ _____    ______ ____
ROOT
ATOM      1  O   UNL     1      -6.806 -10.531  20.169  0.00  0.00    -0.369 OA
ATOM      2  O   UNL     1      -7.876 -13.118  18.946  0.00  0.00    -0.369 OA
ATOM      7  C   UNL     1      -7.148 -12.018  18.358  0.00  0.00    +0.172 C 
ATOM      8  C   UNL     1      -7.651 -10.754  19.026  0.00  0.00    +0.179 C 
ATOM      9  C   UNL     1      -5.690 -12.092  18.757  0.00  0.00    +0.130 C 
ATOM     10  C   UNL     1      -9.053 -11.138  19.436  0.00  0.00    +0.171 C 
ATOM     11  C   UNL     1      -5.716 -11.463  20.142  0.00  0.00    +0.185 C 
ATOM     12  C   UNL     1      -8.887 -12.591  19.819  0.00  0.00    +0.194 C 
ENDROOT
BRANCH   9   6
ATOM      4  O   UNL     1      -4.459 -12.930  16.258  0.00  0.00    -0.273 OA
ATOM      6  N   UNL     1      -4.850 -11.295  17.865  0.00  0.00    -0.306 N 
ATOM     13  C   UNL     1      -4.307 -11.791  16.688  0.00  0.00    +0.239 C 
ATOM     16  H   UNL     1      -4.617 -10.347  18.151  0.00  0.00    +0.149 HD
BRANCH  13  14
ATOM     14  C   UNL     1      -3.481 -10.747  15.965  0.00  0.00    +0.255 C 
BRANCH  14   5
ATOM      5  O   UNL     1      -2.213 -11.263  15.624  0.00  0.00    -0.374 OA
ATOM     15  C   UNL     1      -1.189 -10.280  15.744  0.00  0.00    +0.194 C 
ENDBRANCH  14   5
ENDBRANCH  13  14
ENDBRANCH   9   6
BRANCH  10   3
ATOM      3  O   UNL     1      -9.560 -10.364  20.499  0.00  0.00    -0.387 OA
ATOM     17  H   UNL     1     -10.310 -10.843  20.890  0.00  0.00    +0.210 HD
ENDBRANCH  10   3
TORSDOF 4
ENDMDL
MODEL 7
REMARK VINA RESULT:      -4.6     28.976     30.025
REMARK  Name = 11884340
REMARK  5 active torsions:
REMARK  status: ('A' for Active; 'I' for Inactive)
REMARK    1  A    between atoms: O_3  and  C_10
REMARK    2  A    between atoms: O_5  and  C_14
REMARK    3  A    between atoms: O_5  and  C_15
REMARK    4  A    between atoms: N_6  and  C_9
REMARK    5  A    between atoms: C_13  and  C_14
REMARK                            x       y       z     vdW  Elec       q    Type
REMARK                         _______ _______ _______ _____ _____    ______ ____
ROOT
ATOM      1  O   UNL     1     -16.557   0.527  29.138  0.00  0.00    -0.369 OA
ATOM      2  O   UNL     1     -14.800   2.271  30.927  0.00  0.00    -0.369 OA
ATOM      7  C   UNL     1     -14.768   2.035  29.503  0.00  0.00    +0.172 C 
ATOM      8  C   UNL     1     -15.128   0.578  29.293  0.00  0.00    +0.179 C 
ATOM      9  C   UNL     1     -15.891   2.794  28.829  0.00  0.00    +0.130 C 
ATOM     10  C   UNL     1     -14.686  -0.056  30.590  0.00  0.00    +0.171 C 
ATOM     11  C   UNL     1     -17.073   1.863  29.057  0.00  0.00    +0.185 C 
ATOM     12  C   UNL     1     -15.011   1.021  31.600  0.00  0.00    +0.194 C 
ENDROOT
BRANCH   9   6
ATOM      4  O   UNL     1     -17.296   4.534  26.967  0.00  0.00    -0.273 OA
ATOM      6  N   UNL     1     -15.649   2.948  27.395  0.00  0.00    -0.306 N 
ATOM     13  C   UNL     1     -16.380   3.811  26.590  0.00  0.00    +0.239 C 
ATOM     16  H   UNL     1     -14.942   2.357  26.965  0.00  0.00    +0.149 HD
BRANCH  13  14
ATOM     14  C   UNL     1     -15.913   3.766  25.149  0.00  0.00    +0.255 C 
BRANCH  14   5
ATOM      5  O   UNL     1     -16.006   2.456  24.635  0.00  0.00    -0.374 OA
ATOM     15  C   UNL     1     -17.290   2.194  24.077  0.00  0.00    +0.194 C 
ENDBRANCH  14   5
ENDBRANCH  13  14
ENDBRANCH   9   6
BRANCH  10   3
ATOM      3  O   UNL     1     -15.345  -1.269  30.877  0.00  0.00    -0.387 OA
ATOM     17  H   UNL     1     -16.023  -1.412  30.194  0.00  0.00    +0.210 HD
ENDBRANCH  10   3
TORSDOF 4
ENDMDL
MODEL 8
REMARK VINA RESULT:      -4.5     25.455     27.535
REMARK  Name = 11884340
REMARK  5 active torsions:
REMARK  status: ('A' for Active; 'I' for Inactive)
REMARK    1  A    between atoms: O_3  and  C_10
REMARK    2  A    between atoms: O_5  and  C_14
REMARK    3  A    between atoms: O_5  and  C_15
REMARK    4  A    between atoms: N_6  and  C_9
REMARK    5  A    between atoms: C_13  and  C_14
REMARK                            x       y       z     vdW  Elec       q    Type
REMARK                         _______ _______ _______ _____ _____    ______ ____
ROOT
ATOM      1  O   UNL     1      -4.981 -12.789  18.786  0.00  0.00    -0.369 OA
ATOM      2  O   UNL     1      -6.719 -10.663  17.448  0.00  0.00    -0.369 OA
ATOM      7  C   UNL     1      -5.304 -10.936  17.347  0.00  0.00    +0.172 C 
ATOM      8  C   UNL     1      -4.842 -11.359  18.727  0.00  0.00    +0.179 C 
ATOM      9  C   UNL     1      -5.076 -12.162  16.490  0.00  0.00    +0.130 C 
ATOM     10  C   UNL     1      -5.834 -10.664  19.629  0.00  0.00    +0.171 C 
ATOM     11  C   UNL     1      -5.323 -13.287  17.485  0.00  0.00    +0.185 C 
ATOM     12  C   UNL     1      -7.111 -10.750  18.826  0.00  0.00    +0.194 C 
ENDROOT
BRANCH   9   6
ATOM      4  O   UNL     1      -4.017 -11.051  14.018  0.00  0.00    -0.273 OA
ATOM      6  N   UNL     1      -3.699 -12.225  16.001  0.00  0.00    -0.306 N 
ATOM     13  C   UNL     1      -3.293 -11.659  14.800  0.00  0.00    +0.239 C 
ATOM     16  H   UNL     1      -3.023 -12.751  16.549  0.00  0.00    +0.149 HD
BRANCH  13  14
ATOM     14  C   UNL     1      -1.815 -11.876  14.548  0.00  0.00    +0.255 C 
BRANCH  14   5
ATOM      5  O   UNL     1      -1.041 -11.256  15.551  0.00  0.00    -0.374 OA
ATOM     15  C   UNL     1      -1.037  -9.838  15.419  0.00  0.00    +0.194 C 
ENDBRANCH  14   5
ENDBRANCH  13  14
ENDBRANCH   9   6
BRANCH  10   3
ATOM      3  O   UNL     1      -5.962 -11.270  20.896  0.00  0.00    -0.387 OA
ATOM     17  H   UNL     1      -5.775 -10.597  21.573  0.00  0.00    +0.210 HD
ENDBRANCH  10   3
TORSDOF 4
ENDMDL
MODEL 9
REMARK VINA RESULT:      -4.4     28.792     30.124
REMARK  Name = 11884340
REMARK  5 active torsions:
REMARK  status: ('A' for Active; 'I' for Inactive)
REMARK    1  A    between atoms: O_3  and  C_10
REMARK    2  A    between atoms: O_5  and  C_14
REMARK    3  A    between atoms: O_5  and  C_15
REMARK    4  A    between atoms: N_6  and  C_9
REMARK    5  A    between atoms: C_13  and  C_14
REMARK                            x       y       z     vdW  Elec       q    Type
REMARK                         _______ _______ _______ _____ _____    ______ ____
ROOT
ATOM      1  O   UNL     1     -16.139   3.762  33.445  0.00  0.00    -0.369 OA
ATOM      2  O   UNL     1     -13.828   5.572  32.602  0.00  0.00    -0.369 OA
ATOM      7  C   UNL     1     -14.052   4.160  32.399  0.00  0.00    +0.172 C 
ATOM      8  C   UNL     1     -14.721   3.640  33.655  0.00  0.00    +0.179 C 
ATOM      9  C   UNL     1     -15.089   3.953  31.315  0.00  0.00    +0.130 C 
ATOM     10  C   UNL     1     -14.229   4.602  34.709  0.00  0.00    +0.171 C 
ATOM     11  C   UNL     1     -16.386   4.150  32.086  0.00  0.00    +0.185 C 
ATOM     12  C   UNL     1     -14.182   5.910  33.951  0.00  0.00    +0.194 C 
ENDROOT
BRANCH   9   6
ATOM      4  O   UNL     1     -15.577   3.115  28.572  0.00  0.00    -0.273 OA
ATOM      6  N   UNL     1     -15.034   2.596  30.774  0.00  0.00    -0.306 N 
ATOM     13  C   UNL     1     -15.285   2.299  29.441  0.00  0.00    +0.239 C 
ATOM     16  H   UNL     1     -14.848   1.832  31.419  0.00  0.00    +0.149 HD
BRANCH  13  14
ATOM     14  C   UNL     1     -15.156   0.816  29.161  0.00  0.00    +0.255 C 
BRANCH  14   5
ATOM      5  O   UNL     1     -14.442   0.174  30.195  0.00  0.00    -0.374 OA
ATOM     15  C   UNL     1     -13.464  -0.727  29.685  0.00  0.00    +0.194 C 
ENDBRANCH  14   5
ENDBRANCH  13  14
ENDBRANCH   9   6
BRANCH  10   3
ATOM      3  O   UNL     1     -15.067   4.675  35.840  0.00  0.00    -0.387 OA
ATOM     17  H   UNL     1     -15.169   5.612  36.080  0.00  0.00    +0.210 HD
ENDBRANCH  10   3
TORSDOF 4
ENDMDL
MODEL 10
REMARK VINA RESULT:      -4.4     27.515     30.321
REMARK  Name = 11884340
REMARK  5 active torsions:
REMARK  status: ('A' for Active; 'I' for Inactive)
REMARK    1  A    between atoms: O_3  and  C_10
REMARK    2  A    between atoms: O_5  and  C_14
REMARK    3  A    between atoms: O_5  and  C_15
REMARK    4  A    between atoms: N_6  and  C_9
REMARK    5  A    between atoms: C_13  and  C_14
REMARK                            x       y       z     vdW  Elec       q    Type
REMARK                         _______ _______ _______ _____ _____    ______ ____
ROOT
ATOM      1  O   UNL     1       2.984   3.324  -6.454  0.00  0.00    -0.369 OA
ATOM      2  O   UNL     1       1.726   4.507  -3.934  0.00  0.00    -0.369 OA
ATOM      7  C   UNL     1       1.142   4.125  -5.198  0.00  0.00    +0.172 C 
ATOM      8  C   UNL     1       2.151   4.483  -6.270  0.00  0.00    +0.179 C 
ATOM      9  C   UNL     1       1.033   2.618  -5.282  0.00  0.00    +0.130 C 
ATOM     10  C   UNL     1       2.912   5.621  -5.634  0.00  0.00    +0.171 C 
ATOM     11  C   UNL     1       2.443   2.228  -5.702  0.00  0.00    +0.185 C 
ATOM     12  C   UNL     1       2.956   5.205  -4.182  0.00  0.00    +0.194 C 
ENDROOT
BRANCH   9   6
ATOM      4  O   UNL     1      -0.118  -0.025  -5.679  0.00  0.00    -0.273 OA
ATOM      6  N   UNL     1       0.077   2.206  -6.309  0.00  0.00    -0.306 N 
ATOM     13  C   UNL     1      -0.415   0.912  -6.414  0.00  0.00    +0.239 C 
ATOM     16  H   UNL     1      -0.201   2.894  -7.005  0.00  0.00    +0.149 HD
BRANCH  13  14
ATOM     14  C   UNL     1      -1.388   0.772  -7.566  0.00  0.00    +0.255 C 
BRANCH  14   5
ATOM      5  O   UNL     1      -2.464  -0.068  -7.211  0.00  0.00    -0.374 OA
ATOM     15  C   UNL     1      -3.541   0.027  -8.138  0.00  0.00    +0.194 C 
ENDBRANCH  14   5
ENDBRANCH  13  14
ENDBRANCH   9   6
BRANCH  10   3
ATOM      3  O   UNL     1       4.203   5.805  -6.172  0.00  0.00    -0.387 OA
ATOM     17  H   UNL     1       4.140   6.458  -6.890  0.00  0.00    +0.210 HD
ENDBRANCH  10   3
TORSDOF 4
ENDMDL
