MODEL 1
REMARK VINA RESULT:      -6.8      0.000      0.000
REMARK  Name = 11882030
REMARK  10 active torsions:
REMARK  status: ('A' for Active; 'I' for Inactive)
REMARK    1  A    between atoms: S_1  and  C_26
REMARK    2  A    between atoms: S_1  and  C_34
REMARK    3  A    between atoms: N_7  and  C_12
REMARK    4  A    between atoms: N_8  and  C_16
REMARK    5  A    between atoms: N_9  and  C_25
REMARK    6  A    between atoms: C_13  and  C_21
REMARK    7  A    between atoms: C_23  and  C_26
REMARK    8  A    between atoms: C_25  and  C_27
REMARK    9  A    between atoms: C_25  and  C_29
REMARK   10  A    between atoms: C_27  and  C_28
REMARK                            x       y       z     vdW  Elec       q    Type
REMARK                         _______ _______ _______ _____ _____    ______ ____
ROOT
ATOM      3  O   UNL     1      -7.896 -12.438  17.666  0.00  0.00    -0.275 OA
ATOM      6  N   UNL     1      -5.757 -11.967  16.917  0.00  0.00    -0.287 N 
ATOM     12  C   UNL     1      -3.695 -11.071  16.152  0.00  0.00    +0.094 C 
ATOM     13  C   UNL     1      -5.763 -10.561  17.293  0.00  0.00    +0.164 C 
ATOM     14  C   UNL     1      -4.307 -10.114  17.179  0.00  0.00    +0.055 C 
ATOM     15  C   UNL     1      -4.459 -12.372  16.380  0.00  0.00    +0.131 C 
ATOM     23  C   UNL     1      -6.813 -12.815  17.215  0.00  0.00    +0.226 C 
ENDROOT
BRANCH  12   7
ATOM      4  O   UNL     1      -2.117 -11.804  13.861  0.00  0.00    -0.253 OA
ATOM      7  N   UNL     1      -3.854 -10.586  14.805  0.00  0.00    -0.295 N 
ATOM      8  N   UNL     1      -3.405 -10.378  12.556  0.00  0.00    -0.297 N 
ATOM     24  C   UNL     1      -3.040 -10.997  13.749  0.00  0.00    +0.300 C 
ATOM     38  H   UNL     1      -4.623  -9.957  14.596  0.00  0.00    +0.151 HD
ATOM     39  H   UNL     1      -4.225  -9.781  12.562  0.00  0.00    +0.151 HD
BRANCH   8  16
ATOM     16  C   UNL     1      -2.730 -10.620  11.301  0.00  0.00    +0.074 C 
ATOM     17  C   UNL     1      -2.603  -9.329  10.485  0.00  0.00    +0.022 C 
ATOM     18  C   UNL     1      -3.437 -11.718  10.498  0.00  0.00    +0.022 C 
ATOM     19  C   UNL     1      -3.942  -8.867   9.910  0.00  0.00    +0.002 C 
ATOM     20  C   UNL     1      -4.774 -11.252   9.923  0.00  0.00    +0.002 C 
ATOM     22  C   UNL     1      -4.621  -9.972   9.106  0.00  0.00    +0.000 C 
ENDBRANCH   8  16
ENDBRANCH  12   7
BRANCH  13  21
ATOM      2  O   UNL     1      -6.275  -9.521  15.207  0.00  0.00    -0.274 OA
ATOM      9  N   UNL     1      -7.866  -9.484  16.906  0.00  0.00    -0.302 N 
ATOM     21  C   UNL     1      -6.644  -9.810  16.342  0.00  0.00    +0.234 C 
ATOM     40  H   UNL     1      -8.099  -9.859  17.822  0.00  0.00    +0.150 HD
BRANCH   9  25
ATOM     25  C   UNL     1      -8.888  -8.741  16.204  0.00  0.00    +0.163 C 
BRANCH  25  29
ATOM      5  O   UNL     1      -9.879  -9.629  14.171  0.00  0.00    -0.274 OA
ATOM     11  N   UNL     1     -10.114 -10.822  16.120  0.00  0.00    -0.328 N 
ATOM     29  C   UNL     1      -9.682  -9.743  15.378  0.00  0.00    +0.231 C 
ATOM     42  H   UNL     1     -10.644 -11.571  15.687  0.00  0.00    +0.145 HD
ATOM     43  H   UNL     1      -9.924 -10.914  17.112  0.00  0.00    +0.145 HD
ENDBRANCH  25  29
BRANCH  25  27
ATOM     27  C   UNL     1      -9.815  -7.981  17.161  0.00  0.00    +0.069 C 
BRANCH  27  28
ATOM     10  N   UNL     1     -12.027  -5.765  15.234  0.00  0.00    -0.360 N 
ATOM     28  C   UNL     1     -10.925  -7.257  16.455  0.00  0.00    -0.020 A 
ATOM     30  C   UNL     1     -12.299  -7.629  16.431  0.00  0.00    +0.003 A 
ATOM     31  C   UNL     1     -10.789  -6.108  15.710  0.00  0.00    +0.087 A 
ATOM     32  C   UNL     1     -12.968  -6.676  15.660  0.00  0.00    +0.047 A 
ATOM     33  C   UNL     1     -13.040  -8.687  16.994  0.00  0.00    +0.010 A 
ATOM     35  C   UNL     1     -14.346  -6.729  15.421  0.00  0.00    +0.026 A 
ATOM     36  C   UNL     1     -14.419  -8.753  16.764  0.00  0.00    +0.001 A 
ATOM     37  C   UNL     1     -15.059  -7.788  15.990  0.00  0.00    +0.002 A 
ATOM     41  H   UNL     1     -12.222  -4.960  14.655  0.00  0.00    +0.165 HD
ENDBRANCH  27  28
ENDBRANCH  25  27
ENDBRANCH   9  25
ENDBRANCH  13  21
BRANCH  23  26
ATOM     26  C   UNL     1      -6.573 -14.277  16.935  0.00  0.00    +0.164 C 
BRANCH  26   1
ATOM      1  S   UNL     1      -8.168 -15.106  16.947  0.00  0.00    -0.155 S 
ATOM     34  C   UNL     1      -8.562 -14.977  15.185  0.00  0.00    +0.085 C 
ENDBRANCH  26   1
ENDBRANCH  23  26
TORSDOF 9
ENDMDL
MODEL 2
REMARK VINA RESULT:      -6.7      2.734      7.314
REMARK  Name = 11882030
REMARK  10 active torsions:
REMARK  status: ('A' for Active; 'I' for Inactive)
REMARK    1  A    between atoms: S_1  and  C_26
REMARK    2  A    between atoms: S_1  and  C_34
REMARK    3  A    between atoms: N_7  and  C_12
REMARK    4  A    between atoms: N_8  and  C_16
REMARK    5  A    between atoms: N_9  and  C_25
REMARK    6  A    between atoms: C_13  and  C_21
REMARK    7  A    between atoms: C_23  and  C_26
REMARK    8  A    between atoms: C_25  and  C_27
REMARK    9  A    between atoms: C_25  and  C_29
REMARK   10  A    between atoms: C_27  and  C_28
REMARK                            x       y       z     vdW  Elec       q    Type
REMARK                         _______ _______ _______ _____ _____    ______ ____
ROOT
ATOM      3  O   UNL     1      -9.709  -7.692  17.486  0.00  0.00    -0.275 OA
ATOM      6  N   UNL     1      -9.764  -8.883  15.502  0.00  0.00    -0.287 N 
ATOM     12  C   UNL     1      -9.574 -10.392  13.677  0.00  0.00    +0.094 C 
ATOM     13  C   UNL     1      -9.385 -10.166  16.076  0.00  0.00    +0.164 C 
ATOM     14  C   UNL     1      -9.671 -11.191  14.980  0.00  0.00    +0.055 C 
ATOM     15  C   UNL     1     -10.063  -9.003  14.076  0.00  0.00    +0.131 C 
ATOM     23  C   UNL     1      -9.974  -7.758  16.284  0.00  0.00    +0.226 C 
ENDROOT
BRANCH  12   7
ATOM      4  O   UNL     1      -8.758 -10.760  10.943  0.00  0.00    -0.253 OA
ATOM      7  N   UNL     1      -8.226 -10.359  13.167  0.00  0.00    -0.295 N 
ATOM      8  N   UNL     1      -6.549 -10.468  11.595  0.00  0.00    -0.297 N 
ATOM     24  C   UNL     1      -7.920 -10.548  11.820  0.00  0.00    +0.300 C 
ATOM     38  H   UNL     1      -7.465 -10.137  13.802  0.00  0.00    +0.151 HD
ATOM     39  H   UNL     1      -5.952 -10.223  12.378  0.00  0.00    +0.151 HD
BRANCH   8  16
ATOM     16  C   UNL     1      -5.951 -10.627  10.288  0.00  0.00    +0.074 C 
ATOM     17  C   UNL     1      -4.613 -11.369  10.379  0.00  0.00    +0.022 C 
ATOM     18  C   UNL     1      -5.787  -9.272   9.589  0.00  0.00    +0.022 C 
ATOM     19  C   UNL     1      -3.511 -10.513  11.005  0.00  0.00    +0.002 C 
ATOM     20  C   UNL     1      -4.684  -8.420  10.216  0.00  0.00    +0.002 C 
ATOM     22  C   UNL     1      -3.360  -9.176  10.286  0.00  0.00    +0.000 C 
ENDBRANCH   8  16
ENDBRANCH  12   7
BRANCH  13  21
ATOM      2  O   UNL     1      -7.128  -9.446  15.790  0.00  0.00    -0.274 OA
ATOM      9  N   UNL     1      -7.624 -10.948  17.497  0.00  0.00    -0.302 N 
ATOM     21  C   UNL     1      -7.929 -10.128  16.425  0.00  0.00    +0.234 C 
ATOM     40  H   UNL     1      -8.383 -11.393  18.005  0.00  0.00    +0.150 HD
BRANCH   9  25
ATOM     25  C   UNL     1      -6.285 -11.106  18.017  0.00  0.00    +0.163 C 
BRANCH  25  29
ATOM      5  O   UNL     1      -7.493 -11.604  20.066  0.00  0.00    -0.274 OA
ATOM     11  N   UNL     1      -5.197 -11.659  20.103  0.00  0.00    -0.328 N 
ATOM     29  C   UNL     1      -6.417 -11.462  19.491  0.00  0.00    +0.231 C 
ATOM     42  H   UNL     1      -5.142 -11.916  21.084  0.00  0.00    +0.145 HD
ATOM     43  H   UNL     1      -4.316 -11.561  19.610  0.00  0.00    +0.145 HD
ENDBRANCH  25  29
BRANCH  25  27
ATOM     27  C   UNL     1      -5.496 -12.190  17.272  0.00  0.00    +0.069 C 
BRANCH  27  28
ATOM     10  N   UNL     1      -2.707 -10.296  15.806  0.00  0.00    -0.360 N 
ATOM     28  C   UNL     1      -4.328 -11.644  16.501  0.00  0.00    -0.020 A 
ATOM     30  C   UNL     1      -3.644 -12.287  15.432  0.00  0.00    +0.003 A 
ATOM     31  C   UNL     1      -3.730 -10.422  16.708  0.00  0.00    +0.087 A 
ATOM     32  C   UNL     1      -2.632 -11.420  15.014  0.00  0.00    +0.047 A 
ATOM     33  C   UNL     1      -3.787 -13.526  14.777  0.00  0.00    +0.010 A 
ATOM     35  C   UNL     1      -1.752 -11.731  13.970  0.00  0.00    +0.026 A 
ATOM     36  C   UNL     1      -2.916 -13.851  13.732  0.00  0.00    +0.001 A 
ATOM     37  C   UNL     1      -1.915 -12.966  13.336  0.00  0.00    +0.002 A 
ATOM     41  H   UNL     1      -2.096  -9.494  15.732  0.00  0.00    +0.165 HD
ENDBRANCH  27  28
ENDBRANCH  25  27
ENDBRANCH   9  25
ENDBRANCH  13  21
BRANCH  23  26
ATOM     26  C   UNL     1     -10.551  -6.564  15.566  0.00  0.00    +0.164 C 
BRANCH  26   1
ATOM      1  S   UNL     1     -12.311  -6.503  15.931  0.00  0.00    -0.155 S 
ATOM     34  C   UNL     1     -12.883  -5.701  14.412  0.00  0.00    +0.085 C 
ENDBRANCH  26   1
ENDBRANCH  23  26
TORSDOF 9
ENDMDL
MODEL 3
REMARK VINA RESULT:      -6.5     27.282     31.396
REMARK  Name = 11882030
REMARK  10 active torsions:
REMARK  status: ('A' for Active; 'I' for Inactive)
REMARK    1  A    between atoms: S_1  and  C_26
REMARK    2  A    between atoms: S_1  and  C_34
REMARK    3  A    between atoms: N_7  and  C_12
REMARK    4  A    between atoms: N_8  and  C_16
REMARK    5  A    between atoms: N_9  and  C_25
REMARK    6  A    between atoms: C_13  and  C_21
REMARK    7  A    between atoms: C_23  and  C_26
REMARK    8  A    between atoms: C_25  and  C_27
REMARK    9  A    between atoms: C_25  and  C_29
REMARK   10  A    between atoms: C_27  and  C_28
REMARK                            x       y       z     vdW  Elec       q    Type
REMARK                         _______ _______ _______ _____ _____    ______ ____
ROOT
ATOM      3  O   UNL     1      14.323  10.712   6.881  0.00  0.00    -0.275 OA
ATOM      6  N   UNL     1      12.601   9.359   6.131  0.00  0.00    -0.287 N 
ATOM     12  C   UNL     1      11.072   7.646   5.521  0.00  0.00    +0.094 C 
ATOM     13  C   UNL     1      12.922   8.213   6.969  0.00  0.00    +0.164 C 
ATOM     14  C   UNL     1      11.705   7.296   6.871  0.00  0.00    +0.055 C 
ATOM     15  C   UNL     1      11.379   9.132   5.361  0.00  0.00    +0.131 C 
ATOM     23  C   UNL     1      13.294  10.556   6.221  0.00  0.00    +0.226 C 
ENDROOT
BRANCH  12   7
ATOM      4  O   UNL     1      10.143   5.090   4.587  0.00  0.00    -0.253 OA
ATOM      7  N   UNL     1      11.632   6.865   4.447  0.00  0.00    -0.295 N 
ATOM      8  N   UNL     1      11.839   5.086   3.001  0.00  0.00    -0.297 N 
ATOM     24  C   UNL     1      11.115   5.629   4.059  0.00  0.00    +0.300 C 
ATOM     38  H   UNL     1      12.405   7.248   3.911  0.00  0.00    +0.151 HD
ATOM     39  H   UNL     1      12.582   5.647   2.596  0.00  0.00    +0.151 HD
BRANCH   8  16
ATOM     16  C   UNL     1      11.522   3.811   2.398  0.00  0.00    +0.074 C 
ATOM     17  C   UNL     1      12.762   3.182   1.753  0.00  0.00    +0.022 C 
ATOM     18  C   UNL     1      10.379   3.949   1.385  0.00  0.00    +0.022 C 
ATOM     19  C   UNL     1      13.190   3.910   0.478  0.00  0.00    +0.002 C 
ATOM     20  C   UNL     1      10.811   4.674   0.112  0.00  0.00    +0.002 C 
ATOM     22  C   UNL     1      12.040   4.025  -0.518  0.00  0.00    +0.000 C 
ENDBRANCH   8  16
ENDBRANCH  12   7
BRANCH  13  21
ATOM      2  O   UNL     1      14.663   6.580   6.983  0.00  0.00    -0.274 OA
ATOM      9  N   UNL     1      14.625   8.173   5.286  0.00  0.00    -0.302 N 
ATOM     21  C   UNL     1      14.153   7.551   6.429  0.00  0.00    +0.234 C 
ATOM     40  H   UNL     1      14.068   8.911   4.863  0.00  0.00    +0.150 HD
BRANCH   9  25
ATOM     25  C   UNL     1      15.812   7.742   4.583  0.00  0.00    +0.163 C 
BRANCH  25  29
ATOM      5  O   UNL     1      14.229   6.844   2.973  0.00  0.00    -0.274 OA
ATOM     11  N   UNL     1      16.360   7.327   2.266  0.00  0.00    -0.328 N 
ATOM     29  C   UNL     1      15.365   7.241   3.217  0.00  0.00    +0.231 C 
ATOM     42  H   UNL     1      16.190   7.038   1.308  0.00  0.00    +0.145 HD
ATOM     43  H   UNL     1      17.288   7.679   2.476  0.00  0.00    +0.145 HD
ENDBRANCH  25  29
BRANCH  25  27
ATOM     27  C   UNL     1      16.840   8.871   4.430  0.00  0.00    +0.069 C 
BRANCH  27  28
ATOM     10  N   UNL     1      19.529   8.545   6.915  0.00  0.00    -0.360 N 
ATOM     28  C   UNL     1      18.093   8.638   5.225  0.00  0.00    -0.020 A 
ATOM     30  C   UNL     1      19.325   8.125   4.733  0.00  0.00    +0.003 A 
ATOM     31  C   UNL     1      18.249   8.887   6.569  0.00  0.00    +0.087 A 
ATOM     32  C   UNL     1      20.209   8.077   5.813  0.00  0.00    +0.047 A 
ATOM     33  C   UNL     1      19.776   7.695   3.469  0.00  0.00    +0.010 A 
ATOM     35  C   UNL     1      21.527   7.619   5.692  0.00  0.00    +0.026 A 
ATOM     36  C   UNL     1      21.090   7.234   3.333  0.00  0.00    +0.001 A 
ATOM     37  C   UNL     1      21.950   7.198   4.428  0.00  0.00    +0.002 A 
ATOM     41  H   UNL     1      19.919   8.626   7.844  0.00  0.00    +0.165 HD
ENDBRANCH  27  28
ENDBRANCH  25  27
ENDBRANCH   9  25
ENDBRANCH  13  21
BRANCH  23  26
ATOM     26  C   UNL     1      12.716  11.704   5.431  0.00  0.00    +0.164 C 
BRANCH  26   1
ATOM      1  S   UNL     1      13.963  12.240   4.252  0.00  0.00    -0.155 S 
ATOM     34  C   UNL     1      13.801  10.899   3.046  0.00  0.00    +0.085 C 
ENDBRANCH  26   1
ENDBRANCH  23  26
TORSDOF 9
ENDMDL
MODEL 4
REMARK VINA RESULT:      -6.5     25.064     28.859
REMARK  Name = 11882030
REMARK  10 active torsions:
REMARK  status: ('A' for Active; 'I' for Inactive)
REMARK    1  A    between atoms: S_1  and  C_26
REMARK    2  A    between atoms: S_1  and  C_34
REMARK    3  A    between atoms: N_7  and  C_12
REMARK    4  A    between atoms: N_8  and  C_16
REMARK    5  A    between atoms: N_9  and  C_25
REMARK    6  A    between atoms: C_13  and  C_21
REMARK    7  A    between atoms: C_23  and  C_26
REMARK    8  A    between atoms: C_25  and  C_27
REMARK    9  A    between atoms: C_25  and  C_29
REMARK   10  A    between atoms: C_27  and  C_28
REMARK                            x       y       z     vdW  Elec       q    Type
REMARK                         _______ _______ _______ _____ _____    ______ ____
ROOT
ATOM      3  O   UNL     1      15.874   7.273   4.019  0.00  0.00    -0.275 OA
ATOM      6  N   UNL     1      14.602   8.489   5.521  0.00  0.00    -0.287 N 
ATOM     12  C   UNL     1      12.981   9.460   6.961  0.00  0.00    +0.094 C 
ATOM     13  C   UNL     1      13.590   7.466   5.738  0.00  0.00    +0.164 C 
ATOM     14  C   UNL     1      12.803   7.939   6.960  0.00  0.00    +0.055 C 
ATOM     15  C   UNL     1      14.376   9.654   6.375  0.00  0.00    +0.131 C 
ATOM     23  C   UNL     1      15.717   8.267   4.728  0.00  0.00    +0.226 C 
ENDROOT
BRANCH  12   7
ATOM      4  O   UNL     1      10.306  10.118   7.787  0.00  0.00    -0.253 OA
ATOM      7  N   UNL     1      11.972  10.119   6.171  0.00  0.00    -0.295 N 
ATOM      8  N   UNL     1       9.917  11.039   5.691  0.00  0.00    -0.297 N 
ATOM     24  C   UNL     1      10.694  10.400   6.654  0.00  0.00    +0.300 C 
ATOM     38  H   UNL     1      12.211  10.443   5.238  0.00  0.00    +0.151 HD
ATOM     39  H   UNL     1      10.358  11.285   4.811  0.00  0.00    +0.151 HD
BRANCH   8  16
ATOM     16  C   UNL     1       8.549  11.446   5.922  0.00  0.00    +0.074 C 
ATOM     17  C   UNL     1       7.661  11.104   4.720  0.00  0.00    +0.022 C 
ATOM     18  C   UNL     1       8.469  12.938   6.264  0.00  0.00    +0.022 C 
ATOM     19  C   UNL     1       7.940  11.999   3.514  0.00  0.00    +0.002 C 
ATOM     20  C   UNL     1       8.746  13.831   5.054  0.00  0.00    +0.002 C 
ATOM     22  C   UNL     1       7.843  13.479   3.876  0.00  0.00    +0.000 C 
ENDBRANCH   8  16
ENDBRANCH  12   7
BRANCH  13  21
ATOM      2  O   UNL     1      12.568   8.341   3.767  0.00  0.00    -0.274 OA
ATOM      9  N   UNL     1      12.118   6.144   4.390  0.00  0.00    -0.302 N 
ATOM     21  C   UNL     1      12.718   7.384   4.522  0.00  0.00    +0.234 C 
ATOM     40  H   UNL     1      12.390   5.397   5.023  0.00  0.00    +0.150 HD
BRANCH   9  25
ATOM     25  C   UNL     1      11.212   5.814   3.313  0.00  0.00    +0.163 C 
BRANCH  25  29
ATOM      5  O   UNL     1      11.213   3.669   2.171  0.00  0.00    -0.274 OA
ATOM     11  N   UNL     1      13.170   4.869   2.256  0.00  0.00    -0.328 N 
ATOM     29  C   UNL     1      11.837   4.660   2.541  0.00  0.00    +0.231 C 
ATOM     42  H   UNL     1      13.704   4.183   1.733  0.00  0.00    +0.145 HD
ATOM     43  H   UNL     1      13.666   5.704   2.549  0.00  0.00    +0.145 HD
ENDBRANCH  25  29
BRANCH  25  27
ATOM     27  C   UNL     1       9.818   5.426   3.823  0.00  0.00    +0.069 C 
BRANCH  27  28
ATOM     10  N   UNL     1       8.675   7.765   6.418  0.00  0.00    -0.360 N 
ATOM     28  C   UNL     1       9.417   6.170   5.065  0.00  0.00    -0.020 A 
ATOM     30  C   UNL     1       9.487   5.686   6.401  0.00  0.00    +0.003 A 
ATOM     31  C   UNL     1       8.915   7.450   5.107  0.00  0.00    +0.087 A 
ATOM     32  C   UNL     1       9.016   6.706   7.230  0.00  0.00    +0.047 A 
ATOM     33  C   UNL     1       9.905   4.475   6.988  0.00  0.00    +0.010 A 
ATOM     35  C   UNL     1       8.942   6.576   8.623  0.00  0.00    +0.026 A 
ATOM     36  C   UNL     1       9.837   4.330   8.378  0.00  0.00    +0.001 A 
ATOM     37  C   UNL     1       9.363   5.366   9.180  0.00  0.00    +0.002 A 
ATOM     41  H   UNL     1       8.304   8.647   6.743  0.00  0.00    +0.165 HD
ENDBRANCH  27  28
ENDBRANCH  25  27
ENDBRANCH   9  25
ENDBRANCH  13  21
BRANCH  23  26
ATOM     26  C   UNL     1      16.766   9.351   4.762  0.00  0.00    +0.164 C 
BRANCH  26   1
ATOM      1  S   UNL     1      18.094   8.794   5.839  0.00  0.00    -0.155 S 
ATOM     34  C   UNL     1      19.187   8.078   4.587  0.00  0.00    +0.085 C 
ENDBRANCH  26   1
ENDBRANCH  23  26
TORSDOF 9
ENDMDL
MODEL 5
REMARK VINA RESULT:      -6.5     25.436     30.390
REMARK  Name = 11882030
REMARK  10 active torsions:
REMARK  status: ('A' for Active; 'I' for Inactive)
REMARK    1  A    between atoms: S_1  and  C_26
REMARK    2  A    between atoms: S_1  and  C_34
REMARK    3  A    between atoms: N_7  and  C_12
REMARK    4  A    between atoms: N_8  and  C_16
REMARK    5  A    between atoms: N_9  and  C_25
REMARK    6  A    between atoms: C_13  and  C_21
REMARK    7  A    between atoms: C_23  and  C_26
REMARK    8  A    between atoms: C_25  and  C_27
REMARK    9  A    between atoms: C_25  and  C_29
REMARK   10  A    between atoms: C_27  and  C_28
REMARK                            x       y       z     vdW  Elec       q    Type
REMARK                         _______ _______ _______ _____ _____    ______ ____
ROOT
ATOM      3  O   UNL     1      11.193   5.764   5.079  0.00  0.00    -0.275 OA
ATOM      6  N   UNL     1      12.572   7.549   5.595  0.00  0.00    -0.287 N 
ATOM     12  C   UNL     1      14.116   9.350   5.714  0.00  0.00    +0.094 C 
ATOM     13  C   UNL     1      12.799   7.978   4.223  0.00  0.00    +0.164 C 
ATOM     14  C   UNL     1      13.439   9.360   4.340  0.00  0.00    +0.055 C 
ATOM     15  C   UNL     1      13.207   8.456   6.551  0.00  0.00    +0.131 C 
ATOM     23  C   UNL     1      11.710   6.511   5.911  0.00  0.00    +0.226 C 
ENDROOT
BRANCH  12   7
ATOM      4  O   UNL     1      16.508  10.847   5.154  0.00  0.00    -0.253 OA
ATOM      7  N   UNL     1      15.460   8.834   5.646  0.00  0.00    -0.295 N 
ATOM      8  N   UNL     1      17.743   8.892   5.361  0.00  0.00    -0.297 N 
ATOM     24  C   UNL     1      16.567   9.636   5.367  0.00  0.00    +0.300 C 
ATOM     38  H   UNL     1      15.623   7.855   5.861  0.00  0.00    +0.151 HD
ATOM     39  H   UNL     1      17.687   7.911   5.616  0.00  0.00    +0.151 HD
BRANCH   8  16
ATOM     16  C   UNL     1      19.043   9.469   5.099  0.00  0.00    +0.074 C 
ATOM     17  C   UNL     1      19.826   8.628   4.085  0.00  0.00    +0.022 C 
ATOM     18  C   UNL     1      19.836   9.652   6.398  0.00  0.00    +0.022 C 
ATOM     19  C   UNL     1      20.307   7.301   4.672  0.00  0.00    +0.002 C 
ATOM     20  C   UNL     1      20.317   8.324   6.981  0.00  0.00    +0.002 C 
ATOM     22  C   UNL     1      21.102   7.510   5.958  0.00  0.00    +0.000 C 
ENDBRANCH   8  16
ENDBRANCH  12   7
BRANCH  13  21
ATOM      2  O   UNL     1      14.920   6.965   3.813  0.00  0.00    -0.274 OA
ATOM      9  N   UNL     1      13.060   6.199   2.642  0.00  0.00    -0.302 N 
ATOM     21  C   UNL     1      13.719   7.001   3.558  0.00  0.00    +0.234 C 
ATOM     40  H   UNL     1      12.047   6.254   2.583  0.00  0.00    +0.150 HD
BRANCH   9  25
ATOM     25  C   UNL     1      13.726   5.190   1.850  0.00  0.00    +0.163 C 
BRANCH  25  29
ATOM      5  O   UNL     1      13.310   2.809   1.602  0.00  0.00    -0.274 OA
ATOM     11  N   UNL     1      11.731   4.094   2.665  0.00  0.00    -0.328 N 
ATOM     29  C   UNL     1      12.922   3.905   1.996  0.00  0.00    +0.231 C 
ATOM     42  H   UNL     1      11.105   3.316   2.842  0.00  0.00    +0.145 HD
ATOM     43  H   UNL     1      11.434   5.003   3.005  0.00  0.00    +0.145 HD
ENDBRANCH  25  29
BRANCH  25  27
ATOM     27  C   UNL     1      13.836   5.589   0.373  0.00  0.00    +0.069 C 
BRANCH  27  28
ATOM     10  N   UNL     1      10.481   5.894  -1.099  0.00  0.00    -0.360 N 
ATOM     28  C   UNL     1      12.534   5.472  -0.367  0.00  0.00    -0.020 A 
ATOM     30  C   UNL     1      12.171   4.448  -1.286  0.00  0.00    +0.003 A 
ATOM     31  C   UNL     1      11.476   6.346  -0.273  0.00  0.00    +0.087 A 
ATOM     32  C   UNL     1      10.878   4.736  -1.730  0.00  0.00    +0.047 A 
ATOM     33  C   UNL     1      12.818   3.300  -1.785  0.00  0.00    +0.010 A 
ATOM     35  C   UNL     1      10.198   3.931  -2.651  0.00  0.00    +0.026 A 
ATOM     36  C   UNL     1      12.151   2.486  -2.706  0.00  0.00    +0.001 A 
ATOM     37  C   UNL     1      10.861   2.798  -3.131  0.00  0.00    +0.002 A 
ATOM     41  H   UNL     1       9.585   6.344  -1.227  0.00  0.00    +0.165 HD
ENDBRANCH  27  28
ENDBRANCH  25  27
ENDBRANCH   9  25
ENDBRANCH  13  21
BRANCH  23  26
ATOM     26  C   UNL     1      11.433   6.318   7.381  0.00  0.00    +0.164 C 
BRANCH  26   1
ATOM      1  S   UNL     1       9.684   5.944   7.565  0.00  0.00    -0.155 S 
ATOM     34  C   UNL     1       9.826   4.350   8.410  0.00  0.00    +0.085 C 
ENDBRANCH  26   1
ENDBRANCH  23  26
TORSDOF 9
ENDMDL
MODEL 6
REMARK VINA RESULT:      -6.5     26.457     31.515
REMARK  Name = 11882030
REMARK  10 active torsions:
REMARK  status: ('A' for Active; 'I' for Inactive)
REMARK    1  A    between atoms: S_1  and  C_26
REMARK    2  A    between atoms: S_1  and  C_34
REMARK    3  A    between atoms: N_7  and  C_12
REMARK    4  A    between atoms: N_8  and  C_16
REMARK    5  A    between atoms: N_9  and  C_25
REMARK    6  A    between atoms: C_13  and  C_21
REMARK    7  A    between atoms: C_23  and  C_26
REMARK    8  A    between atoms: C_25  and  C_27
REMARK    9  A    between atoms: C_25  and  C_29
REMARK   10  A    between atoms: C_27  and  C_28
REMARK                            x       y       z     vdW  Elec       q    Type
REMARK                         _______ _______ _______ _____ _____    ______ ____
ROOT
ATOM      3  O   UNL     1      11.130   5.813   5.407  0.00  0.00    -0.275 OA
ATOM      6  N   UNL     1      12.503   7.586   5.981  0.00  0.00    -0.287 N 
ATOM     12  C   UNL     1      14.033   9.395   6.154  0.00  0.00    +0.094 C 
ATOM     13  C   UNL     1      12.699   8.081   4.626  0.00  0.00    +0.164 C 
ATOM     14  C   UNL     1      13.329   9.462   4.795  0.00  0.00    +0.055 C 
ATOM     15  C   UNL     1      13.148   8.454   6.965  0.00  0.00    +0.131 C 
ATOM     23  C   UNL     1      11.657   6.525   6.264  0.00  0.00    +0.226 C 
ENDROOT
BRANCH  12   7
ATOM      4  O   UNL     1      16.364  10.899   5.396  0.00  0.00    -0.253 OA
ATOM      7  N   UNL     1      15.379   8.897   6.036  0.00  0.00    -0.295 N 
ATOM      8  N   UNL     1      17.643   8.974   5.624  0.00  0.00    -0.297 N 
ATOM     24  C   UNL     1      16.456   9.700   5.661  0.00  0.00    +0.300 C 
ATOM     38  H   UNL     1      15.570   7.931   6.286  0.00  0.00    +0.151 HD
ATOM     39  H   UNL     1      17.617   8.006   5.927  0.00  0.00    +0.151 HD
BRANCH   8  16
ATOM     16  C   UNL     1      18.916   9.558   5.266  0.00  0.00    +0.074 C 
ATOM     17  C   UNL     1      19.612   8.736   4.174  0.00  0.00    +0.022 C 
ATOM     18  C   UNL     1      19.815   9.718   6.497  0.00  0.00    +0.022 C 
ATOM     19  C   UNL     1      20.140   7.400   4.696  0.00  0.00    +0.002 C 
ATOM     20  C   UNL     1      20.342   8.380   7.014  0.00  0.00    +0.002 C 
ATOM     22  C   UNL     1      21.040   7.586   5.914  0.00  0.00    +0.000 C 
ENDBRANCH   8  16
ENDBRANCH  12   7
BRANCH  13  21
ATOM      2  O   UNL     1      14.813   7.077   4.159  0.00  0.00    -0.274 OA
ATOM      9  N   UNL     1      12.956   6.419   2.921  0.00  0.00    -0.302 N 
ATOM     21  C   UNL     1      13.615   7.145   3.898  0.00  0.00    +0.234 C 
ATOM     40  H   UNL     1      11.943   6.489   2.858  0.00  0.00    +0.150 HD
BRANCH   9  25
ATOM     25  C   UNL     1      13.618   5.464   2.062  0.00  0.00    +0.163 C 
BRANCH  25  29
ATOM      5  O   UNL     1      13.049   3.189   1.424  0.00  0.00    -0.274 OA
ATOM     11  N   UNL     1      11.610   4.337   2.798  0.00  0.00    -0.328 N 
ATOM     29  C   UNL     1      12.749   4.214   2.030  0.00  0.00    +0.231 C 
ATOM     42  H   UNL     1      10.950   3.570   2.875  0.00  0.00    +0.145 HD
ATOM     43  H   UNL     1      11.386   5.183   3.312  0.00  0.00    +0.145 HD
ENDBRANCH  25  29
BRANCH  25  27
ATOM     27  C   UNL     1      13.830   6.005   0.643  0.00  0.00    +0.069 C 
BRANCH  27  28
ATOM     10  N   UNL     1      17.340   5.948  -0.448  0.00  0.00    -0.360 N 
ATOM     28  C   UNL     1      15.276   6.243   0.314  0.00  0.00    -0.020 A 
ATOM     30  C   UNL     1      16.035   7.407   0.623  0.00  0.00    +0.003 A 
ATOM     31  C   UNL     1      16.106   5.365  -0.344  0.00  0.00    +0.087 A 
ATOM     32  C   UNL     1      17.326   7.196   0.134  0.00  0.00    +0.047 A 
ATOM     33  C   UNL     1      15.747   8.624   1.272  0.00  0.00    +0.010 A 
ATOM     35  C   UNL     1      18.348   8.144   0.262  0.00  0.00    +0.026 A 
ATOM     36  C   UNL     1      16.759   9.582   1.408  0.00  0.00    +0.001 A 
ATOM     37  C   UNL     1      18.038   9.342   0.911  0.00  0.00    +0.002 A 
ATOM     41  H   UNL     1      18.146   5.524  -0.888  0.00  0.00    +0.165 HD
ENDBRANCH  27  28
ENDBRANCH  25  27
ENDBRANCH   9  25
ENDBRANCH  13  21
BRANCH  23  26
ATOM     26  C   UNL     1      11.411   6.262   7.728  0.00  0.00    +0.164 C 
BRANCH  26   1
ATOM      1  S   UNL     1       9.652   5.953   7.941  0.00  0.00    -0.155 S 
ATOM     34  C   UNL     1       9.741   4.266   8.590  0.00  0.00    +0.085 C 
ENDBRANCH  26   1
ENDBRANCH  23  26
TORSDOF 9
ENDMDL
MODEL 7
REMARK VINA RESULT:      -6.5     26.987     30.966
REMARK  Name = 11882030
REMARK  10 active torsions:
REMARK  status: ('A' for Active; 'I' for Inactive)
REMARK    1  A    between atoms: S_1  and  C_26
REMARK    2  A    between atoms: S_1  and  C_34
REMARK    3  A    between atoms: N_7  and  C_12
REMARK    4  A    between atoms: N_8  and  C_16
REMARK    5  A    between atoms: N_9  and  C_25
REMARK    6  A    between atoms: C_13  and  C_21
REMARK    7  A    between atoms: C_23  and  C_26
REMARK    8  A    between atoms: C_25  and  C_27
REMARK    9  A    between atoms: C_25  and  C_29
REMARK   10  A    between atoms: C_27  and  C_28
REMARK                            x       y       z     vdW  Elec       q    Type
REMARK                         _______ _______ _______ _____ _____    ______ ____
ROOT
ATOM      3  O   UNL     1      11.180  11.059   6.575  0.00  0.00    -0.275 OA
ATOM      6  N   UNL     1      10.932   8.777   6.281  0.00  0.00    -0.287 N 
ATOM     12  C   UNL     1      11.109   6.423   6.018  0.00  0.00    +0.094 C 
ATOM     13  C   UNL     1      12.222   8.403   6.844  0.00  0.00    +0.164 C 
ATOM     14  C   UNL     1      12.142   6.891   7.047  0.00  0.00    +0.055 C 
ATOM     15  C   UNL     1      10.142   7.599   5.926  0.00  0.00    +0.131 C 
ATOM     23  C   UNL     1      10.485  10.089   6.269  0.00  0.00    +0.226 C 
ENDROOT
BRANCH  12   7
ATOM      4  O   UNL     1      10.315   4.368   4.169  0.00  0.00    -0.253 OA
ATOM      7  N   UNL     1      11.716   6.127   4.745  0.00  0.00    -0.295 N 
ATOM      8  N   UNL     1      12.022   5.034   2.743  0.00  0.00    -0.297 N 
ATOM     24  C   UNL     1      11.264   5.107   3.907  0.00  0.00    +0.300 C 
ATOM     38  H   UNL     1      12.473   6.716   4.412  0.00  0.00    +0.151 HD
ATOM     39  H   UNL     1      12.740   5.736   2.597  0.00  0.00    +0.151 HD
BRANCH   8  16
ATOM     16  C   UNL     1      11.773   4.067   1.697  0.00  0.00    +0.074 C 
ATOM     17  C   UNL     1      12.927   3.063   1.588  0.00  0.00    +0.022 C 
ATOM     18  C   UNL     1      11.514   4.761   0.355  0.00  0.00    +0.022 C 
ATOM     19  C   UNL     1      14.190   3.685   0.994  0.00  0.00    +0.002 C 
ATOM     20  C   UNL     1      12.780   5.380  -0.237  0.00  0.00    +0.002 C 
ATOM     22  C   UNL     1      13.909   4.360  -0.345  0.00  0.00    +0.000 C 
ENDBRANCH   8  16
ENDBRANCH  12   7
BRANCH  13  21
ATOM      2  O   UNL     1      13.379   8.242   4.763  0.00  0.00    -0.274 OA
ATOM      9  N   UNL     1      14.162   9.725   6.377  0.00  0.00    -0.302 N 
ATOM     21  C   UNL     1      13.298   8.770   5.869  0.00  0.00    +0.234 C 
ATOM     40  H   UNL     1      13.942  10.161   7.268  0.00  0.00    +0.150 HD
BRANCH   9  25
ATOM     25  C   UNL     1      15.299  10.234   5.643  0.00  0.00    +0.163 C 
BRANCH  25  29
ATOM      5  O   UNL     1      16.130  12.510   5.456  0.00  0.00    -0.274 OA
ATOM     11  N   UNL     1      13.880  12.186   5.785  0.00  0.00    -0.328 N 
ATOM     29  C   UNL     1      15.180  11.752   5.631  0.00  0.00    +0.231 C 
ATOM     42  H   UNL     1      13.659  13.176   5.781  0.00  0.00    +0.145 HD
ATOM     43  H   UNL     1      13.101  11.547   5.906  0.00  0.00    +0.145 HD
ENDBRANCH  25  29
BRANCH  25  27
ATOM     27  C   UNL     1      16.633   9.806   6.267  0.00  0.00    +0.069 C 
BRANCH  27  28
ATOM     10  N   UNL     1      18.162   7.850   3.556  0.00  0.00    -0.360 N 
ATOM     28  C   UNL     1      17.481   8.986   5.338  0.00  0.00    -0.020 A 
ATOM     30  C   UNL     1      18.792   8.497   5.597  0.00  0.00    +0.003 A 
ATOM     31  C   UNL     1      17.121   8.572   4.076  0.00  0.00    +0.087 A 
ATOM     32  C   UNL     1      19.196   7.787   4.464  0.00  0.00    +0.047 A 
ATOM     33  C   UNL     1      19.677   8.589   6.689  0.00  0.00    +0.010 A 
ATOM     35  C   UNL     1      20.446   7.163   4.368  0.00  0.00    +0.026 A 
ATOM     36  C   UNL     1      20.930   7.971   6.608  0.00  0.00    +0.001 A 
ATOM     37  C   UNL     1      21.305   7.269   5.464  0.00  0.00    +0.002 A 
ATOM     41  H   UNL     1      18.171   7.423   2.640  0.00  0.00    +0.165 HD
ENDBRANCH  27  28
ENDBRANCH  25  27
ENDBRANCH   9  25
ENDBRANCH  13  21
BRANCH  23  26
ATOM     26  C   UNL     1       9.054  10.285   5.834  0.00  0.00    +0.164 C 
BRANCH  26   1
ATOM      1  S   UNL     1       9.069  10.753   4.098  0.00  0.00    -0.155 S 
ATOM     34  C   UNL     1       7.963   9.473   3.454  0.00  0.00    +0.085 C 
ENDBRANCH  26   1
ENDBRANCH  23  26
TORSDOF 9
ENDMDL
MODEL 8
REMARK VINA RESULT:      -6.5     25.265     28.650
REMARK  Name = 11882030
REMARK  10 active torsions:
REMARK  status: ('A' for Active; 'I' for Inactive)
REMARK    1  A    between atoms: S_1  and  C_26
REMARK    2  A    between atoms: S_1  and  C_34
REMARK    3  A    between atoms: N_7  and  C_12
REMARK    4  A    between atoms: N_8  and  C_16
REMARK    5  A    between atoms: N_9  and  C_25
REMARK    6  A    between atoms: C_13  and  C_21
REMARK    7  A    between atoms: C_23  and  C_26
REMARK    8  A    between atoms: C_25  and  C_27
REMARK    9  A    between atoms: C_25  and  C_29
REMARK   10  A    between atoms: C_27  and  C_28
REMARK                            x       y       z     vdW  Elec       q    Type
REMARK                         _______ _______ _______ _____ _____    ______ ____
ROOT
ATOM      3  O   UNL     1      14.744   7.327   6.510  0.00  0.00    -0.275 OA
ATOM      6  N   UNL     1      14.008   8.198   4.496  0.00  0.00    -0.287 N 
ATOM     12  C   UNL     1      12.864   8.950   2.555  0.00  0.00    +0.094 C 
ATOM     13  C   UNL     1      12.602   8.278   4.861  0.00  0.00    +0.164 C 
ATOM     14  C   UNL     1      11.958   9.138   3.775  0.00  0.00    +0.055 C 
ATOM     15  C   UNL     1      14.248   8.759   3.167  0.00  0.00    +0.131 C 
ATOM     23  C   UNL     1      14.983   7.797   5.396  0.00  0.00    +0.226 C 
ENDROOT
BRANCH  12   7
ATOM      4  O   UNL     1      13.716   8.337  -0.123  0.00  0.00    -0.253 OA
ATOM      7  N   UNL     1      12.468   7.813   1.762  0.00  0.00    -0.295 N 
ATOM      8  N   UNL     1      12.396   6.428  -0.075  0.00  0.00    -0.297 N 
ATOM     24  C   UNL     1      12.932   7.593   0.466  0.00  0.00    +0.300 C 
ATOM     38  H   UNL     1      11.865   7.109   2.178  0.00  0.00    +0.151 HD
ATOM     39  H   UNL     1      11.812   5.852   0.523  0.00  0.00    +0.151 HD
BRANCH   8  16
ATOM     16  C   UNL     1      12.707   5.957  -1.406  0.00  0.00    +0.074 C 
ATOM     17  C   UNL     1      11.444   5.474  -2.129  0.00  0.00    +0.022 C 
ATOM     18  C   UNL     1      13.777   4.861  -1.367  0.00  0.00    +0.022 C 
ATOM     19  C   UNL     1      10.916   4.156  -1.565  0.00  0.00    +0.002 C 
ATOM     20  C   UNL     1      13.245   3.543  -0.805  0.00  0.00    +0.002 C 
ATOM     22  C   UNL     1      11.996   3.078  -1.547  0.00  0.00    +0.000 C 
ENDBRANCH   8  16
ENDBRANCH  12   7
BRANCH  13  21
ATOM      2  O   UNL     1      12.277   6.078   3.996  0.00  0.00    -0.274 OA
ATOM      9  N   UNL     1      11.197   6.685   5.967  0.00  0.00    -0.302 N 
ATOM     21  C   UNL     1      12.028   6.894   4.879  0.00  0.00    +0.234 C 
ATOM     40  H   UNL     1      11.140   7.402   6.685  0.00  0.00    +0.150 HD
BRANCH   9  25
ATOM     25  C   UNL     1      10.502   5.440   6.204  0.00  0.00    +0.163 C 
BRANCH  25  29
ATOM      5  O   UNL     1      10.296   6.234   8.491  0.00  0.00    -0.274 OA
ATOM     11  N   UNL     1      10.259   3.970   8.106  0.00  0.00    -0.328 N 
ATOM     29  C   UNL     1      10.360   5.287   7.711  0.00  0.00    +0.231 C 
ATOM     42  H   UNL     1      10.146   3.727   9.085  0.00  0.00    +0.145 HD
ATOM     43  H   UNL     1      10.291   3.198   7.448  0.00  0.00    +0.145 HD
ENDBRANCH  25  29
BRANCH  25  27
ATOM     27  C   UNL     1       9.125   5.406   5.529  0.00  0.00    +0.069 C 
BRANCH  27  28
ATOM     10  N   UNL     1       7.539   8.720   5.649  0.00  0.00    -0.360 N 
ATOM     28  C   UNL     1       8.547   6.773   5.301  0.00  0.00    -0.020 A 
ATOM     30  C   UNL     1       8.542   7.497   4.075  0.00  0.00    +0.003 A 
ATOM     31  C   UNL     1       7.923   7.551   6.249  0.00  0.00    +0.087 A 
ATOM     32  C   UNL     1       7.904   8.714   4.321  0.00  0.00    +0.047 A 
ATOM     33  C   UNL     1       9.020   7.233   2.776  0.00  0.00    +0.010 A 
ATOM     35  C   UNL     1       7.719   9.685   3.330  0.00  0.00    +0.026 A 
ATOM     36  C   UNL     1       8.843   8.194   1.775  0.00  0.00    +0.001 A 
ATOM     37  C   UNL     1       8.202   9.400   2.050  0.00  0.00    +0.002 A 
ATOM     41  H   UNL     1       7.057   9.478   6.113  0.00  0.00    +0.165 HD
ENDBRANCH  27  28
ENDBRANCH  25  27
ENDBRANCH   9  25
ENDBRANCH  13  21
BRANCH  23  26
ATOM     26  C   UNL     1      16.408   7.954   4.927  0.00  0.00    +0.164 C 
BRANCH  26   1
ATOM      1  S   UNL     1      17.275   8.961   6.139  0.00  0.00    -0.155 S 
ATOM     34  C   UNL     1      16.313  10.485   5.975  0.00  0.00    +0.085 C 
ENDBRANCH  26   1
ENDBRANCH  23  26
TORSDOF 9
ENDMDL
MODEL 9
REMARK VINA RESULT:      -6.4     25.738     28.697
REMARK  Name = 11882030
REMARK  10 active torsions:
REMARK  status: ('A' for Active; 'I' for Inactive)
REMARK    1  A    between atoms: S_1  and  C_26
REMARK    2  A    between atoms: S_1  and  C_34
REMARK    3  A    between atoms: N_7  and  C_12
REMARK    4  A    between atoms: N_8  and  C_16
REMARK    5  A    between atoms: N_9  and  C_25
REMARK    6  A    between atoms: C_13  and  C_21
REMARK    7  A    between atoms: C_23  and  C_26
REMARK    8  A    between atoms: C_25  and  C_27
REMARK    9  A    between atoms: C_25  and  C_29
REMARK   10  A    between atoms: C_27  and  C_28
REMARK                            x       y       z     vdW  Elec       q    Type
REMARK                         _______ _______ _______ _____ _____    ______ ____
ROOT
ATOM      3  O   UNL     1      13.128   6.965   5.710  0.00  0.00    -0.275 OA
ATOM      6  N   UNL     1      10.833   7.094   5.979  0.00  0.00    -0.287 N 
ATOM     12  C   UNL     1       8.464   6.925   5.945  0.00  0.00    +0.094 C 
ATOM     13  C   UNL     1      10.528   5.808   5.369  0.00  0.00    +0.164 C 
ATOM     14  C   UNL     1       9.068   5.535   5.728  0.00  0.00    +0.055 C 
ATOM     15  C   UNL     1       9.629   7.735   6.506  0.00  0.00    +0.131 C 
ATOM     23  C   UNL     1      12.135   7.530   6.170  0.00  0.00    +0.226 C 
ENDROOT
BRANCH  12   7
ATOM      4  O   UNL     1       7.784   9.679   5.469  0.00  0.00    -0.253 OA
ATOM      7  N   UNL     1       7.961   7.489   4.718  0.00  0.00    -0.295 N 
ATOM      8  N   UNL     1       7.189   9.125   3.294  0.00  0.00    -0.297 N 
ATOM     24  C   UNL     1       7.656   8.843   4.574  0.00  0.00    +0.300 C 
ATOM     38  H   UNL     1       7.871   6.891   3.902  0.00  0.00    +0.151 HD
ATOM     39  H   UNL     1       7.187   8.372   2.612  0.00  0.00    +0.151 HD
BRANCH   8  16
ATOM     16  C   UNL     1       6.799  10.450   2.868  0.00  0.00    +0.074 C 
ATOM     17  C   UNL     1       5.299  10.679   3.084  0.00  0.00    +0.022 C 
ATOM     18  C   UNL     1       7.193  10.697   1.407  0.00  0.00    +0.022 C 
ATOM     19  C   UNL     1       4.438   9.888   2.100  0.00  0.00    +0.002 C 
ATOM     20  C   UNL     1       6.329   9.906   0.426  0.00  0.00    +0.002 C 
ATOM     22  C   UNL     1       4.842  10.159   0.654  0.00  0.00    +0.000 C 
ENDBRANCH   8  16
ENDBRANCH  12   7
BRANCH  13  21
ATOM      2  O   UNL     1       9.869   6.434   3.162  0.00  0.00    -0.274 OA
ATOM      9  N   UNL     1      11.915   5.368   3.468  0.00  0.00    -0.302 N 
ATOM     21  C   UNL     1      10.717   5.920   3.887  0.00  0.00    +0.234 C 
ATOM     40  H   UNL     1      12.583   5.055   4.168  0.00  0.00    +0.150 HD
BRANCH   9  25
ATOM     25  C   UNL     1      12.327   5.327   2.083  0.00  0.00    +0.163 C 
BRANCH  25  29
ATOM      5  O   UNL     1      14.561   4.995   1.188  0.00  0.00    -0.274 OA
ATOM     11  N   UNL     1      14.320   6.234   3.107  0.00  0.00    -0.328 N 
ATOM     29  C   UNL     1      13.843   5.470   2.063  0.00  0.00    +0.231 C 
ATOM     42  H   UNL     1      15.313   6.419   3.204  0.00  0.00    +0.145 HD
ATOM     43  H   UNL     1      13.712   6.639   3.810  0.00  0.00    +0.145 HD
ENDBRANCH  25  29
BRANCH  25  27
ATOM     27  C   UNL     1      11.901   4.029   1.387  0.00  0.00    +0.069 C 
BRANCH  27  28
ATOM     10  N   UNL     1       9.614   5.018  -1.316  0.00  0.00    -0.360 N 
ATOM     28  C   UNL     1      11.132   4.266   0.119  0.00  0.00    -0.020 A 
ATOM     30  C   UNL     1      11.417   3.712  -1.161  0.00  0.00    +0.003 A 
ATOM     31  C   UNL     1      10.019   5.064  -0.008  0.00  0.00    +0.087 A 
ATOM     32  C   UNL     1      10.450   4.199  -2.042  0.00  0.00    +0.047 A 
ATOM     33  C   UNL     1      12.407   2.841  -1.656  0.00  0.00    +0.010 A 
ATOM     35  C   UNL     1      10.423   3.858  -3.400  0.00  0.00    +0.026 A 
ATOM     36  C   UNL     1      12.394   2.490  -3.011  0.00  0.00    +0.001 A 
ATOM     37  C   UNL     1      11.416   2.992  -3.867  0.00  0.00    +0.002 A 
ATOM     41  H   UNL     1       8.817   5.512  -1.693  0.00  0.00    +0.165 HD
ENDBRANCH  27  28
ENDBRANCH  25  27
ENDBRANCH   9  25
ENDBRANCH  13  21
BRANCH  23  26
ATOM     26  C   UNL     1      12.287   8.788   6.989  0.00  0.00    +0.164 C 
BRANCH  26   1
ATOM      1  S   UNL     1      13.533   9.812   6.194  0.00  0.00    -0.155 S 
ATOM     34  C   UNL     1      12.523  10.487   4.852  0.00  0.00    +0.085 C 
ENDBRANCH  26   1
ENDBRANCH  23  26
TORSDOF 9
ENDMDL
MODEL 10
REMARK VINA RESULT:      -6.3     25.094     29.052
REMARK  Name = 11882030
REMARK  10 active torsions:
REMARK  status: ('A' for Active; 'I' for Inactive)
REMARK    1  A    between atoms: S_1  and  C_26
REMARK    2  A    between atoms: S_1  and  C_34
REMARK    3  A    between atoms: N_7  and  C_12
REMARK    4  A    between atoms: N_8  and  C_16
REMARK    5  A    between atoms: N_9  and  C_25
REMARK    6  A    between atoms: C_13  and  C_21
REMARK    7  A    between atoms: C_23  and  C_26
REMARK    8  A    between atoms: C_25  and  C_27
REMARK    9  A    between atoms: C_25  and  C_29
REMARK   10  A    between atoms: C_27  and  C_28
REMARK                            x       y       z     vdW  Elec       q    Type
REMARK                         _______ _______ _______ _____ _____    ______ ____
ROOT
ATOM      3  O   UNL     1       9.647   4.710  -0.034  0.00  0.00    -0.275 OA
ATOM      6  N   UNL     1      11.889   4.147   0.063  0.00  0.00    -0.287 N 
ATOM     12  C   UNL     1      14.159   3.675   0.581  0.00  0.00    +0.094 C 
ATOM     13  C   UNL     1      11.943   3.953   1.505  0.00  0.00    +0.164 C 
ATOM     14  C   UNL     1      13.278   3.256   1.762  0.00  0.00    +0.055 C 
ATOM     15  C   UNL     1      13.167   3.819  -0.568  0.00  0.00    +0.131 C 
ATOM     23  C   UNL     1      10.706   4.436  -0.599  0.00  0.00    +0.226 C 
ENDROOT
BRANCH  12   7
ATOM      4  O   UNL     1      16.525   4.629  -0.747  0.00  0.00    -0.253 OA
ATOM      7  N   UNL     1      14.857   4.908   0.843  0.00  0.00    -0.295 N 
ATOM      8  N   UNL     1      16.478   6.523   0.594  0.00  0.00    -0.297 N 
ATOM     24  C   UNL     1      16.003   5.294   0.147  0.00  0.00    +0.300 C 
ATOM     38  H   UNL     1      14.475   5.554   1.527  0.00  0.00    +0.151 HD
ATOM     39  H   UNL     1      15.932   7.019   1.292  0.00  0.00    +0.151 HD
BRANCH   8  16
ATOM     16  C   UNL     1      17.654   7.163   0.048  0.00  0.00    +0.074 C 
ATOM     17  C   UNL     1      18.406   7.950   1.128  0.00  0.00    +0.022 C 
ATOM     18  C   UNL     1      17.290   8.061  -1.140  0.00  0.00    +0.022 C 
ATOM     19  C   UNL     1      17.664   9.216   1.553  0.00  0.00    +0.002 C 
ATOM     20  C   UNL     1      16.550   9.328  -0.711  0.00  0.00    +0.002 C 
ATOM     22  C   UNL     1      17.323  10.098   0.355  0.00  0.00    +0.000 C 
ENDBRANCH   8  16
ENDBRANCH  12   7
BRANCH  13  21
ATOM      2  O   UNL     1      12.902   5.909   2.481  0.00  0.00    -0.274 OA
ATOM      9  N   UNL     1      10.585   5.706   2.409  0.00  0.00    -0.302 N 
ATOM     21  C   UNL     1      11.885   5.293   2.174  0.00  0.00    +0.234 C 
ATOM     40  H   UNL     1       9.820   5.157   2.026  0.00  0.00    +0.150 HD
BRANCH   9  25
ATOM     25  C   UNL     1      10.256   6.952   3.063  0.00  0.00    +0.163 C 
BRANCH  25  29
ATOM      5  O   UNL     1      11.068   9.057   2.161  0.00  0.00    -0.274 OA
ATOM     11  N   UNL     1       9.672   7.773   0.866  0.00  0.00    -0.328 N 
ATOM     29  C   UNL     1      10.379   8.051   2.017  0.00  0.00    +0.231 C 
ATOM     42  H   UNL     1       9.680   8.418   0.082  0.00  0.00    +0.145 HD
ATOM     43  H   UNL     1       9.125   6.926   0.752  0.00  0.00    +0.145 HD
ENDBRANCH  25  29
BRANCH  25  27
ATOM     27  C   UNL     1       8.845   6.939   3.665  0.00  0.00    +0.069 C 
BRANCH  27  28
ATOM     10  N   UNL     1       8.609   7.998   7.177  0.00  0.00    -0.360 N 
ATOM     28  C   UNL     1       8.841   7.106   5.157  0.00  0.00    -0.020 A 
ATOM     30  C   UNL     1       9.207   6.125   6.121  0.00  0.00    +0.003 A 
ATOM     31  C   UNL     1       8.478   8.246   5.837  0.00  0.00    +0.087 A 
ATOM     32  C   UNL     1       9.053   6.710   7.380  0.00  0.00    +0.047 A 
ATOM     33  C   UNL     1       9.657   4.792   6.044  0.00  0.00    +0.010 A 
ATOM     35  C   UNL     1       9.327   6.026   8.570  0.00  0.00    +0.026 A 
ATOM     36  C   UNL     1       9.934   4.095   7.225  0.00  0.00    +0.001 A 
ATOM     37  C   UNL     1       9.772   4.706   8.467  0.00  0.00    +0.002 A 
ATOM     41  H   UNL     1       8.409   8.663   7.912  0.00  0.00    +0.165 HD
ENDBRANCH  27  28
ENDBRANCH  25  27
ENDBRANCH   9  25
ENDBRANCH  13  21
BRANCH  23  26
ATOM     26  C   UNL     1      10.781   4.412  -2.105  0.00  0.00    +0.164 C 
BRANCH  26   1
ATOM      1  S   UNL     1       9.297   5.206  -2.739  0.00  0.00    -0.155 S 
ATOM     34  C   UNL     1       9.221   4.403  -4.360  0.00  0.00    +0.085 C 
ENDBRANCH  26   1
ENDBRANCH  23  26
TORSDOF 9
ENDMDL
