MODEL 1
REMARK VINA RESULT:      -6.4      0.000      0.000
REMARK  Name = 86769016
REMARK  4 active torsions:
REMARK  status: ('A' for Active; 'I' for Inactive)
REMARK    1  A    between atoms: N_3  and  C_14
REMARK    2  A    between atoms: N_4  and  C_15
REMARK    3  A    between atoms: C_14  and  C_16
REMARK    4  A    between atoms: C_15  and  C_17
REMARK                            x       y       z     vdW  Elec       q    Type
REMARK                         _______ _______ _______ _____ _____    ______ ____
ROOT
ATOM      1  O   UNL     1      15.409   9.618  20.406  0.00  0.00    -0.252 OA
ATOM      2  N   UNL     1      17.073   8.013  20.820  0.00  0.00    -0.278 N 
ATOM      3  N   UNL     1      19.645   6.914  21.114  0.00  0.00    -0.292 NA
ATOM      4  N   UNL     1      15.324   7.426  19.539  0.00  0.00    -0.278 N 
ATOM      8  C   UNL     1      17.266   6.600  20.567  0.00  0.00    +0.109 C 
ATOM      9  C   UNL     1      18.706   6.329  20.134  0.00  0.00    +0.109 C 
ATOM     10  C   UNL     1      16.208   6.272  19.516  0.00  0.00    +0.133 C 
ATOM     11  C   UNL     1      18.025   8.720  21.652  0.00  0.00    +0.125 C 
ATOM     12  C   UNL     1      19.453   8.374  21.222  0.00  0.00    +0.104 C 
ATOM     13  C   UNL     1      15.875   8.494  20.276  0.00  0.00    +0.306 C 
ENDROOT
BRANCH   3  14
ATOM     14  C   UNL     1      21.025   6.608  20.741  0.00  0.00    +0.158 C 
BRANCH  14  16
ATOM      5  N   UNL     1      21.562   4.181  20.455  0.00  0.00    -0.347 N 
ATOM      6  N   UNL     1      21.805   4.991  22.508  0.00  0.00    -0.239 NA
ATOM     16  C   UNL     1      21.469   5.275  21.270  0.00  0.00    +0.121 A 
ATOM     19  C   UNL     1      21.985   3.133  21.223  0.00  0.00    +0.104 A 
ATOM     20  C   UNL     1      22.128   3.657  22.486  0.00  0.00    +0.130 A 
ATOM     24  H   UNL     1      21.356   4.151  19.465  0.00  0.00    +0.167 HD
ENDBRANCH  14  16
ENDBRANCH   3  14
BRANCH   4  15
ATOM     15  C   UNL     1      14.109   7.477  18.756  0.00  0.00    +0.164 C 
BRANCH  15  17
ATOM      7  N   UNL     1      12.037   8.587  19.366  0.00  0.00    -0.258 NA
ATOM     17  C   UNL     1      12.886   7.566  19.621  0.00  0.00    +0.059 A 
ATOM     18  C   UNL     1      12.687   6.620  20.615  0.00  0.00    +0.025 A 
ATOM     21  C   UNL     1      11.544   6.731  21.398  0.00  0.00    +0.003 A 
ATOM     22  C   UNL     1      10.935   8.660  20.147  0.00  0.00    +0.111 A 
ATOM     23  C   UNL     1      10.646   7.767  21.166  0.00  0.00    +0.020 A 
ENDBRANCH  15  17
ENDBRANCH   4  15
TORSDOF 4
ENDMDL
MODEL 2
REMARK VINA RESULT:      -6.3      2.621      7.957
REMARK  Name = 86769016
REMARK  4 active torsions:
REMARK  status: ('A' for Active; 'I' for Inactive)
REMARK    1  A    between atoms: N_3  and  C_14
REMARK    2  A    between atoms: N_4  and  C_15
REMARK    3  A    between atoms: C_14  and  C_16
REMARK    4  A    between atoms: C_15  and  C_17
REMARK                            x       y       z     vdW  Elec       q    Type
REMARK                         _______ _______ _______ _____ _____    ______ ____
ROOT
ATOM      1  O   UNL     1      14.348   7.912  17.509  0.00  0.00    -0.252 OA
ATOM      2  N   UNL     1      12.959   7.644  19.383  0.00  0.00    -0.278 N 
ATOM      3  N   UNL     1      11.120   8.310  21.404  0.00  0.00    -0.292 NA
ATOM      4  N   UNL     1      15.029   6.775  19.460  0.00  0.00    -0.278 N 
ATOM      8  C   UNL     1      13.004   6.924  20.638  0.00  0.00    +0.109 C 
ATOM      9  C   UNL     1      12.454   7.792  21.770  0.00  0.00    +0.109 C 
ATOM     10  C   UNL     1      14.475   6.538  20.783  0.00  0.00    +0.133 C 
ATOM     11  C   UNL     1      11.736   8.318  18.996  0.00  0.00    +0.125 C 
ATOM     12  C   UNL     1      11.190   9.127  20.176  0.00  0.00    +0.104 C 
ATOM     13  C   UNL     1      14.136   7.493  18.638  0.00  0.00    +0.306 C 
ENDROOT
BRANCH   3  14
ATOM     14  C   UNL     1      10.558   9.093  22.504  0.00  0.00    +0.158 C 
BRANCH  14  16
ATOM      5  N   UNL     1      12.204  10.513  23.744  0.00  0.00    -0.347 N 
ATOM      6  N   UNL     1      11.213  11.474  22.005  0.00  0.00    -0.239 NA
ATOM     16  C   UNL     1      11.308  10.376  22.720  0.00  0.00    +0.121 A 
ATOM     19  C   UNL     1      12.714  11.778  23.676  0.00  0.00    +0.104 A 
ATOM     20  C   UNL     1      12.087  12.353  22.595  0.00  0.00    +0.130 A 
ATOM     24  H   UNL     1      12.448   9.807  24.426  0.00  0.00    +0.167 HD
ENDBRANCH  14  16
ENDBRANCH   3  14
BRANCH   4  15
ATOM     15  C   UNL     1      16.394   6.432  19.128  0.00  0.00    +0.164 C 
BRANCH  15  17
ATOM      7  N   UNL     1      17.160   8.262  20.528  0.00  0.00    -0.258 NA
ATOM     17  C   UNL     1      17.371   6.990  20.120  0.00  0.00    +0.059 A 
ATOM     18  C   UNL     1      18.417   6.196  20.564  0.00  0.00    +0.025 A 
ATOM     21  C   UNL     1      19.304   6.744  21.484  0.00  0.00    +0.003 A 
ATOM     22  C   UNL     1      18.043   8.759  21.425  0.00  0.00    +0.111 A 
ATOM     23  C   UNL     1      19.121   8.048  21.927  0.00  0.00    +0.020 A 
ENDBRANCH  15  17
ENDBRANCH   4  15
TORSDOF 4
ENDMDL
MODEL 3
REMARK VINA RESULT:      -5.9      4.320      8.208
REMARK  Name = 86769016
REMARK  4 active torsions:
REMARK  status: ('A' for Active; 'I' for Inactive)
REMARK    1  A    between atoms: N_3  and  C_14
REMARK    2  A    between atoms: N_4  and  C_15
REMARK    3  A    between atoms: C_14  and  C_16
REMARK    4  A    between atoms: C_15  and  C_17
REMARK                            x       y       z     vdW  Elec       q    Type
REMARK                         _______ _______ _______ _____ _____    ______ ____
ROOT
ATOM      1  O   UNL     1      12.628  10.163  19.544  0.00  0.00    -0.252 OA
ATOM      2  N   UNL     1      11.467  10.682  21.518  0.00  0.00    -0.278 N 
ATOM      3  N   UNL     1      10.858  11.968  23.944  0.00  0.00    -0.292 NA
ATOM      4  N   UNL     1      11.766   8.518  20.997  0.00  0.00    -0.278 N 
ATOM      8  C   UNL     1      10.723   9.960  22.528  0.00  0.00    +0.109 C 
ATOM      9  C   UNL     1      11.048  10.503  23.919  0.00  0.00    +0.109 C 
ATOM     10  C   UNL     1      11.121   8.503  22.300  0.00  0.00    +0.133 C 
ATOM     11  C   UNL     1      11.470  12.130  21.540  0.00  0.00    +0.125 C 
ATOM     12  C   UNL     1      11.740  12.631  22.962  0.00  0.00    +0.104 C 
ATOM     13  C   UNL     1      12.027   9.831  20.555  0.00  0.00    +0.306 C 
ENDROOT
BRANCH   3  14
ATOM     14  C   UNL     1      11.108  12.491  25.286  0.00  0.00    +0.158 C 
BRANCH  14  16
ATOM      5  N   UNL     1      13.333  11.473  25.807  0.00  0.00    -0.347 N 
ATOM      6  N   UNL     1      13.290  13.689  25.675  0.00  0.00    -0.239 NA
ATOM     16  C   UNL     1      12.576  12.589  25.586  0.00  0.00    +0.121 A 
ATOM     19  C   UNL     1      14.612  11.887  26.051  0.00  0.00    +0.104 A 
ATOM     20  C   UNL     1      14.561  13.259  25.965  0.00  0.00    +0.130 A 
ATOM     24  H   UNL     1      13.009  10.515  25.792  0.00  0.00    +0.167 HD
ENDBRANCH  14  16
ENDBRANCH   3  14
BRANCH   4  15
ATOM     15  C   UNL     1      12.205   7.304  20.345  0.00  0.00    +0.164 C 
BRANCH  15  17
ATOM      7  N   UNL     1      14.304   7.295  21.566  0.00  0.00    -0.258 NA
ATOM     17  C   UNL     1      13.698   7.164  20.364  0.00  0.00    +0.059 A 
ATOM     18  C   UNL     1      14.372   6.912  19.179  0.00  0.00    +0.025 A 
ATOM     21  C   UNL     1      15.756   6.787  19.232  0.00  0.00    +0.003 A 
ATOM     22  C   UNL     1      15.651   7.166  21.578  0.00  0.00    +0.111 A 
ATOM     23  C   UNL     1      16.414   6.915  20.449  0.00  0.00    +0.020 A 
ENDBRANCH  15  17
ENDBRANCH   4  15
TORSDOF 4
ENDMDL
MODEL 4
REMARK VINA RESULT:      -5.7     33.401     34.921
REMARK  Name = 86769016
REMARK  4 active torsions:
REMARK  status: ('A' for Active; 'I' for Inactive)
REMARK    1  A    between atoms: N_3  and  C_14
REMARK    2  A    between atoms: N_4  and  C_15
REMARK    3  A    between atoms: C_14  and  C_16
REMARK    4  A    between atoms: C_15  and  C_17
REMARK                            x       y       z     vdW  Elec       q    Type
REMARK                         _______ _______ _______ _____ _____    ______ ____
ROOT
ATOM      1  O   UNL     1     -16.031  -0.141  29.869  0.00  0.00    -0.252 OA
ATOM      2  N   UNL     1     -16.481   1.476  28.226  0.00  0.00    -0.278 N 
ATOM      3  N   UNL     1     -16.802   2.601  25.669  0.00  0.00    -0.292 NA
ATOM      4  N   UNL     1     -15.206   2.065  29.979  0.00  0.00    -0.278 N 
ATOM      8  C   UNL     1     -16.255   2.895  28.050  0.00  0.00    +0.109 C 
ATOM      9  C   UNL     1     -15.831   3.192  26.612  0.00  0.00    +0.109 C 
ATOM     10  C   UNL     1     -15.207   3.230  29.110  0.00  0.00    +0.133 C 
ATOM     11  C   UNL     1     -17.301   0.765  27.267  0.00  0.00    +0.125 C 
ATOM     12  C   UNL     1     -16.882   1.137  25.843  0.00  0.00    +0.104 C 
ATOM     13  C   UNL     1     -15.924   0.990  29.417  0.00  0.00    +0.306 C 
ENDROOT
BRANCH   3  14
ATOM     14  C   UNL     1     -16.438   2.931  24.291  0.00  0.00    +0.158 C 
BRANCH  14  16
ATOM      5  N   UNL     1     -17.403   1.659  22.363  0.00  0.00    -0.347 N 
ATOM      6  N   UNL     1     -18.731   3.186  23.277  0.00  0.00    -0.239 NA
ATOM     16  C   UNL     1     -17.547   2.618  23.327  0.00  0.00    +0.121 A 
ATOM     19  C   UNL     1     -18.569   1.612  21.655  0.00  0.00    +0.104 A 
ATOM     20  C   UNL     1     -19.374   2.563  22.237  0.00  0.00    +0.130 A 
ATOM     24  H   UNL     1     -16.584   1.088  22.204  0.00  0.00    +0.167 HD
ENDBRANCH  14  16
ENDBRANCH   3  14
BRANCH   4  15
ATOM     15  C   UNL     1     -14.418   2.014  31.191  0.00  0.00    +0.164 C 
BRANCH  15  17
ATOM      7  N   UNL     1     -15.855   3.254  32.707  0.00  0.00    -0.258 NA
ATOM     17  C   UNL     1     -14.663   3.205  32.070  0.00  0.00    +0.059 A 
ATOM     18  C   UNL     1     -13.679   4.175  32.189  0.00  0.00    +0.025 A 
ATOM     21  C   UNL     1     -13.937   5.265  33.012  0.00  0.00    +0.003 A 
ATOM     22  C   UNL     1     -16.068   4.329  33.500  0.00  0.00    +0.111 A 
ATOM     23  C   UNL     1     -15.151   5.351  33.683  0.00  0.00    +0.020 A 
ENDBRANCH  15  17
ENDBRANCH   4  15
TORSDOF 4
ENDMDL
MODEL 5
REMARK VINA RESULT:      -5.7      4.145      7.295
REMARK  Name = 86769016
REMARK  4 active torsions:
REMARK  status: ('A' for Active; 'I' for Inactive)
REMARK    1  A    between atoms: N_3  and  C_14
REMARK    2  A    between atoms: N_4  and  C_15
REMARK    3  A    between atoms: C_14  and  C_16
REMARK    4  A    between atoms: C_15  and  C_17
REMARK                            x       y       z     vdW  Elec       q    Type
REMARK                         _______ _______ _______ _____ _____    ______ ____
ROOT
ATOM      1  O   UNL     1      10.894  10.499  24.305  0.00  0.00    -0.252 OA
ATOM      2  N   UNL     1      11.138   9.577  22.158  0.00  0.00    -0.278 N 
ATOM      3  N   UNL     1      11.755   7.690  20.167  0.00  0.00    -0.292 NA
ATOM      4  N   UNL     1      11.825  11.689  22.495  0.00  0.00    -0.278 N 
ATOM      8  C   UNL     1      11.529  10.045  20.845  0.00  0.00    +0.109 C 
ATOM      9  C   UNL     1      12.417   9.011  20.155  0.00  0.00    +0.109 C 
ATOM     10  C   UNL     1      12.204  11.387  21.124  0.00  0.00    +0.133 C 
ATOM     11  C   UNL     1      10.613   8.236  22.305  0.00  0.00    +0.125 C 
ATOM     12  C   UNL     1      11.499   7.242  21.550  0.00  0.00    +0.104 C 
ATOM     13  C   UNL     1      11.238  10.579  23.134  0.00  0.00    +0.306 C 
ENDROOT
BRANCH   3  14
ATOM     14  C   UNL     1      12.570   6.706  19.456  0.00  0.00    +0.158 C 
BRANCH  14  16
ATOM      5  N   UNL     1      14.556   6.285  20.919  0.00  0.00    -0.347 N 
ATOM      6  N   UNL     1      14.942   7.471  19.082  0.00  0.00    -0.239 NA
ATOM     16  C   UNL     1      14.029   6.840  19.786  0.00  0.00    +0.121 A 
ATOM     19  C   UNL     1      15.890   6.578  20.937  0.00  0.00    +0.104 A 
ATOM     20  C   UNL     1      16.105   7.311  19.793  0.00  0.00    +0.130 A 
ATOM     24  H   UNL     1      14.053   5.753  21.616  0.00  0.00    +0.167 HD
ENDBRANCH  14  16
ENDBRANCH   3  14
BRANCH   4  15
ATOM     15  C   UNL     1      12.173  12.943  23.127  0.00  0.00    +0.164 C 
BRANCH  15  17
ATOM      7  N   UNL     1      14.302  12.119  23.955  0.00  0.00    -0.258 NA
ATOM     17  C   UNL     1      13.146  12.754  24.253  0.00  0.00    +0.059 A 
ATOM     18  C   UNL     1      12.824  13.228  25.515  0.00  0.00    +0.025 A 
ATOM     21  C   UNL     1      13.749  13.037  26.536  0.00  0.00    +0.003 A 
ATOM     22  C   UNL     1      15.176  11.953  24.973  0.00  0.00    +0.111 A 
ATOM     23  C   UNL     1      14.949  12.389  26.269  0.00  0.00    +0.020 A 
ENDBRANCH  15  17
ENDBRANCH   4  15
TORSDOF 4
ENDMDL
MODEL 6
REMARK VINA RESULT:      -5.7     26.914     29.118
REMARK  Name = 86769016
REMARK  4 active torsions:
REMARK  status: ('A' for Active; 'I' for Inactive)
REMARK    1  A    between atoms: N_3  and  C_14
REMARK    2  A    between atoms: N_4  and  C_15
REMARK    3  A    between atoms: C_14  and  C_16
REMARK    4  A    between atoms: C_15  and  C_17
REMARK                            x       y       z     vdW  Elec       q    Type
REMARK                         _______ _______ _______ _____ _____    ______ ____
ROOT
ATOM      1  O   UNL     1      -1.148 -10.118  14.820  0.00  0.00    -0.252 OA
ATOM      2  N   UNL     1      -2.452 -10.367  12.882  0.00  0.00    -0.278 N 
ATOM      3  N   UNL     1      -3.499  -9.806  10.333  0.00  0.00    -0.292 NA
ATOM      4  N   UNL     1      -3.437 -10.686  14.875  0.00  0.00    -0.278 N 
ATOM      8  C   UNL     1      -3.790 -10.816  12.558  0.00  0.00    +0.109 C 
ATOM      9  C   UNL     1      -4.410  -9.915  11.491  0.00  0.00    +0.109 C 
ATOM     10  C   UNL     1      -4.512 -10.806  13.904  0.00  0.00    +0.133 C 
ATOM     11  C   UNL     1      -1.520 -10.087  11.810  0.00  0.00    +0.125 C 
ATOM     12  C   UNL     1      -2.199  -9.232  10.736  0.00  0.00    +0.104 C 
ATOM     13  C   UNL     1      -2.209 -10.363  14.262  0.00  0.00    +0.306 C 
ENDROOT
BRANCH   3  14
ATOM     14  C   UNL     1      -4.108  -8.995   9.280  0.00  0.00    +0.158 C 
BRANCH  14  16
ATOM      5  N   UNL     1      -5.646  -9.305   7.331  0.00  0.00    -0.347 N 
ATOM      6  N   UNL     1      -4.596 -11.130   8.034  0.00  0.00    -0.239 NA
ATOM     16  C   UNL     1      -4.764  -9.841   8.227  0.00  0.00    +0.121 A 
ATOM     19  C   UNL     1      -6.065 -10.316   6.513  0.00  0.00    +0.104 A 
ATOM     20  C   UNL     1      -5.404 -11.433   6.967  0.00  0.00    +0.130 A 
ATOM     24  H   UNL     1      -5.935  -8.337   7.279  0.00  0.00    +0.167 HD
ENDBRANCH  14  16
ENDBRANCH   3  14
BRANCH   4  15
ATOM     15  C   UNL     1      -3.680 -10.747  16.300  0.00  0.00    +0.164 C 
BRANCH  15  17
ATOM      7  N   UNL     1      -5.732 -11.819  17.034  0.00  0.00    -0.258 NA
ATOM     17  C   UNL     1      -5.144 -10.673  16.623  0.00  0.00    +0.059 A 
ATOM     18  C   UNL     1      -5.808  -9.464  16.492  0.00  0.00    +0.025 A 
ATOM     21  C   UNL     1      -7.163  -9.429  16.800  0.00  0.00    +0.003 A 
ATOM     22  C   UNL     1      -7.051 -11.746  17.326  0.00  0.00    +0.111 A 
ATOM     23  C   UNL     1      -7.803 -10.587  17.226  0.00  0.00    +0.020 A 
ENDBRANCH  15  17
ENDBRANCH   4  15
TORSDOF 4
ENDMDL
MODEL 7
REMARK VINA RESULT:      -5.6     16.242     19.082
REMARK  Name = 86769016
REMARK  4 active torsions:
REMARK  status: ('A' for Active; 'I' for Inactive)
REMARK    1  A    between atoms: N_3  and  C_14
REMARK    2  A    between atoms: N_4  and  C_15
REMARK    3  A    between atoms: C_14  and  C_16
REMARK    4  A    between atoms: C_15  and  C_17
REMARK                            x       y       z     vdW  Elec       q    Type
REMARK                         _______ _______ _______ _____ _____    ______ ____
ROOT
ATOM      1  O   UNL     1      11.185   6.903   0.552  0.00  0.00    -0.252 OA
ATOM      2  N   UNL     1      10.561   6.477   2.776  0.00  0.00    -0.278 N 
ATOM      3  N   UNL     1      10.422   6.785   5.568  0.00  0.00    -0.292 NA
ATOM      4  N   UNL     1      11.145   4.736   1.482  0.00  0.00    -0.278 N 
ATOM      8  C   UNL     1      10.310   5.313   3.599  0.00  0.00    +0.109 C 
ATOM      9  C   UNL     1      10.900   5.510   4.995  0.00  0.00    +0.109 C 
ATOM     10  C   UNL     1      10.923   4.164   2.800  0.00  0.00    +0.133 C 
ATOM     11  C   UNL     1      10.266   7.794   3.302  0.00  0.00    +0.125 C 
ATOM     12  C   UNL     1      10.823   7.927   4.721  0.00  0.00    +0.104 C 
ATOM     13  C   UNL     1      10.985   6.136   1.484  0.00  0.00    +0.306 C 
ENDROOT
BRANCH   3  14
ATOM     14  C   UNL     1      10.933   6.956   6.927  0.00  0.00    +0.158 C 
BRANCH  14  16
ATOM      5  N   UNL     1      10.669   4.857   8.264  0.00  0.00    -0.347 N 
ATOM      6  N   UNL     1       9.082   6.386   8.538  0.00  0.00    -0.239 NA
ATOM     16  C   UNL     1      10.201   6.094   7.915  0.00  0.00    +0.121 A 
ATOM     19  C   UNL     1       9.793   4.328   9.169  0.00  0.00    +0.104 A 
ATOM     20  C   UNL     1       8.821   5.290   9.322  0.00  0.00    +0.130 A 
ATOM     24  H   UNL     1      11.510   4.414   7.919  0.00  0.00    +0.167 HD
ENDBRANCH  14  16
ENDBRANCH   3  14
BRANCH   4  15
ATOM     15  C   UNL     1      11.622   3.941   0.373  0.00  0.00    +0.164 C 
BRANCH  15  17
ATOM      7  N   UNL     1      13.799   3.571   1.385  0.00  0.00    -0.258 NA
ATOM     17  C   UNL     1      13.120   3.950   0.278  0.00  0.00    +0.059 A 
ATOM     18  C   UNL     1      13.723   4.333  -0.909  0.00  0.00    +0.025 A 
ATOM     21  C   UNL     1      15.112   4.330  -0.964  0.00  0.00    +0.003 A 
ATOM     22  C   UNL     1      15.149   3.578   1.293  0.00  0.00    +0.111 A 
ATOM     23  C   UNL     1      15.846   3.946   0.153  0.00  0.00    +0.020 A 
ENDBRANCH  15  17
ENDBRANCH   4  15
TORSDOF 4
ENDMDL
MODEL 8
REMARK VINA RESULT:      -5.6     26.681     30.102
REMARK  Name = 86769016
REMARK  4 active torsions:
REMARK  status: ('A' for Active; 'I' for Inactive)
REMARK    1  A    between atoms: N_3  and  C_14
REMARK    2  A    between atoms: N_4  and  C_15
REMARK    3  A    between atoms: C_14  and  C_16
REMARK    4  A    between atoms: C_15  and  C_17
REMARK                            x       y       z     vdW  Elec       q    Type
REMARK                         _______ _______ _______ _____ _____    ______ ____
ROOT
ATOM      1  O   UNL     1     -10.510 -11.306  16.046  0.00  0.00    -0.252 OA
ATOM      2  N   UNL     1      -8.213 -10.815  16.042  0.00  0.00    -0.278 N 
ATOM      3  N   UNL     1      -5.438 -11.242  16.200  0.00  0.00    -0.292 NA
ATOM      4  N   UNL     1      -9.591  -9.447  17.171  0.00  0.00    -0.278 N 
ATOM      8  C   UNL     1      -7.361  -9.736  16.496  0.00  0.00    +0.109 C 
ATOM      9  C   UNL     1      -6.087 -10.293  17.128  0.00  0.00    +0.109 C 
ATOM     10  C   UNL     1      -8.256  -8.943  17.447  0.00  0.00    +0.133 C 
ATOM     11  C   UNL     1      -7.641 -11.882  15.246  0.00  0.00    +0.125 C 
ATOM     12  C   UNL     1      -6.338 -12.369  15.883  0.00  0.00    +0.104 C 
ATOM     13  C   UNL     1      -9.559 -10.609  16.374  0.00  0.00    +0.306 C 
ENDROOT
BRANCH   3  14
ATOM     14  C   UNL     1      -4.185 -11.736  16.771  0.00  0.00    +0.158 C 
BRANCH  14  16
ATOM      5  N   UNL     1      -1.780 -11.047  16.713  0.00  0.00    -0.347 N 
ATOM      6  N   UNL     1      -2.929 -10.706  14.844  0.00  0.00    -0.239 NA
ATOM     16  C   UNL     1      -2.985 -11.158  16.077  0.00  0.00    +0.121 A 
ATOM     19  C   UNL     1      -0.900 -10.490  15.830  0.00  0.00    +0.104 A 
ATOM     20  C   UNL     1      -1.632 -10.288  14.683  0.00  0.00    +0.130 A 
ATOM     24  H   UNL     1      -1.576 -11.327  17.664  0.00  0.00    +0.167 HD
ENDBRANCH  14  16
ENDBRANCH   3  14
BRANCH   4  15
ATOM     15  C   UNL     1     -10.768  -8.880  17.791  0.00  0.00    +0.164 C 
BRANCH  15  17
ATOM      7  N   UNL     1     -12.704  -8.281  16.452  0.00  0.00    -0.258 NA
ATOM     17  C   UNL     1     -11.474  -7.917  16.882  0.00  0.00    +0.059 A 
ATOM     18  C   UNL     1     -10.850  -6.729  16.534  0.00  0.00    +0.025 A 
ATOM     21  C   UNL     1     -11.532  -5.860  15.690  0.00  0.00    +0.003 A 
ATOM     22  C   UNL     1     -13.336  -7.408  15.634  0.00  0.00    +0.111 A 
ATOM     23  C   UNL     1     -12.798  -6.198  15.228  0.00  0.00    +0.020 A 
ENDBRANCH  15  17
ENDBRANCH   4  15
TORSDOF 4
ENDMDL
MODEL 9
REMARK VINA RESULT:      -5.5     31.419     33.616
REMARK  Name = 86769016
REMARK  4 active torsions:
REMARK  status: ('A' for Active; 'I' for Inactive)
REMARK    1  A    between atoms: N_3  and  C_14
REMARK    2  A    between atoms: N_4  and  C_15
REMARK    3  A    between atoms: C_14  and  C_16
REMARK    4  A    between atoms: C_15  and  C_17
REMARK                            x       y       z     vdW  Elec       q    Type
REMARK                         _______ _______ _______ _____ _____    ______ ____
ROOT
ATOM      1  O   UNL     1     -18.084   6.585  25.749  0.00  0.00    -0.252 OA
ATOM      2  N   UNL     1     -17.321   4.856  27.145  0.00  0.00    -0.278 N 
ATOM      3  N   UNL     1     -15.983   3.601  29.277  0.00  0.00    -0.292 NA
ATOM      4  N   UNL     1     -17.230   4.547  24.922  0.00  0.00    -0.278 N 
ATOM      8  C   UNL     1     -16.877   3.488  26.987  0.00  0.00    +0.109 C 
ATOM      9  C   UNL     1     -15.673   3.211  27.886  0.00  0.00    +0.109 C 
ATOM     10  C   UNL     1     -16.600   3.366  25.489  0.00  0.00    +0.133 C 
ATOM     11  C   UNL     1     -17.514   5.389  28.478  0.00  0.00    +0.125 C 
ATOM     12  C   UNL     1     -16.312   5.038  29.360  0.00  0.00    +0.104 C 
ATOM     13  C   UNL     1     -17.609   5.470  25.918  0.00  0.00    +0.306 C 
ENDROOT
BRANCH   3  14
ATOM     14  C   UNL     1     -14.859   3.285  30.157  0.00  0.00    +0.158 C 
BRANCH  14  16
ATOM      5  N   UNL     1     -13.383   1.277  29.928  0.00  0.00    -0.347 N 
ATOM      6  N   UNL     1     -15.466   0.878  30.586  0.00  0.00    -0.239 NA
ATOM     16  C   UNL     1     -14.605   1.807  30.236  0.00  0.00    +0.121 A 
ATOM     19  C   UNL     1     -13.469  -0.076  30.094  0.00  0.00    +0.104 A 
ATOM     20  C   UNL     1     -14.764  -0.299  30.500  0.00  0.00    +0.130 A 
ATOM     24  H   UNL     1     -12.564   1.792  29.633  0.00  0.00    +0.167 HD
ENDBRANCH  14  16
ENDBRANCH   3  14
BRANCH   4  15
ATOM     15  C   UNL     1     -17.296   4.770  23.495  0.00  0.00    +0.164 C 
BRANCH  15  17
ATOM      7  N   UNL     1     -15.121   4.458  22.458  0.00  0.00    -0.258 NA
ATOM     17  C   UNL     1     -16.017   5.341  22.956  0.00  0.00    +0.059 A 
ATOM     18  C   UNL     1     -15.818   6.712  22.990  0.00  0.00    +0.025 A 
ATOM     21  C   UNL     1     -14.623   7.209  22.482  0.00  0.00    +0.003 A 
ATOM     22  C   UNL     1     -13.972   4.979  21.972  0.00  0.00    +0.111 A 
ATOM     23  C   UNL     1     -13.677   6.333  21.962  0.00  0.00    +0.020 A 
ENDBRANCH  15  17
ENDBRANCH   4  15
TORSDOF 4
ENDMDL
MODEL 10
REMARK VINA RESULT:      -5.5     27.715     29.742
REMARK  Name = 86769016
REMARK  4 active torsions:
REMARK  status: ('A' for Active; 'I' for Inactive)
REMARK    1  A    between atoms: N_3  and  C_14
REMARK    2  A    between atoms: N_4  and  C_15
REMARK    3  A    between atoms: C_14  and  C_16
REMARK    4  A    between atoms: C_15  and  C_17
REMARK                            x       y       z     vdW  Elec       q    Type
REMARK                         _______ _______ _______ _____ _____    ______ ____
ROOT
ATOM      1  O   UNL     1      -1.938 -11.801  14.842  0.00  0.00    -0.252 OA
ATOM      2  N   UNL     1      -3.950 -10.926  15.678  0.00  0.00    -0.278 N 
ATOM      3  N   UNL     1      -6.107 -10.521  17.437  0.00  0.00    -0.292 NA
ATOM      4  N   UNL     1      -3.866 -11.522  13.514  0.00  0.00    -0.278 N 
ATOM      8  C   UNL     1      -5.229 -10.514  15.138  0.00  0.00    +0.109 C 
ATOM      9  C   UNL     1      -6.365 -10.970  16.054  0.00  0.00    +0.109 C 
ATOM     10  C   UNL     1      -5.248 -11.128  13.739  0.00  0.00    +0.133 C 
ATOM     11  C   UNL     1      -3.653 -10.665  17.071  0.00  0.00    +0.125 C 
ATOM     12  C   UNL     1      -4.839 -11.081  17.946  0.00  0.00    +0.104 C 
ATOM     13  C   UNL     1      -3.102 -11.456  14.696  0.00  0.00    +0.306 C 
ENDROOT
BRANCH   3  14
ATOM     14  C   UNL     1      -7.216 -10.900  18.311  0.00  0.00    +0.158 C 
BRANCH  14  16
ATOM      5  N   UNL     1      -8.429  -8.797  17.702  0.00  0.00    -0.347 N 
ATOM      6  N   UNL     1      -9.694 -10.603  17.960  0.00  0.00    -0.239 NA
ATOM     16  C   UNL     1      -8.468 -10.132  17.995  0.00  0.00    +0.121 A 
ATOM     19  C   UNL     1      -9.711  -8.391  17.464  0.00  0.00    +0.104 A 
ATOM     20  C   UNL     1     -10.474  -9.523  17.630  0.00  0.00    +0.130 A 
ATOM     24  H   UNL     1      -7.602  -8.214  17.666  0.00  0.00    +0.167 HD
ENDBRANCH  14  16
ENDBRANCH   3  14
BRANCH   4  15
ATOM     15  C   UNL     1      -3.419 -12.057  12.247  0.00  0.00    +0.164 C 
BRANCH  15  17
ATOM      7  N   UNL     1      -4.578 -11.434  10.205  0.00  0.00    -0.258 NA
ATOM     17  C   UNL     1      -3.642 -11.092  11.119  0.00  0.00    +0.059 A 
ATOM     18  C   UNL     1      -2.898  -9.924  11.069  0.00  0.00    +0.025 A 
ATOM     21  C   UNL     1      -3.128  -9.051  10.012  0.00  0.00    +0.003 A 
ATOM     22  C   UNL     1      -4.775 -10.559   9.192  0.00  0.00    +0.111 A 
ATOM     23  C   UNL     1      -4.083  -9.367   9.052  0.00  0.00    +0.020 A 
ENDBRANCH  15  17
ENDBRANCH   4  15
TORSDOF 4
ENDMDL
