MODEL 1
REMARK VINA RESULT:      -7.2      0.000      0.000
REMARK  Name = 75537134
REMARK  3 active torsions:
REMARK  status: ('A' for Active; 'I' for Inactive)
REMARK    1  A    between atoms: N_4  and  C_8
REMARK    2  A    between atoms: N_6  and  C_19
REMARK    3  A    between atoms: C_19  and  C_20
REMARK                            x       y       z     vdW  Elec       q    Type
REMARK                         _______ _______ _______ _____ _____    ______ ____
ROOT
ATOM      1  O   UNL     1     -16.826   4.526  21.101  0.00  0.00    -0.252 OA
ATOM      4  N   UNL     1     -14.961   5.089  22.432  0.00  0.00    -0.281 N 
ATOM      5  N   UNL     1     -16.484   3.659  23.257  0.00  0.00    -0.278 N 
ATOM      6  N   UNL     1     -17.076   2.849  25.885  0.00  0.00    -0.295 NA
ATOM      7  C   UNL     1     -15.433   3.687  24.254  0.00  0.00    +0.109 C 
ATOM      9  C   UNL     1     -14.526   4.825  23.793  0.00  0.00    +0.133 C 
ATOM     10  C   UNL     1     -16.029   3.865  25.650  0.00  0.00    +0.109 C 
ATOM     13  C   UNL     1     -16.172   4.432  22.131  0.00  0.00    +0.305 C 
ATOM     14  C   UNL     1     -17.634   2.804  23.463  0.00  0.00    +0.125 C 
ATOM     15  C   UNL     1     -18.160   2.970  24.891  0.00  0.00    +0.104 C 
ENDROOT
BRANCH   4   8
ATOM      8  C   UNL     1     -14.282   6.036  21.581  0.00  0.00    +0.078 C 
ATOM     11  C   UNL     1     -12.771   5.796  21.611  0.00  0.00    +0.022 C 
ATOM     12  C   UNL     1     -14.626   7.472  21.987  0.00  0.00    +0.022 C 
ATOM     16  C   UNL     1     -12.022   6.819  20.760  0.00  0.00    +0.002 C 
ATOM     17  C   UNL     1     -13.876   8.492  21.135  0.00  0.00    +0.002 C 
ATOM     18  C   UNL     1     -12.370   8.250  21.164  0.00  0.00    +0.000 C 
ENDBRANCH   4   8
BRANCH   6  19
ATOM     19  C   UNL     1     -17.609   2.972  27.241  0.00  0.00    +0.119 C 
BRANCH  19  20
ATOM      2  O   UNL     1     -14.571   3.966  30.917  0.00  0.00    -0.485 OA
ATOM      3  O   UNL     1     -13.924   1.167  31.143  0.00  0.00    -0.485 OA
ATOM     20  C   UNL     1     -16.620   2.512  28.278  0.00  0.00    -0.030 A 
ATOM     21  C   UNL     1     -16.043   3.437  29.150  0.00  0.00    +0.054 A 
ATOM     22  C   UNL     1     -16.277   1.163  28.362  0.00  0.00    +0.009 A 
ATOM     23  C   UNL     1     -15.119   3.009  30.103  0.00  0.00    +0.162 A 
ATOM     24  C   UNL     1     -15.363   0.732  29.325  0.00  0.00    +0.050 A 
ATOM     25  C   UNL     1     -14.797   1.653  30.206  0.00  0.00    +0.162 A 
ATOM     26  C   UNL     1     -13.411   3.485  31.601  0.00  0.00    +0.270 C 
ATOM     27  C   UNL     1     -13.679   2.112  32.187  0.00  0.00    +0.270 C 
ENDBRANCH  19  20
ENDBRANCH   6  19
TORSDOF 3
ENDMDL
MODEL 2
REMARK VINA RESULT:      -6.9     31.003     34.226
REMARK  Name = 75537134
REMARK  3 active torsions:
REMARK  status: ('A' for Active; 'I' for Inactive)
REMARK    1  A    between atoms: N_4  and  C_8
REMARK    2  A    between atoms: N_6  and  C_19
REMARK    3  A    between atoms: C_19  and  C_20
REMARK                            x       y       z     vdW  Elec       q    Type
REMARK                         _______ _______ _______ _____ _____    ______ ____
ROOT
ATOM      1  O   UNL     1      20.585   6.579  23.794  0.00  0.00    -0.252 OA
ATOM      4  N   UNL     1      21.253   5.283  21.938  0.00  0.00    -0.281 N 
ATOM      5  N   UNL     1      19.500   6.669  21.713  0.00  0.00    -0.278 N 
ATOM      6  N   UNL     1      17.391   6.749  19.853  0.00  0.00    -0.295 NA
ATOM      7  C   UNL     1      19.715   6.134  20.384  0.00  0.00    +0.109 C 
ATOM      9  C   UNL     1      20.749   5.032  20.599  0.00  0.00    +0.133 C 
ATOM     10  C   UNL     1      18.392   5.665  19.779  0.00  0.00    +0.109 C 
ATOM     13  C   UNL     1      20.463   6.226  22.628  0.00  0.00    +0.305 C 
ATOM     14  C   UNL     1      18.440   7.632  21.926  0.00  0.00    +0.125 C 
ATOM     15  C   UNL     1      17.152   7.150  21.254  0.00  0.00    +0.104 C 
ENDROOT
BRANCH   4   8
ATOM      8  C   UNL     1      22.342   4.522  22.502  0.00  0.00    +0.078 C 
ATOM     11  C   UNL     1      23.670   5.253  22.297  0.00  0.00    +0.022 C 
ATOM     12  C   UNL     1      22.384   3.113  21.904  0.00  0.00    +0.022 C 
ATOM     16  C   UNL     1      24.847   4.445  22.838  0.00  0.00    +0.002 C 
ATOM     17  C   UNL     1      23.561   2.307  22.446  0.00  0.00    +0.002 C 
ATOM     18  C   UNL     1      24.884   3.039  22.243  0.00  0.00    +0.000 C 
ENDBRANCH   4   8
BRANCH   6  19
ATOM     19  C   UNL     1      16.140   6.330  19.222  0.00  0.00    +0.119 C 
BRANCH  19  20
ATOM      2  O   UNL     1      11.947   7.087  21.583  0.00  0.00    -0.485 OA
ATOM      3  O   UNL     1      11.881   9.797  20.603  0.00  0.00    -0.485 OA
ATOM     20  C   UNL     1      14.994   7.234  19.592  0.00  0.00    -0.030 A 
ATOM     21  C   UNL     1      13.984   6.769  20.435  0.00  0.00    +0.054 A 
ATOM     22  C   UNL     1      14.942   8.533  19.086  0.00  0.00    +0.009 A 
ATOM     23  C   UNL     1      12.919   7.606  20.768  0.00  0.00    +0.162 A 
ATOM     24  C   UNL     1      13.885   9.376  19.431  0.00  0.00    +0.050 A 
ATOM     25  C   UNL     1      12.881   8.917  20.285  0.00  0.00    +0.162 A 
ATOM     26  C   UNL     1      10.762   7.887  21.576  0.00  0.00    +0.270 C 
ATOM     27  C   UNL     1      11.118   9.354  21.728  0.00  0.00    +0.270 C 
ENDBRANCH  19  20
ENDBRANCH   6  19
TORSDOF 3
ENDMDL
MODEL 3
REMARK VINA RESULT:      -6.8     17.260     19.266
REMARK  Name = 75537134
REMARK  3 active torsions:
REMARK  status: ('A' for Active; 'I' for Inactive)
REMARK    1  A    between atoms: N_4  and  C_8
REMARK    2  A    between atoms: N_6  and  C_19
REMARK    3  A    between atoms: C_19  and  C_20
REMARK                            x       y       z     vdW  Elec       q    Type
REMARK                         _______ _______ _______ _____ _____    ______ ____
ROOT
ATOM      1  O   UNL     1      -4.825 -12.008  18.346  0.00  0.00    -0.252 OA
ATOM      4  N   UNL     1      -4.991 -10.684  16.399  0.00  0.00    -0.281 N 
ATOM      5  N   UNL     1      -6.621 -10.550  17.938  0.00  0.00    -0.278 N 
ATOM      6  N   UNL     1      -9.276  -9.633  17.792  0.00  0.00    -0.295 NA
ATOM      7  C   UNL     1      -6.962  -9.540  16.957  0.00  0.00    +0.109 C 
ATOM      9  C   UNL     1      -5.984  -9.799  15.814  0.00  0.00    +0.133 C 
ATOM     10  C   UNL     1      -8.439  -9.647  16.575  0.00  0.00    +0.109 C 
ATOM     13  C   UNL     1      -5.404 -11.182  17.652  0.00  0.00    +0.305 C 
ATOM     14  C   UNL     1      -7.466 -10.722  19.102  0.00  0.00    +0.125 C 
ATOM     15  C   UNL     1      -8.936 -10.764  18.679  0.00  0.00    +0.104 C 
ENDROOT
BRANCH   4   8
ATOM      8  C   UNL     1      -3.810 -11.094  15.677  0.00  0.00    +0.078 C 
ATOM     11  C   UNL     1      -2.562 -10.440  16.276  0.00  0.00    +0.022 C 
ATOM     12  C   UNL     1      -3.948 -10.771  14.187  0.00  0.00    +0.022 C 
ATOM     16  C   UNL     1      -1.303 -10.814  15.498  0.00  0.00    +0.002 C 
ATOM     17  C   UNL     1      -2.688 -11.146  13.412  0.00  0.00    +0.002 C 
ATOM     18  C   UNL     1      -1.445 -10.495  14.011  0.00  0.00    +0.000 C 
ENDBRANCH   4   8
BRANCH   6  19
ATOM     19  C   UNL     1     -10.694  -9.673  17.435  0.00  0.00    +0.119 C 
BRANCH  19  20
ATOM      2  O   UNL     1     -12.744  -7.889  13.392  0.00  0.00    -0.485 OA
ATOM      3  O   UNL     1     -12.193  -5.207  14.292  0.00  0.00    -0.485 OA
ATOM     20  C   UNL     1     -11.091  -8.499  16.581  0.00  0.00    -0.030 A 
ATOM     21  C   UNL     1     -11.755  -8.709  15.371  0.00  0.00    +0.054 A 
ATOM     22  C   UNL     1     -10.790  -7.203  16.998  0.00  0.00    +0.009 A 
ATOM     23  C   UNL     1     -12.113  -7.619  14.578  0.00  0.00    +0.162 A 
ATOM     24  C   UNL     1     -11.160  -6.111  16.211  0.00  0.00    +0.050 A 
ATOM     25  C   UNL     1     -11.836  -6.319  15.009  0.00  0.00    +0.162 A 
ATOM     26  C   UNL     1     -12.751  -6.756  12.521  0.00  0.00    +0.270 C 
ATOM     27  C   UNL     1     -13.160  -5.510  13.283  0.00  0.00    +0.270 C 
ENDBRANCH  19  20
ENDBRANCH   6  19
TORSDOF 3
ENDMDL
MODEL 4
REMARK VINA RESULT:      -6.8     32.538     35.672
REMARK  Name = 75537134
REMARK  3 active torsions:
REMARK  status: ('A' for Active; 'I' for Inactive)
REMARK    1  A    between atoms: N_4  and  C_8
REMARK    2  A    between atoms: N_6  and  C_19
REMARK    3  A    between atoms: C_19  and  C_20
REMARK                            x       y       z     vdW  Elec       q    Type
REMARK                         _______ _______ _______ _____ _____    ______ ____
ROOT
ATOM      1  O   UNL     1      24.200   6.627  20.997  0.00  0.00    -0.252 OA
ATOM      4  N   UNL     1      22.732   4.818  21.368  0.00  0.00    -0.281 N 
ATOM      5  N   UNL     1      21.868   6.808  20.789  0.00  0.00    -0.278 N 
ATOM      6  N   UNL     1      19.284   7.887  21.056  0.00  0.00    -0.295 NA
ATOM      7  C   UNL     1      20.731   5.910  20.814  0.00  0.00    +0.109 C 
ATOM      9  C   UNL     1      21.293   4.630  21.427  0.00  0.00    +0.133 C 
ATOM     10  C   UNL     1      19.573   6.540  21.589  0.00  0.00    +0.109 C 
ATOM     13  C   UNL     1      23.076   6.146  21.041  0.00  0.00    +0.305 C 
ATOM     14  C   UNL     1      21.667   8.195  20.423  0.00  0.00    +0.125 C 
ATOM     15  C   UNL     1      20.464   8.766  21.176  0.00  0.00    +0.104 C 
ENDROOT
BRANCH   4   8
ATOM      8  C   UNL     1      23.657   3.779  21.755  0.00  0.00    +0.078 C 
ATOM     11  C   UNL     1      24.234   3.087  20.518  0.00  0.00    +0.022 C 
ATOM     12  C   UNL     1      22.980   2.773  22.691  0.00  0.00    +0.022 C 
ATOM     16  C   UNL     1      25.176   1.948  20.899  0.00  0.00    +0.002 C 
ATOM     17  C   UNL     1      23.923   1.635  23.070  0.00  0.00    +0.002 C 
ATOM     18  C   UNL     1      24.500   0.948  21.835  0.00  0.00    +0.000 C 
ENDBRANCH   4   8
BRANCH   6  19
ATOM     19  C   UNL     1      18.138   8.473  21.750  0.00  0.00    +0.119 C 
BRANCH  19  20
ATOM      2  O   UNL     1      13.284   8.140  22.000  0.00  0.00    -0.485 OA
ATOM      3  O   UNL     1      13.252   6.683  19.514  0.00  0.00    -0.485 OA
ATOM     20  C   UNL     1      16.830   7.997  21.176  0.00  0.00    -0.030 A 
ATOM     21  C   UNL     1      15.633   8.290  21.831  0.00  0.00    +0.054 A 
ATOM     22  C   UNL     1      16.818   7.258  19.993  0.00  0.00    +0.009 A 
ATOM     23  C   UNL     1      14.424   7.839  21.301  0.00  0.00    +0.162 A 
ATOM     24  C   UNL     1      15.607   6.819  19.455  0.00  0.00    +0.050 A 
ATOM     25  C   UNL     1      14.409   7.124  20.102  0.00  0.00    +0.162 A 
ATOM     26  C   UNL     1      12.170   7.354  21.569  0.00  0.00    +0.270 C 
ATOM     27  C   UNL     1      12.098   7.331  20.055  0.00  0.00    +0.270 C 
ENDBRANCH  19  20
ENDBRANCH   6  19
TORSDOF 3
ENDMDL
MODEL 5
REMARK VINA RESULT:      -6.7     20.483     21.740
REMARK  Name = 75537134
REMARK  3 active torsions:
REMARK  status: ('A' for Active; 'I' for Inactive)
REMARK    1  A    between atoms: N_4  and  C_8
REMARK    2  A    between atoms: N_6  and  C_19
REMARK    3  A    between atoms: C_19  and  C_20
REMARK                            x       y       z     vdW  Elec       q    Type
REMARK                         _______ _______ _______ _____ _____    ______ ____
ROOT
ATOM      1  O   UNL     1      -1.296 -10.154  11.765  0.00  0.00    -0.252 OA
ATOM      4  N   UNL     1      -3.612 -10.526  11.518  0.00  0.00    -0.281 N 
ATOM      5  N   UNL     1      -2.752 -10.417  13.589  0.00  0.00    -0.278 N 
ATOM      6  N   UNL     1      -3.708 -11.321  16.075  0.00  0.00    -0.295 NA
ATOM      7  C   UNL     1      -4.181 -10.524  13.794  0.00  0.00    +0.109 C 
ATOM      9  C   UNL     1      -4.726 -10.828  12.401  0.00  0.00    +0.133 C 
ATOM     10  C   UNL     1      -4.489 -11.587  14.850  0.00  0.00    +0.109 C 
ATOM     13  C   UNL     1      -2.412 -10.338  12.233  0.00  0.00    +0.305 C 
ATOM     14  C   UNL     1      -1.877 -10.302  14.738  0.00  0.00    +0.125 C 
ATOM     15  C   UNL     1      -2.259 -11.344  15.792  0.00  0.00    +0.104 C 
ENDROOT
BRANCH   4   8
ATOM      8  C   UNL     1      -3.739 -10.576  10.081  0.00  0.00    +0.078 C 
ATOM     11  C   UNL     1      -4.725  -9.513   9.593  0.00  0.00    +0.022 C 
ATOM     12  C   UNL     1      -4.157 -11.976   9.623  0.00  0.00    +0.022 C 
ATOM     16  C   UNL     1      -4.918  -9.578   8.080  0.00  0.00    +0.002 C 
ATOM     17  C   UNL     1      -4.350 -12.038   8.110  0.00  0.00    +0.002 C 
ATOM     18  C   UNL     1      -5.332 -10.975   7.625  0.00  0.00    +0.000 C 
ENDBRANCH   4   8
BRANCH   6  19
ATOM     19  C   UNL     1      -4.041 -12.297  17.113  0.00  0.00    +0.119 C 
BRANCH  19  20
ATOM      2  O   UNL     1      -8.696 -13.192  18.239  0.00  0.00    -0.485 OA
ATOM      3  O   UNL     1      -8.736 -10.864  19.938  0.00  0.00    -0.485 OA
ATOM     20  C   UNL     1      -5.302 -11.926  17.848  0.00  0.00    -0.030 A 
ATOM     21  C   UNL     1      -6.438 -12.728  17.732  0.00  0.00    +0.054 A 
ATOM     22  C   UNL     1      -5.333 -10.779  18.640  0.00  0.00    +0.009 A 
ATOM     23  C   UNL     1      -7.607 -12.377  18.408  0.00  0.00    +0.162 A 
ATOM     24  C   UNL     1      -6.497 -10.434  19.327  0.00  0.00    +0.050 A 
ATOM     25  C   UNL     1      -7.630 -11.243  19.223  0.00  0.00    +0.162 A 
ATOM     26  C   UNL     1      -9.904 -12.567  18.680  0.00  0.00    +0.270 C 
ATOM     27  C   UNL     1      -9.695 -11.920  20.035  0.00  0.00    +0.270 C 
ENDBRANCH  19  20
ENDBRANCH   6  19
TORSDOF 3
ENDMDL
MODEL 6
REMARK VINA RESULT:      -6.7     20.338     23.030
REMARK  Name = 75537134
REMARK  3 active torsions:
REMARK  status: ('A' for Active; 'I' for Inactive)
REMARK    1  A    between atoms: N_4  and  C_8
REMARK    2  A    between atoms: N_6  and  C_19
REMARK    3  A    between atoms: C_19  and  C_20
REMARK                            x       y       z     vdW  Elec       q    Type
REMARK                         _______ _______ _______ _____ _____    ______ ____
ROOT
ATOM      1  O   UNL     1      -4.972 -10.509  18.380  0.00  0.00    -0.252 OA
ATOM      4  N   UNL     1      -6.572 -10.159  16.682  0.00  0.00    -0.281 N 
ATOM      5  N   UNL     1      -4.532 -10.903  16.107  0.00  0.00    -0.278 N 
ATOM      6  N   UNL     1      -3.143 -10.888  13.661  0.00  0.00    -0.295 NA
ATOM      7  C   UNL     1      -5.287 -10.919  14.871  0.00  0.00    +0.109 C 
ATOM      9  C   UNL     1      -6.585 -10.200  15.229  0.00  0.00    +0.133 C 
ATOM     10  C   UNL     1      -4.481 -10.267  13.747  0.00  0.00    +0.109 C 
ATOM     13  C   UNL     1      -5.315 -10.526  17.205  0.00  0.00    +0.305 C 
ATOM     14  C   UNL     1      -3.155 -11.353  16.102  0.00  0.00    +0.125 C 
ATOM     15  C   UNL     1      -2.403 -10.724  14.928  0.00  0.00    +0.104 C 
ENDROOT
BRANCH   4   8
ATOM      8  C   UNL     1      -7.687  -9.651  17.444  0.00  0.00    +0.078 C 
ATOM     11  C   UNL     1      -8.489 -10.803  18.053  0.00  0.00    +0.022 C 
ATOM     12  C   UNL     1      -8.572  -8.753  16.575  0.00  0.00    +0.022 C 
ATOM     16  C   UNL     1      -9.707 -10.295  18.821  0.00  0.00    +0.002 C 
ATOM     17  C   UNL     1      -9.788  -8.248  17.346  0.00  0.00    +0.002 C 
ATOM     18  C   UNL     1     -10.586  -9.397  17.954  0.00  0.00    +0.000 C 
ENDBRANCH   4   8
BRANCH   6  19
ATOM     19  C   UNL     1      -2.386 -10.314  12.549  0.00  0.00    +0.119 C 
BRANCH  19  20
ATOM      2  O   UNL     1      -4.271 -13.237   9.138  0.00  0.00    -0.485 OA
ATOM      3  O   UNL     1      -5.085 -10.933   7.609  0.00  0.00    -0.485 OA
ATOM     20  C   UNL     1      -3.094 -10.499  11.233  0.00  0.00    -0.030 A 
ATOM     21  C   UNL     1      -3.384 -11.784  10.772  0.00  0.00    +0.054 A 
ATOM     22  C   UNL     1      -3.453  -9.385  10.474  0.00  0.00    +0.009 A 
ATOM     23  C   UNL     1      -4.032 -11.951   9.548  0.00  0.00    +0.162 A 
ATOM     24  C   UNL     1      -4.114  -9.551   9.256  0.00  0.00    +0.050 A 
ATOM     25  C   UNL     1      -4.417 -10.835   8.801  0.00  0.00    +0.162 A 
ATOM     26  C   UNL     1      -4.612 -13.300   7.751  0.00  0.00    +0.270 C 
ATOM     27  C   UNL     1      -5.640 -12.237   7.414  0.00  0.00    +0.270 C 
ENDBRANCH  19  20
ENDBRANCH   6  19
TORSDOF 3
ENDMDL
MODEL 7
REMARK VINA RESULT:      -6.6     32.345     35.312
REMARK  Name = 75537134
REMARK  3 active torsions:
REMARK  status: ('A' for Active; 'I' for Inactive)
REMARK    1  A    between atoms: N_4  and  C_8
REMARK    2  A    between atoms: N_6  and  C_19
REMARK    3  A    between atoms: C_19  and  C_20
REMARK                            x       y       z     vdW  Elec       q    Type
REMARK                         _______ _______ _______ _____ _____    ______ ____
ROOT
ATOM      1  O   UNL     1      16.547  10.047  21.391  0.00  0.00    -0.252 OA
ATOM      4  N   UNL     1      15.991   7.906  20.571  0.00  0.00    -0.281 N 
ATOM      5  N   UNL     1      18.020   8.220  21.480  0.00  0.00    -0.278 N 
ATOM      6  N   UNL     1      20.422   6.772  21.268  0.00  0.00    -0.295 NA
ATOM      7  C   UNL     1      17.962   6.799  21.202  0.00  0.00    +0.109 C 
ATOM      9  C   UNL     1      16.683   6.643  20.382  0.00  0.00    +0.133 C 
ATOM     10  C   UNL     1      19.238   6.343  20.496  0.00  0.00    +0.109 C 
ATOM     13  C   UNL     1      16.818   8.872  21.179  0.00  0.00    +0.305 C 
ATOM     14  C   UNL     1      19.205   8.772  22.102  0.00  0.00    +0.125 C 
ATOM     15  C   UNL     1      20.459   8.242  21.403  0.00  0.00    +0.104 C 
ENDROOT
BRANCH   4   8
ATOM      8  C   UNL     1      14.667   8.139  20.044  0.00  0.00    +0.078 C 
ATOM     11  C   UNL     1      13.856   6.842  20.038  0.00  0.00    +0.022 C 
ATOM     12  C   UNL     1      14.743   8.756  18.645  0.00  0.00    +0.022 C 
ATOM     16  C   UNL     1      12.468   7.049  19.436  0.00  0.00    +0.002 C 
ATOM     17  C   UNL     1      13.354   8.962  18.046  0.00  0.00    +0.002 C 
ATOM     18  C   UNL     1      12.546   7.668  18.043  0.00  0.00    +0.000 C 
ENDBRANCH   4   8
BRANCH   6  19
ATOM     19  C   UNL     1      21.647   6.287  20.632  0.00  0.00    +0.119 C 
BRANCH  19  20
ATOM      2  O   UNL     1      24.237   2.161  20.598  0.00  0.00    -0.485 OA
ATOM      3  O   UNL     1      23.823   1.874  23.435  0.00  0.00    -0.485 OA
ATOM     20  C   UNL     1      22.225   5.102  21.358  0.00  0.00    -0.030 A 
ATOM     21  C   UNL     1      22.988   4.162  20.663  0.00  0.00    +0.054 A 
ATOM     22  C   UNL     1      21.993   4.942  22.724  0.00  0.00    +0.009 A 
ATOM     23  C   UNL     1      23.514   3.060  21.338  0.00  0.00    +0.162 A 
ATOM     24  C   UNL     1      22.531   3.848  23.403  0.00  0.00    +0.050 A 
ATOM     25  C   UNL     1      23.305   2.915  22.711  0.00  0.00    +0.162 A 
ATOM     26  C   UNL     1      24.426   0.927  21.294  0.00  0.00    +0.270 C 
ATOM     27  C   UNL     1      24.858   1.192  22.723  0.00  0.00    +0.270 C 
ENDBRANCH  19  20
ENDBRANCH   6  19
TORSDOF 3
ENDMDL
MODEL 8
REMARK VINA RESULT:      -6.6     18.535     20.323
REMARK  Name = 75537134
REMARK  3 active torsions:
REMARK  status: ('A' for Active; 'I' for Inactive)
REMARK    1  A    between atoms: N_4  and  C_8
REMARK    2  A    between atoms: N_6  and  C_19
REMARK    3  A    between atoms: C_19  and  C_20
REMARK                            x       y       z     vdW  Elec       q    Type
REMARK                         _______ _______ _______ _____ _____    ______ ____
ROOT
ATOM      1  O   UNL     1     -10.554 -10.149  19.538  0.00  0.00    -0.252 OA
ATOM      4  N   UNL     1      -9.931  -9.198  17.471  0.00  0.00    -0.281 N 
ATOM      5  N   UNL     1      -8.599 -10.757  18.387  0.00  0.00    -0.278 N 
ATOM      6  N   UNL     1      -5.894 -11.405  17.966  0.00  0.00    -0.295 NA
ATOM      7  C   UNL     1      -8.005 -10.483  17.094  0.00  0.00    +0.109 C 
ATOM      9  C   UNL     1      -8.780  -9.269  16.588  0.00  0.00    +0.133 C 
ATOM     10  C   UNL     1      -6.497 -10.270  17.237  0.00  0.00    +0.109 C 
ATOM     13  C   UNL     1      -9.793 -10.051  18.585  0.00  0.00    +0.305 C 
ATOM     14  C   UNL     1      -7.995 -11.751  19.249  0.00  0.00    +0.125 C 
ATOM     15  C   UNL     1      -6.481 -11.536  19.314  0.00  0.00    +0.104 C 
ENDROOT
BRANCH   4   8
ATOM      8  C   UNL     1     -10.993  -8.241  17.269  0.00  0.00    +0.078 C 
ATOM     11  C   UNL     1     -12.203  -8.913  16.615  0.00  0.00    +0.022 C 
ATOM     12  C   UNL     1     -10.500  -7.053  16.439  0.00  0.00    +0.022 C 
ATOM     16  C   UNL     1     -13.322  -7.911  16.342  0.00  0.00    +0.002 C 
ATOM     17  C   UNL     1     -11.620  -6.054  16.166  0.00  0.00    +0.002 C 
ATOM     18  C   UNL     1     -12.827  -6.725  15.517  0.00  0.00    +0.000 C 
ENDBRANCH   4   8
BRANCH   6  19
ATOM     19  C   UNL     1      -4.444 -11.240  18.053  0.00  0.00    +0.119 C 
BRANCH  19  20
ATOM      2  O   UNL     1      -3.999 -13.700  13.872  0.00  0.00    -0.485 OA
ATOM      3  O   UNL     1      -1.907 -11.904  13.035  0.00  0.00    -0.485 OA
ATOM     20  C   UNL     1      -3.774 -11.438  16.720  0.00  0.00    -0.030 A 
ATOM     21  C   UNL     1      -4.190 -12.471  15.878  0.00  0.00    +0.054 A 
ATOM     22  C   UNL     1      -2.736 -10.593  16.331  0.00  0.00    +0.009 A 
ATOM     23  C   UNL     1      -3.561 -12.657  14.647  0.00  0.00    +0.162 A 
ATOM     24  C   UNL     1      -2.115 -10.770  15.093  0.00  0.00    +0.050 A 
ATOM     25  C   UNL     1      -2.539 -11.793  14.245  0.00  0.00    +0.162 A 
ATOM     26  C   UNL     1      -3.079 -14.007  12.822  0.00  0.00    +0.270 C 
ATOM     27  C   UNL     1      -2.633 -12.736  12.126  0.00  0.00    +0.270 C 
ENDBRANCH  19  20
ENDBRANCH   6  19
TORSDOF 3
ENDMDL
MODEL 9
REMARK VINA RESULT:      -6.3     18.852     21.144
REMARK  Name = 75537134
REMARK  3 active torsions:
REMARK  status: ('A' for Active; 'I' for Inactive)
REMARK    1  A    between atoms: N_4  and  C_8
REMARK    2  A    between atoms: N_6  and  C_19
REMARK    3  A    between atoms: C_19  and  C_20
REMARK                            x       y       z     vdW  Elec       q    Type
REMARK                         _______ _______ _______ _____ _____    ______ ____
ROOT
ATOM      1  O   UNL     1      -9.400 -13.905  19.463  0.00  0.00    -0.252 OA
ATOM      4  N   UNL     1      -9.891 -11.638  19.032  0.00  0.00    -0.281 N 
ATOM      5  N   UNL     1      -8.009 -12.516  18.178  0.00  0.00    -0.278 N 
ATOM      6  N   UNL     1      -5.644 -11.330  17.221  0.00  0.00    -0.295 NA
ATOM      7  C   UNL     1      -8.067 -11.176  17.630  0.00  0.00    +0.109 C 
ATOM      9  C   UNL     1      -9.215 -10.521  18.394  0.00  0.00    +0.133 C 
ATOM     10  C   UNL     1      -6.714 -10.480  17.782  0.00  0.00    +0.109 C 
ATOM     13  C   UNL     1      -9.135 -12.825  18.952  0.00  0.00    +0.305 C 
ATOM     14  C   UNL     1      -6.912 -13.386  17.808  0.00  0.00    +0.125 C 
ATOM     15  C   UNL     1      -5.586 -12.631  17.917  0.00  0.00    +0.104 C 
ENDROOT
BRANCH   4   8
ATOM      8  C   UNL     1     -11.116 -11.467  19.776  0.00  0.00    +0.078 C 
ATOM     11  C   UNL     1     -12.291 -12.103  19.029  0.00  0.00    +0.022 C 
ATOM     12  C   UNL     1     -11.374  -9.985  20.061  0.00  0.00    +0.022 C 
ATOM     16  C   UNL     1     -13.609 -11.891  19.770  0.00  0.00    +0.002 C 
ATOM     17  C   UNL     1     -12.692  -9.776  20.801  0.00  0.00    +0.002 C 
ATOM     18  C   UNL     1     -13.862 -10.413  20.056  0.00  0.00    +0.000 C 
ENDBRANCH   4   8
BRANCH   6  19
ATOM     19  C   UNL     1      -4.354 -10.647  17.307  0.00  0.00    +0.119 C 
BRANCH  19  20
ATOM      2  O   UNL     1      -4.529 -10.665  12.438  0.00  0.00    -0.485 OA
ATOM      3  O   UNL     1      -1.659 -10.423  12.331  0.00  0.00    -0.485 OA
ATOM     20  C   UNL     1      -3.654 -10.599  15.975  0.00  0.00    -0.030 A 
ATOM     21  C   UNL     1      -4.398 -10.638  14.795  0.00  0.00    +0.054 A 
ATOM     22  C   UNL     1      -2.263 -10.521  15.923  0.00  0.00    +0.009 A 
ATOM     23  C   UNL     1      -3.746 -10.603  13.562  0.00  0.00    +0.162 A 
ATOM     24  C   UNL     1      -1.610 -10.471  14.690  0.00  0.00    +0.050 A 
ATOM     25  C   UNL     1      -2.354 -10.496  13.510  0.00  0.00    +0.162 A 
ATOM     26  C   UNL     1      -3.762 -10.968  11.270  0.00  0.00    +0.270 C 
ATOM     27  C   UNL     1      -2.511 -10.111  11.227  0.00  0.00    +0.270 C 
ENDBRANCH  19  20
ENDBRANCH   6  19
TORSDOF 3
ENDMDL
MODEL 10
REMARK VINA RESULT:      -6.2     31.723     35.122
REMARK  Name = 75537134
REMARK  3 active torsions:
REMARK  status: ('A' for Active; 'I' for Inactive)
REMARK    1  A    between atoms: N_4  and  C_8
REMARK    2  A    between atoms: N_6  and  C_19
REMARK    3  A    between atoms: C_19  and  C_20
REMARK                            x       y       z     vdW  Elec       q    Type
REMARK                         _______ _______ _______ _____ _____    ______ ____
ROOT
ATOM      1  O   UNL     1      22.612   7.410  22.405  0.00  0.00    -0.252 OA
ATOM      4  N   UNL     1      21.698   5.438  21.486  0.00  0.00    -0.281 N 
ATOM      5  N   UNL     1      20.485   7.327  21.412  0.00  0.00    -0.278 N 
ATOM      6  N   UNL     1      17.731   7.783  21.064  0.00  0.00    -0.295 NA
ATOM      7  C   UNL     1      19.702   6.362  20.667  0.00  0.00    +0.109 C 
ATOM      9  C   UNL     1      20.420   5.039  20.921  0.00  0.00    +0.133 C 
ATOM     10  C   UNL     1      18.242   6.398  21.121  0.00  0.00    +0.109 C 
ATOM     13  C   UNL     1      21.713   6.804  21.836  0.00  0.00    +0.305 C 
ATOM     14  C   UNL     1      19.996   8.684  21.546  0.00  0.00    +0.125 C 
ATOM     15  C   UNL     1      18.518   8.671  21.941  0.00  0.00    +0.104 C 
ENDROOT
BRANCH   4   8
ATOM      8  C   UNL     1      22.740   4.482  21.775  0.00  0.00    +0.078 C 
ATOM     11  C   UNL     1      22.756   3.372  20.721  0.00  0.00    +0.022 C 
ATOM     12  C   UNL     1      22.573   3.909  23.185  0.00  0.00    +0.022 C 
ATOM     16  C   UNL     1      23.815   2.318  21.032  0.00  0.00    +0.002 C 
ATOM     17  C   UNL     1      23.633   2.855  23.493  0.00  0.00    +0.002 C 
ATOM     18  C   UNL     1      23.649   1.751  22.440  0.00  0.00    +0.000 C 
ENDBRANCH   4   8
BRANCH   6  19
ATOM     19  C   UNL     1      16.317   7.818  21.437  0.00  0.00    +0.119 C 
BRANCH  19  20
ATOM      2  O   UNL     1      14.704  10.315  17.577  0.00  0.00    -0.485 OA
ATOM      3  O   UNL     1      12.946   8.135  16.898  0.00  0.00    -0.485 OA
ATOM     20  C   UNL     1      15.421   7.925  20.232  0.00  0.00    -0.030 A 
ATOM     21  C   UNL     1      15.467   9.065  19.427  0.00  0.00    +0.054 A 
ATOM     22  C   UNL     1      14.542   6.887  19.925  0.00  0.00    +0.009 A 
ATOM     23  C   UNL     1      14.628   9.164  18.317  0.00  0.00    +0.162 A 
ATOM     24  C   UNL     1      13.713   6.979  18.806  0.00  0.00    +0.050 A 
ATOM     25  C   UNL     1      13.768   8.112  17.993  0.00  0.00    +0.162 A 
ATOM     26  C   UNL     1      13.587  10.457  16.695  0.00  0.00    +0.270 C 
ATOM     27  C   UNL     1      13.324   9.153  15.968  0.00  0.00    +0.270 C 
ENDBRANCH  19  20
ENDBRANCH   6  19
TORSDOF 3
ENDMDL
