MODEL 1
REMARK VINA RESULT:      -7.4      0.000      0.000
REMARK  Name = 51137517
REMARK  8 active torsions:
REMARK  status: ('A' for Active; 'I' for Inactive)
REMARK    1  A    between atoms: S_1  and  C_21
REMARK    2  A    between atoms: S_1  and  C_25
REMARK    3  A    between atoms: O_5  and  C_28
REMARK    4  A    between atoms: O_5  and  C_29
REMARK    5  A    between atoms: N_6  and  C_13
REMARK    6  A    between atoms: C_9  and  C_14
REMARK    7  A    between atoms: C_13  and  C_15
REMARK    8  A    between atoms: C_18  and  C_22
REMARK                            x       y       z     vdW  Elec       q    Type
REMARK                         _______ _______ _______ _____ _____    ______ ____
ROOT
ATOM      6  N   UNL     1      12.556   8.525  19.391  0.00  0.00    -0.297 NA
ATOM      9  C   UNL     1      14.770   8.057  18.777  0.00  0.00    +0.092 C 
ATOM     10  C   UNL     1      13.834   7.763  17.592  0.00  0.00    +0.029 C 
ATOM     11  C   UNL     1      13.839   8.155  19.992  0.00  0.00    +0.097 C 
ATOM     12  C   UNL     1      12.440   7.684  18.201  0.00  0.00    +0.085 C 
ENDROOT
BRANCH   9  14
ATOM      2  O   UNL     1      16.834   7.359  19.896  0.00  0.00    -0.420 OA
ATOM      7  N   UNL     1      16.090   5.907  18.366  0.00  0.00    -0.112 NA
ATOM      8  N   UNL     1      17.249   5.393  18.913  0.00  0.00    -0.107 NA
ATOM     14  C   UNL     1      15.885   7.055  18.969  0.00  0.00    +0.222 A 
ATOM     18  C   UNL     1      17.649   6.272  19.802  0.00  0.00    +0.248 A 
BRANCH  18  22
ATOM     22  C   UNL     1      18.789   6.266  20.672  0.00  0.00    +0.039 A 
ATOM     23  C   UNL     1      19.860   5.410  20.412  0.00  0.00    +0.017 A 
ATOM     24  C   UNL     1      18.828   7.117  21.776  0.00  0.00    +0.017 A 
ATOM     26  C   UNL     1      20.969   5.405  21.258  0.00  0.00    +0.046 A 
ATOM     27  C   UNL     1      19.937   7.111  22.622  0.00  0.00    +0.046 A 
ATOM     28  C   UNL     1      21.008   6.255  22.363  0.00  0.00    +0.120 A 
BRANCH  28   5
ATOM      5  O   UNL     1      22.091   6.252  23.186  0.00  0.00    -0.495 OA
ATOM     29  C   UNL     1      21.847   6.439  24.580  0.00  0.00    +0.277 C 
ENDBRANCH  28   5
ENDBRANCH  18  22
ENDBRANCH   9  14
BRANCH   6  13
ATOM     13  C   UNL     1      11.440   8.346  20.307  0.00  0.00    +0.119 C 
BRANCH  13  15
ATOM     15  C   UNL     1      11.353   9.464  21.312  0.00  0.00    -0.033 A 
ATOM     16  C   UNL     1      10.891   9.209  22.602  0.00  0.00    +0.007 A 
ATOM     17  C   UNL     1      11.737  10.757  20.951  0.00  0.00    +0.007 A 
ATOM     19  C   UNL     1      10.810  10.245  23.532  0.00  0.00    +0.027 A 
ATOM     20  C   UNL     1      11.657  11.793  21.881  0.00  0.00    +0.027 A 
ATOM     21  C   UNL     1      11.194  11.537  23.172  0.00  0.00    +0.088 A 
BRANCH  21   1
ATOM      1  S   UNL     1      11.097  12.834  24.338  0.00  0.00    -0.006 S 
ATOM      3  O   UNL     1      10.473  12.328  25.554  0.00  0.00    -0.170 OA
ATOM      4  O   UNL     1      12.403  13.472  24.407  0.00  0.00    -0.170 OA
ATOM     25  C   UNL     1       9.958  13.993  23.616  0.00  0.00    +0.200 C 
ENDBRANCH  21   1
ENDBRANCH  13  15
ENDBRANCH   6  13
TORSDOF 6
ENDMDL
MODEL 2
REMARK VINA RESULT:      -7.2      3.929      6.026
REMARK  Name = 51137517
REMARK  8 active torsions:
REMARK  status: ('A' for Active; 'I' for Inactive)
REMARK    1  A    between atoms: S_1  and  C_21
REMARK    2  A    between atoms: S_1  and  C_25
REMARK    3  A    between atoms: O_5  and  C_28
REMARK    4  A    between atoms: O_5  and  C_29
REMARK    5  A    between atoms: N_6  and  C_13
REMARK    6  A    between atoms: C_9  and  C_14
REMARK    7  A    between atoms: C_13  and  C_15
REMARK    8  A    between atoms: C_18  and  C_22
REMARK                            x       y       z     vdW  Elec       q    Type
REMARK                         _______ _______ _______ _____ _____    ______ ____
ROOT
ATOM      6  N   UNL     1      18.012   8.266  21.759  0.00  0.00    -0.297 NA
ATOM      9  C   UNL     1      19.581   6.582  22.209  0.00  0.00    +0.092 C 
ATOM     10  C   UNL     1      19.993   7.877  22.931  0.00  0.00    +0.029 C 
ATOM     11  C   UNL     1      18.537   7.030  21.177  0.00  0.00    +0.097 C 
ATOM     12  C   UNL     1      19.189   8.979  22.255  0.00  0.00    +0.085 C 
ENDROOT
BRANCH   9  14
ATOM      2  O   UNL     1      21.220   4.766  22.315  0.00  0.00    -0.420 OA
ATOM      7  N   UNL     1      21.330   5.986  20.442  0.00  0.00    -0.112 NA
ATOM      8  N   UNL     1      22.301   5.006  20.371  0.00  0.00    -0.107 NA
ATOM     14  C   UNL     1      20.723   5.808  21.593  0.00  0.00    +0.222 A 
ATOM     18  C   UNL     1      22.201   4.318  21.483  0.00  0.00    +0.248 A 
BRANCH  18  22
ATOM     22  C   UNL     1      22.951   3.188  21.951  0.00  0.00    +0.039 A 
ATOM     23  C   UNL     1      22.961   2.872  23.310  0.00  0.00    +0.017 A 
ATOM     24  C   UNL     1      23.668   2.404  21.047  0.00  0.00    +0.017 A 
ATOM     26  C   UNL     1      23.690   1.773  23.766  0.00  0.00    +0.046 A 
ATOM     27  C   UNL     1      24.397   1.305  21.503  0.00  0.00    +0.046 A 
ATOM     28  C   UNL     1      24.408   0.990  22.862  0.00  0.00    +0.120 A 
BRANCH  28   5
ATOM      5  O   UNL     1      25.116  -0.084  23.305  0.00  0.00    -0.495 OA
ATOM     29  C   UNL     1      25.188  -0.276  24.718  0.00  0.00    +0.277 C 
ENDBRANCH  28   5
ENDBRANCH  18  22
ENDBRANCH   9  14
BRANCH   6  13
ATOM     13  C   UNL     1      17.251   9.053  20.800  0.00  0.00    +0.119 C 
BRANCH  13  15
ATOM     15  C   UNL     1      15.793   8.677  20.797  0.00  0.00    -0.033 A 
ATOM     16  C   UNL     1      15.073   8.668  21.992  0.00  0.00    +0.007 A 
ATOM     17  C   UNL     1      15.162   8.339  19.600  0.00  0.00    +0.007 A 
ATOM     19  C   UNL     1      13.722   8.320  21.989  0.00  0.00    +0.027 A 
ATOM     20  C   UNL     1      13.812   7.992  19.596  0.00  0.00    +0.027 A 
ATOM     21  C   UNL     1      13.091   7.982  20.792  0.00  0.00    +0.088 A 
BRANCH  21   1
ATOM      1  S   UNL     1      11.399   7.551  20.788  0.00  0.00    -0.006 S 
ATOM      3  O   UNL     1      10.721   8.309  19.745  0.00  0.00    -0.170 OA
ATOM      4  O   UNL     1      11.308   6.098  20.799  0.00  0.00    -0.170 OA
ATOM     25  C   UNL     1      10.787   8.150  22.346  0.00  0.00    +0.200 C 
ENDBRANCH  21   1
ENDBRANCH  13  15
ENDBRANCH   6  13
TORSDOF 6
ENDMDL
MODEL 3
REMARK VINA RESULT:      -7.0     27.730     29.660
REMARK  Name = 51137517
REMARK  8 active torsions:
REMARK  status: ('A' for Active; 'I' for Inactive)
REMARK    1  A    between atoms: S_1  and  C_21
REMARK    2  A    between atoms: S_1  and  C_25
REMARK    3  A    between atoms: O_5  and  C_28
REMARK    4  A    between atoms: O_5  and  C_29
REMARK    5  A    between atoms: N_6  and  C_13
REMARK    6  A    between atoms: C_9  and  C_14
REMARK    7  A    between atoms: C_13  and  C_15
REMARK    8  A    between atoms: C_18  and  C_22
REMARK                            x       y       z     vdW  Elec       q    Type
REMARK                         _______ _______ _______ _____ _____    ______ ____
ROOT
ATOM      6  N   UNL     1      -2.886 -10.375  10.845  0.00  0.00    -0.297 NA
ATOM      9  C   UNL     1      -2.432 -11.454  12.877  0.00  0.00    +0.092 C 
ATOM     10  C   UNL     1      -3.759 -11.978  12.301  0.00  0.00    +0.029 C 
ATOM     11  C   UNL     1      -2.152 -10.164  12.095  0.00  0.00    +0.097 C 
ATOM     12  C   UNL     1      -4.167 -10.951  11.253  0.00  0.00    +0.085 C 
ENDROOT
BRANCH   9  14
ATOM      2  O   UNL     1      -3.638 -11.248  14.999  0.00  0.00    -0.420 OA
ATOM      7  N   UNL     1      -1.417 -11.062  15.190  0.00  0.00    -0.112 NA
ATOM      8  N   UNL     1      -1.966 -10.927  16.450  0.00  0.00    -0.107 NA
ATOM     14  C   UNL     1      -2.429 -11.248  14.374  0.00  0.00    +0.222 A 
ATOM     18  C   UNL     1      -3.264 -11.042  16.292  0.00  0.00    +0.248 A 
BRANCH  18  22
ATOM     22  C   UNL     1      -4.329 -10.987  17.251  0.00  0.00    +0.039 A 
ATOM     23  C   UNL     1      -5.487 -10.264  16.965  0.00  0.00    +0.017 A 
ATOM     24  C   UNL     1      -4.207 -11.656  18.469  0.00  0.00    +0.017 A 
ATOM     26  C   UNL     1      -6.524 -10.210  17.897  0.00  0.00    +0.046 A 
ATOM     27  C   UNL     1      -5.243 -11.601  19.401  0.00  0.00    +0.046 A 
ATOM     28  C   UNL     1      -6.401 -10.878  19.115  0.00  0.00    +0.120 A 
BRANCH  28   5
ATOM      5  O   UNL     1      -7.413 -10.828  20.024  0.00  0.00    -0.495 OA
ATOM     29  C   UNL     1      -8.688 -11.312  19.603  0.00  0.00    +0.277 C 
ENDBRANCH  28   5
ENDBRANCH  18  22
ENDBRANCH   9  14
BRANCH   6  13
ATOM     13  C   UNL     1      -3.048  -9.146  10.083  0.00  0.00    +0.119 C 
BRANCH  13  15
ATOM     15  C   UNL     1      -4.369  -9.104   9.361  0.00  0.00    -0.033 A 
ATOM     16  C   UNL     1      -5.381  -8.254   9.805  0.00  0.00    +0.007 A 
ATOM     17  C   UNL     1      -4.580  -9.916   8.245  0.00  0.00    +0.007 A 
ATOM     19  C   UNL     1      -6.603  -8.215   9.137  0.00  0.00    +0.027 A 
ATOM     20  C   UNL     1      -5.803  -9.877   7.576  0.00  0.00    +0.027 A 
ATOM     21  C   UNL     1      -6.815  -9.026   8.022  0.00  0.00    +0.088 A 
BRANCH  21   1
ATOM      1  S   UNL     1      -8.345  -8.974   7.182  0.00  0.00    -0.006 S 
ATOM      3  O   UNL     1      -8.365 -10.026   6.174  0.00  0.00    -0.170 OA
ATOM      4  O   UNL     1      -9.402  -8.910   8.181  0.00  0.00    -0.170 OA
ATOM     25  C   UNL     1      -8.320  -7.424   6.312  0.00  0.00    +0.200 C 
ENDBRANCH  21   1
ENDBRANCH  13  15
ENDBRANCH   6  13
TORSDOF 6
ENDMDL
MODEL 4
REMARK VINA RESULT:      -6.7     27.673     31.327
REMARK  Name = 51137517
REMARK  8 active torsions:
REMARK  status: ('A' for Active; 'I' for Inactive)
REMARK    1  A    between atoms: S_1  and  C_21
REMARK    2  A    between atoms: S_1  and  C_25
REMARK    3  A    between atoms: O_5  and  C_28
REMARK    4  A    between atoms: O_5  and  C_29
REMARK    5  A    between atoms: N_6  and  C_13
REMARK    6  A    between atoms: C_9  and  C_14
REMARK    7  A    between atoms: C_13  and  C_15
REMARK    8  A    between atoms: C_18  and  C_22
REMARK                            x       y       z     vdW  Elec       q    Type
REMARK                         _______ _______ _______ _____ _____    ______ ____
ROOT
ATOM      6  N   UNL     1      -5.164  -9.759   8.801  0.00  0.00    -0.297 NA
ATOM      9  C   UNL     1      -7.387  -9.194   8.309  0.00  0.00    +0.092 C 
ATOM     10  C   UNL     1      -6.769  -9.939   7.114  0.00  0.00    +0.029 C 
ATOM     11  C   UNL     1      -6.186  -8.777   9.169  0.00  0.00    +0.097 C 
ATOM     12  C   UNL     1      -5.264  -9.880   7.346  0.00  0.00    +0.085 C 
ENDROOT
BRANCH   9  14
ATOM      2  O   UNL     1      -8.966  -7.435   8.951  0.00  0.00    -0.420 OA
ATOM      7  N   UNL     1      -8.501  -7.489   6.764  0.00  0.00    -0.112 NA
ATOM      8  N   UNL     1      -9.396  -6.460   6.985  0.00  0.00    -0.107 NA
ATOM     14  C   UNL     1      -8.278  -8.031   7.939  0.00  0.00    +0.222 A 
ATOM     18  C   UNL     1      -9.639  -6.465   8.274  0.00  0.00    +0.248 A 
BRANCH  18  22
ATOM     22  C   UNL     1     -10.488  -5.622   9.066  0.00  0.00    +0.039 A 
ATOM     23  C   UNL     1     -10.412  -4.235   8.935  0.00  0.00    +0.017 A 
ATOM     24  C   UNL     1     -11.391  -6.190   9.965  0.00  0.00    +0.017 A 
ATOM     26  C   UNL     1     -11.239  -3.416   9.704  0.00  0.00    +0.046 A 
ATOM     27  C   UNL     1     -12.217  -5.371  10.735  0.00  0.00    +0.046 A 
ATOM     28  C   UNL     1     -12.141  -3.983  10.604  0.00  0.00    +0.120 A 
BRANCH  28   5
ATOM      5  O   UNL     1     -12.949  -3.184  11.352  0.00  0.00    -0.495 OA
ATOM     29  C   UNL     1     -14.329  -3.137  10.991  0.00  0.00    +0.277 C 
ENDBRANCH  28   5
ENDBRANCH  18  22
ENDBRANCH   9  14
BRANCH   6  13
ATOM     13  C   UNL     1      -3.832  -9.364   9.233  0.00  0.00    +0.119 C 
BRANCH  13  15
ATOM     15  C   UNL     1      -3.376 -10.150  10.433  0.00  0.00    -0.033 A 
ATOM     16  C   UNL     1      -4.049 -11.315  10.802  0.00  0.00    +0.007 A 
ATOM     17  C   UNL     1      -2.279  -9.715  11.177  0.00  0.00    +0.007 A 
ATOM     19  C   UNL     1      -3.627 -12.043  11.914  0.00  0.00    +0.027 A 
ATOM     20  C   UNL     1      -1.855 -10.443  12.288  0.00  0.00    +0.027 A 
ATOM     21  C   UNL     1      -2.529 -11.608  12.657  0.00  0.00    +0.088 A 
BRANCH  21   1
ATOM      1  S   UNL     1      -1.998 -12.522  14.046  0.00  0.00    -0.006 S 
ATOM      3  O   UNL     1      -3.158 -13.136  14.679  0.00  0.00    -0.170 OA
ATOM      4  O   UNL     1      -0.876 -13.353  13.633  0.00  0.00    -0.170 OA
ATOM     25  C   UNL     1      -1.383 -11.293  15.175  0.00  0.00    +0.200 C 
ENDBRANCH  21   1
ENDBRANCH  13  15
ENDBRANCH   6  13
TORSDOF 6
ENDMDL
MODEL 5
REMARK VINA RESULT:      -6.7     27.027     30.194
REMARK  Name = 51137517
REMARK  8 active torsions:
REMARK  status: ('A' for Active; 'I' for Inactive)
REMARK    1  A    between atoms: S_1  and  C_21
REMARK    2  A    between atoms: S_1  and  C_25
REMARK    3  A    between atoms: O_5  and  C_28
REMARK    4  A    between atoms: O_5  and  C_29
REMARK    5  A    between atoms: N_6  and  C_13
REMARK    6  A    between atoms: C_9  and  C_14
REMARK    7  A    between atoms: C_13  and  C_15
REMARK    8  A    between atoms: C_18  and  C_22
REMARK                            x       y       z     vdW  Elec       q    Type
REMARK                         _______ _______ _______ _____ _____    ______ ____
ROOT
ATOM      6  N   UNL     1      -2.019 -10.931  13.808  0.00  0.00    -0.297 NA
ATOM      9  C   UNL     1      -3.147 -10.201  15.730  0.00  0.00    +0.092 C 
ATOM     10  C   UNL     1      -1.718 -10.631  16.104  0.00  0.00    +0.029 C 
ATOM     11  C   UNL     1      -3.378 -10.797  14.335  0.00  0.00    +0.097 C 
ATOM     12  C   UNL     1      -1.234 -11.461  14.922  0.00  0.00    +0.085 C 
ENDROOT
BRANCH   9  14
ATOM      2  O   UNL     1      -5.434 -10.023  16.588  0.00  0.00    -0.420 OA
ATOM      7  N   UNL     1      -4.140 -11.446  17.730  0.00  0.00    -0.112 NA
ATOM      8  N   UNL     1      -5.391 -11.442  18.317  0.00  0.00    -0.107 NA
ATOM     14  C   UNL     1      -4.211 -10.603  16.726  0.00  0.00    +0.222 A 
ATOM     18  C   UNL     1      -6.114 -10.599  17.617  0.00  0.00    +0.248 A 
BRANCH  18  22
ATOM     22  C   UNL     1      -7.483 -10.197  17.767  0.00  0.00    +0.039 A 
ATOM     23  C   UNL     1      -8.320 -10.887  18.645  0.00  0.00    +0.017 A 
ATOM     24  C   UNL     1      -7.976  -9.116  17.037  0.00  0.00    +0.017 A 
ATOM     26  C   UNL     1      -9.650 -10.496  18.792  0.00  0.00    +0.046 A 
ATOM     27  C   UNL     1      -9.307  -8.726  17.183  0.00  0.00    +0.046 A 
ATOM     28  C   UNL     1     -10.144  -9.416  18.061  0.00  0.00    +0.120 A 
BRANCH  28   5
ATOM      5  O   UNL     1     -11.442  -9.032  18.206  0.00  0.00    -0.495 OA
ATOM     29  C   UNL     1     -12.351  -9.419  17.176  0.00  0.00    +0.277 C 
ENDBRANCH  28   5
ENDBRANCH  18  22
ENDBRANCH   9  14
BRANCH   6  13
ATOM     13  C   UNL     1      -1.961 -11.787  12.633  0.00  0.00    +0.119 C 
BRANCH  13  15
ATOM     15  C   UNL     1      -2.905 -11.325  11.555  0.00  0.00    -0.033 A 
ATOM     16  C   UNL     1      -3.867 -12.198  11.048  0.00  0.00    +0.007 A 
ATOM     17  C   UNL     1      -2.818 -10.022  11.063  0.00  0.00    +0.007 A 
ATOM     19  C   UNL     1      -4.741 -11.769  10.050  0.00  0.00    +0.027 A 
ATOM     20  C   UNL     1      -3.692  -9.593  10.065  0.00  0.00    +0.027 A 
ATOM     21  C   UNL     1      -4.655 -10.467   9.558  0.00  0.00    +0.088 A 
BRANCH  21   1
ATOM      1  S   UNL     1      -5.752  -9.929   8.311  0.00  0.00    -0.006 S 
ATOM      3  O   UNL     1      -6.226  -8.592   8.644  0.00  0.00    -0.170 OA
ATOM      4  O   UNL     1      -5.119 -10.171   7.023  0.00  0.00    -0.170 OA
ATOM     25  C   UNL     1      -7.147 -11.023   8.449  0.00  0.00    +0.200 C 
ENDBRANCH  21   1
ENDBRANCH  13  15
ENDBRANCH   6  13
TORSDOF 6
ENDMDL
MODEL 6
REMARK VINA RESULT:      -6.6     27.948     29.858
REMARK  Name = 51137517
REMARK  8 active torsions:
REMARK  status: ('A' for Active; 'I' for Inactive)
REMARK    1  A    between atoms: S_1  and  C_21
REMARK    2  A    between atoms: S_1  and  C_25
REMARK    3  A    between atoms: O_5  and  C_28
REMARK    4  A    between atoms: O_5  and  C_29
REMARK    5  A    between atoms: N_6  and  C_13
REMARK    6  A    between atoms: C_9  and  C_14
REMARK    7  A    between atoms: C_13  and  C_15
REMARK    8  A    between atoms: C_18  and  C_22
REMARK                            x       y       z     vdW  Elec       q    Type
REMARK                         _______ _______ _______ _____ _____    ______ ____
ROOT
ATOM      6  N   UNL     1      -4.689 -10.840  10.571  0.00  0.00    -0.297 NA
ATOM      9  C   UNL     1      -3.316 -10.301  12.394  0.00  0.00    +0.092 C 
ATOM     10  C   UNL     1      -2.628 -11.372  11.530  0.00  0.00    +0.029 C 
ATOM     11  C   UNL     1      -4.780 -10.314  11.934  0.00  0.00    +0.097 C 
ATOM     12  C   UNL     1      -3.735 -11.945  10.656  0.00  0.00    +0.085 C 
ENDROOT
BRANCH   9  14
ATOM      2  O   UNL     1      -4.307 -10.476  14.627  0.00  0.00    -0.420 OA
ATOM      7  N   UNL     1      -2.081 -10.689  14.598  0.00  0.00    -0.112 NA
ATOM      8  N   UNL     1      -2.503 -10.806  15.908  0.00  0.00    -0.107 NA
ATOM     14  C   UNL     1      -3.166 -10.497  13.885  0.00  0.00    +0.222 A 
ATOM     18  C   UNL     1      -3.809 -10.677  15.878  0.00  0.00    +0.248 A 
BRANCH  18  22
ATOM     22  C   UNL     1      -4.774 -10.712  16.939  0.00  0.00    +0.039 A 
ATOM     23  C   UNL     1      -4.483 -11.390  18.123  0.00  0.00    +0.017 A 
ATOM     24  C   UNL     1      -6.001 -10.067  16.788  0.00  0.00    +0.017 A 
ATOM     26  C   UNL     1      -5.421 -11.424  19.156  0.00  0.00    +0.046 A 
ATOM     27  C   UNL     1      -6.939 -10.101  17.819  0.00  0.00    +0.046 A 
ATOM     28  C   UNL     1      -6.649 -10.780  19.004  0.00  0.00    +0.120 A 
BRANCH  28   5
ATOM      5  O   UNL     1      -7.563 -10.811  20.012  0.00  0.00    -0.495 OA
ATOM     29  C   UNL     1      -8.844 -11.360  19.708  0.00  0.00    +0.277 C 
ENDBRANCH  28   5
ENDBRANCH  18  22
ENDBRANCH   9  14
BRANCH   6  13
ATOM     13  C   UNL     1      -5.980 -11.261  10.050  0.00  0.00    +0.119 C 
BRANCH  13  15
ATOM     15  C   UNL     1      -6.843 -10.086   9.672  0.00  0.00    -0.033 A 
ATOM     16  C   UNL     1      -8.207 -10.100   9.963  0.00  0.00    +0.007 A 
ATOM     17  C   UNL     1      -6.278  -8.983   9.033  0.00  0.00    +0.007 A 
ATOM     19  C   UNL     1      -9.006  -9.012   9.613  0.00  0.00    +0.027 A 
ATOM     20  C   UNL     1      -7.076  -7.894   8.683  0.00  0.00    +0.027 A 
ATOM     21  C   UNL     1      -8.441  -7.909   8.974  0.00  0.00    +0.088 A 
BRANCH  21   1
ATOM      1  S   UNL     1      -9.441  -6.544   8.540  0.00  0.00    -0.006 S 
ATOM      3  O   UNL     1     -10.591  -6.499   9.434  0.00  0.00    -0.170 OA
ATOM      4  O   UNL     1      -8.578  -5.379   8.413  0.00  0.00    -0.170 OA
ATOM     25  C   UNL     1     -10.059  -6.947   6.922  0.00  0.00    +0.200 C 
ENDBRANCH  21   1
ENDBRANCH  13  15
ENDBRANCH   6  13
TORSDOF 6
ENDMDL
MODEL 7
REMARK VINA RESULT:      -6.5     27.696     30.508
REMARK  Name = 51137517
REMARK  8 active torsions:
REMARK  status: ('A' for Active; 'I' for Inactive)
REMARK    1  A    between atoms: S_1  and  C_21
REMARK    2  A    between atoms: S_1  and  C_25
REMARK    3  A    between atoms: O_5  and  C_28
REMARK    4  A    between atoms: O_5  and  C_29
REMARK    5  A    between atoms: N_6  and  C_13
REMARK    6  A    between atoms: C_9  and  C_14
REMARK    7  A    between atoms: C_13  and  C_15
REMARK    8  A    between atoms: C_18  and  C_22
REMARK                            x       y       z     vdW  Elec       q    Type
REMARK                         _______ _______ _______ _____ _____    ______ ____
ROOT
ATOM      6  N   UNL     1      -3.808 -11.011  10.875  0.00  0.00    -0.297 NA
ATOM      9  C   UNL     1      -2.436 -10.726  12.754  0.00  0.00    +0.092 C 
ATOM     10  C   UNL     1      -2.186 -12.114  12.140  0.00  0.00    +0.029 C 
ATOM     11  C   UNL     1      -3.756 -10.257  12.128  0.00  0.00    +0.097 C 
ATOM     12  C   UNL     1      -3.381 -12.364  11.230  0.00  0.00    +0.085 C 
ENDROOT
BRANCH   9  14
ATOM      2  O   UNL     1      -3.677 -10.743  14.865  0.00  0.00    -0.420 OA
ATOM      7  N   UNL     1      -1.457 -10.627  15.114  0.00  0.00    -0.112 NA
ATOM      8  N   UNL     1      -2.028 -10.628  16.372  0.00  0.00    -0.107 NA
ATOM     14  C   UNL     1      -2.457 -10.695  14.265  0.00  0.00    +0.222 A 
ATOM     18  C   UNL     1      -3.324 -10.697  16.179  0.00  0.00    +0.248 A 
BRANCH  18  22
ATOM     22  C   UNL     1      -4.406 -10.732  17.121  0.00  0.00    +0.039 A 
ATOM     23  C   UNL     1      -4.261 -11.421  18.325  0.00  0.00    +0.017 A 
ATOM     24  C   UNL     1      -5.602 -10.074  16.833  0.00  0.00    +0.017 A 
ATOM     26  C   UNL     1      -5.312 -11.454  19.241  0.00  0.00    +0.046 A 
ATOM     27  C   UNL     1      -6.654 -10.108  17.748  0.00  0.00    +0.046 A 
ATOM     28  C   UNL     1      -6.509 -10.797  18.953  0.00  0.00    +0.120 A 
BRANCH  28   5
ATOM      5  O   UNL     1      -7.534 -10.827  19.847  0.00  0.00    -0.495 OA
ATOM     29  C   UNL     1      -8.844 -11.047  19.326  0.00  0.00    +0.277 C 
ENDBRANCH  28   5
ENDBRANCH  18  22
ENDBRANCH   9  14
BRANCH   6  13
ATOM     13  C   UNL     1      -5.131 -10.989  10.268  0.00  0.00    +0.119 C 
BRANCH  13  15
ATOM     15  C   UNL     1      -5.078 -11.298   8.795  0.00  0.00    -0.033 A 
ATOM     16  C   UNL     1      -4.802 -12.596   8.364  0.00  0.00    +0.007 A 
ATOM     17  C   UNL     1      -5.305 -10.287   7.861  0.00  0.00    +0.007 A 
ATOM     19  C   UNL     1      -4.753 -12.882   7.000  0.00  0.00    +0.027 A 
ATOM     20  C   UNL     1      -5.256 -10.573   6.497  0.00  0.00    +0.027 A 
ATOM     21  C   UNL     1      -4.981 -11.871   6.067  0.00  0.00    +0.088 A 
BRANCH  21   1
ATOM      1  S   UNL     1      -4.923 -12.231   4.358  0.00  0.00    -0.006 S 
ATOM      3  O   UNL     1      -5.923 -11.423   3.673  0.00  0.00    -0.170 OA
ATOM      4  O   UNL     1      -3.532 -12.171   3.935  0.00  0.00    -0.170 OA
ATOM     25  C   UNL     1      -5.458 -13.923   4.245  0.00  0.00    +0.200 C 
ENDBRANCH  21   1
ENDBRANCH  13  15
ENDBRANCH   6  13
TORSDOF 6
ENDMDL
MODEL 8
REMARK VINA RESULT:      -6.5     27.768     30.078
REMARK  Name = 51137517
REMARK  8 active torsions:
REMARK  status: ('A' for Active; 'I' for Inactive)
REMARK    1  A    between atoms: S_1  and  C_21
REMARK    2  A    between atoms: S_1  and  C_25
REMARK    3  A    between atoms: O_5  and  C_28
REMARK    4  A    between atoms: O_5  and  C_29
REMARK    5  A    between atoms: N_6  and  C_13
REMARK    6  A    between atoms: C_9  and  C_14
REMARK    7  A    between atoms: C_13  and  C_15
REMARK    8  A    between atoms: C_18  and  C_22
REMARK                            x       y       z     vdW  Elec       q    Type
REMARK                         _______ _______ _______ _____ _____    ______ ____
ROOT
ATOM      6  N   UNL     1      -3.097 -11.375  15.200  0.00  0.00    -0.297 NA
ATOM      9  C   UNL     1      -3.281 -11.447  12.863  0.00  0.00    +0.092 C 
ATOM     10  C   UNL     1      -1.875 -11.907  13.283  0.00  0.00    +0.029 C 
ATOM     11  C   UNL     1      -3.851 -10.755  14.109  0.00  0.00    +0.097 C 
ATOM     12  C   UNL     1      -1.716 -11.430  14.721  0.00  0.00    +0.085 C 
ENDROOT
BRANCH   9  14
ATOM      2  O   UNL     1      -4.495 -10.530  10.944  0.00  0.00    -0.420 OA
ATOM      7  N   UNL     1      -2.379  -9.824  11.107  0.00  0.00    -0.112 NA
ATOM      8  N   UNL     1      -2.940  -9.234   9.991  0.00  0.00    -0.107 NA
ATOM     14  C   UNL     1      -3.322 -10.571  11.633  0.00  0.00    +0.222 A 
ATOM     18  C   UNL     1      -4.175  -9.674   9.934  0.00  0.00    +0.248 A 
BRANCH  18  22
ATOM     22  C   UNL     1      -5.221  -9.399   8.992  0.00  0.00    +0.039 A 
ATOM     23  C   UNL     1      -6.276  -8.558   9.346  0.00  0.00    +0.017 A 
ATOM     24  C   UNL     1      -5.181  -9.970   7.720  0.00  0.00    +0.017 A 
ATOM     26  C   UNL     1      -7.292  -8.289   8.430  0.00  0.00    +0.046 A 
ATOM     27  C   UNL     1      -6.198  -9.702   6.803  0.00  0.00    +0.046 A 
ATOM     28  C   UNL     1      -7.253  -8.861   7.158  0.00  0.00    +0.120 A 
BRANCH  28   5
ATOM      5  O   UNL     1      -8.243  -8.597   6.263  0.00  0.00    -0.495 OA
ATOM     29  C   UNL     1      -8.661  -9.671   5.421  0.00  0.00    +0.277 C 
ENDBRANCH  28   5
ENDBRANCH  18  22
ENDBRANCH   9  14
BRANCH   6  13
ATOM     13  C   UNL     1      -3.221 -10.640  16.449  0.00  0.00    +0.119 C 
BRANCH  13  15
ATOM     15  C   UNL     1      -4.490 -10.987  17.181  0.00  0.00    -0.033 A 
ATOM     16  C   UNL     1      -4.574 -12.174  17.908  0.00  0.00    +0.007 A 
ATOM     17  C   UNL     1      -5.583 -10.121  17.132  0.00  0.00    +0.007 A 
ATOM     19  C   UNL     1      -5.750 -12.496  18.586  0.00  0.00    +0.027 A 
ATOM     20  C   UNL     1      -6.758 -10.441  17.810  0.00  0.00    +0.027 A 
ATOM     21  C   UNL     1      -6.842 -11.630  18.538  0.00  0.00    +0.088 A 
BRANCH  21   1
ATOM      1  S   UNL     1      -8.313 -12.031  19.390  0.00  0.00    -0.006 S 
ATOM      3  O   UNL     1      -8.082 -13.225  20.192  0.00  0.00    -0.170 OA
ATOM      4  O   UNL     1      -8.806 -10.817  20.025  0.00  0.00    -0.170 OA
ATOM     25  C   UNL     1      -9.457 -12.482  18.106  0.00  0.00    +0.200 C 
ENDBRANCH  21   1
ENDBRANCH  13  15
ENDBRANCH   6  13
TORSDOF 6
ENDMDL
MODEL 9
REMARK VINA RESULT:      -6.4     28.274     29.854
REMARK  Name = 51137517
REMARK  8 active torsions:
REMARK  status: ('A' for Active; 'I' for Inactive)
REMARK    1  A    between atoms: S_1  and  C_21
REMARK    2  A    between atoms: S_1  and  C_25
REMARK    3  A    between atoms: O_5  and  C_28
REMARK    4  A    between atoms: O_5  and  C_29
REMARK    5  A    between atoms: N_6  and  C_13
REMARK    6  A    between atoms: C_9  and  C_14
REMARK    7  A    between atoms: C_13  and  C_15
REMARK    8  A    between atoms: C_18  and  C_22
REMARK                            x       y       z     vdW  Elec       q    Type
REMARK                         _______ _______ _______ _____ _____    ______ ____
ROOT
ATOM      6  N   UNL     1      -6.773  -8.811   8.542  0.00  0.00    -0.297 NA
ATOM      9  C   UNL     1      -4.879  -9.003   9.911  0.00  0.00    +0.092 C 
ATOM     10  C   UNL     1      -4.541  -9.492   8.493  0.00  0.00    +0.029 C 
ATOM     11  C   UNL     1      -6.413  -8.964   9.952  0.00  0.00    +0.097 C 
ATOM     12  C   UNL     1      -5.889  -9.728   7.824  0.00  0.00    +0.085 C 
ENDROOT
BRANCH   9  14
ATOM      2  O   UNL     1      -4.790  -9.640  12.275  0.00  0.00    -0.420 OA
ATOM      7  N   UNL     1      -3.322 -10.724  10.982  0.00  0.00    -0.112 NA
ATOM      8  N   UNL     1      -3.164 -11.175  12.278  0.00  0.00    -0.107 NA
ATOM     14  C   UNL     1      -4.281  -9.829  11.027  0.00  0.00    +0.222 A 
ATOM     18  C   UNL     1      -4.041 -10.516  12.998  0.00  0.00    +0.248 A 
BRANCH  18  22
ATOM     22  C   UNL     1      -4.327 -10.575  14.403  0.00  0.00    +0.039 A 
ATOM     23  C   UNL     1      -3.422 -11.184  15.273  0.00  0.00    +0.017 A 
ATOM     24  C   UNL     1      -5.507 -10.021  14.898  0.00  0.00    +0.017 A 
ATOM     26  C   UNL     1      -3.700 -11.240  16.639  0.00  0.00    +0.046 A 
ATOM     27  C   UNL     1      -5.785 -10.078  16.264  0.00  0.00    +0.046 A 
ATOM     28  C   UNL     1      -4.881 -10.688  17.134  0.00  0.00    +0.120 A 
BRANCH  28   5
ATOM      5  O   UNL     1      -5.150 -10.740  18.467  0.00  0.00    -0.495 OA
ATOM     29  C   UNL     1      -4.460 -11.729  19.230  0.00  0.00    +0.277 C 
ENDBRANCH  28   5
ENDBRANCH  18  22
ENDBRANCH   9  14
BRANCH   6  13
ATOM     13  C   UNL     1      -8.179  -9.089   8.294  0.00  0.00    +0.119 C 
BRANCH  13  15
ATOM     15  C   UNL     1      -9.053  -7.912   8.637  0.00  0.00    -0.033 A 
ATOM     16  C   UNL     1      -8.693  -6.630   8.220  0.00  0.00    +0.007 A 
ATOM     17  C   UNL     1     -10.225  -8.103   9.371  0.00  0.00    +0.007 A 
ATOM     19  C   UNL     1      -9.503  -5.540   8.538  0.00  0.00    +0.027 A 
ATOM     20  C   UNL     1     -11.035  -7.013   9.688  0.00  0.00    +0.027 A 
ATOM     21  C   UNL     1     -10.674  -5.731   9.272  0.00  0.00    +0.088 A 
BRANCH  21   1
ATOM      1  S   UNL     1     -11.690  -4.366   9.666  0.00  0.00    -0.006 S 
ATOM      3  O   UNL     1     -11.955  -4.375  11.099  0.00  0.00    -0.170 OA
ATOM      4  O   UNL     1     -11.111  -3.184   9.045  0.00  0.00    -0.170 OA
ATOM     25  C   UNL     1     -13.231  -4.713   8.851  0.00  0.00    +0.200 C 
ENDBRANCH  21   1
ENDBRANCH  13  15
ENDBRANCH   6  13
TORSDOF 6
ENDMDL
MODEL 10
REMARK VINA RESULT:      -6.4     27.764     30.069
REMARK  Name = 51137517
REMARK  8 active torsions:
REMARK  status: ('A' for Active; 'I' for Inactive)
REMARK    1  A    between atoms: S_1  and  C_21
REMARK    2  A    between atoms: S_1  and  C_25
REMARK    3  A    between atoms: O_5  and  C_28
REMARK    4  A    between atoms: O_5  and  C_29
REMARK    5  A    between atoms: N_6  and  C_13
REMARK    6  A    between atoms: C_9  and  C_14
REMARK    7  A    between atoms: C_13  and  C_15
REMARK    8  A    between atoms: C_18  and  C_22
REMARK                            x       y       z     vdW  Elec       q    Type
REMARK                         _______ _______ _______ _____ _____    ______ ____
ROOT
ATOM      6  N   UNL     1      -3.026 -13.446  11.668  0.00  0.00    -0.297 NA
ATOM      9  C   UNL     1      -1.882 -12.247  13.327  0.00  0.00    +0.092 C 
ATOM     10  C   UNL     1      -1.401 -13.708  13.324  0.00  0.00    +0.029 C 
ATOM     11  C   UNL     1      -3.186 -12.266  12.519  0.00  0.00    +0.097 C 
ATOM     12  C   UNL     1      -2.465 -14.472  12.547  0.00  0.00    +0.085 C 
ENDROOT
BRANCH   9  14
ATOM      2  O   UNL     1      -3.270 -11.757  15.284  0.00  0.00    -0.420 OA
ATOM      7  N   UNL     1      -1.175 -10.987  15.436  0.00  0.00    -0.112 NA
ATOM      8  N   UNL     1      -1.841 -10.644  16.597  0.00  0.00    -0.107 NA
ATOM     14  C   UNL     1      -2.047 -11.635  14.699  0.00  0.00    +0.222 A 
ATOM     18  C   UNL     1      -3.059 -11.114  16.465  0.00  0.00    +0.248 A 
BRANCH  18  22
ATOM     22  C   UNL     1      -4.182 -11.055  17.356  0.00  0.00    +0.039 A 
ATOM     23  C   UNL     1      -4.137 -11.723  18.580  0.00  0.00    +0.017 A 
ATOM     24  C   UNL     1      -5.318 -10.328  16.999  0.00  0.00    +0.017 A 
ATOM     26  C   UNL     1      -5.228 -11.665  19.447  0.00  0.00    +0.046 A 
ATOM     27  C   UNL     1      -6.410 -10.272  17.865  0.00  0.00    +0.046 A 
ATOM     28  C   UNL     1      -6.365 -10.939  19.089  0.00  0.00    +0.120 A 
BRANCH  28   5
ATOM      5  O   UNL     1      -7.429 -10.881  19.936  0.00  0.00    -0.495 OA
ATOM     29  C   UNL     1      -8.726 -11.028  19.358  0.00  0.00    +0.277 C 
ENDBRANCH  28   5
ENDBRANCH  18  22
ENDBRANCH   9  14
BRANCH   6  13
ATOM     13  C   UNL     1      -4.278 -13.865  11.056  0.00  0.00    +0.119 C 
BRANCH  13  15
ATOM     15  C   UNL     1      -4.906 -12.759  10.250  0.00  0.00    -0.033 A 
ATOM     16  C   UNL     1      -4.209 -12.189   9.185  0.00  0.00    +0.007 A 
ATOM     17  C   UNL     1      -6.186 -12.304  10.569  0.00  0.00    +0.007 A 
ATOM     19  C   UNL     1      -4.791 -11.165   8.439  0.00  0.00    +0.027 A 
ATOM     20  C   UNL     1      -6.768 -11.280   9.822  0.00  0.00    +0.027 A 
ATOM     21  C   UNL     1      -6.070 -10.710   8.756  0.00  0.00    +0.088 A 
BRANCH  21   1
ATOM      1  S   UNL     1      -6.800  -9.430   7.819  0.00  0.00    -0.006 S 
ATOM      3  O   UNL     1      -6.787  -8.204   8.605  0.00  0.00    -0.170 OA
ATOM      4  O   UNL     1      -6.197  -9.446   6.494  0.00  0.00    -0.170 OA
ATOM     25  C   UNL     1      -8.501  -9.920   7.652  0.00  0.00    +0.200 C 
ENDBRANCH  21   1
ENDBRANCH  13  15
ENDBRANCH   6  13
TORSDOF 6
ENDMDL
