MODEL 1
REMARK VINA RESULT:      -7.0      0.000      0.000
REMARK  Name = 26743094
REMARK  8 active torsions:
REMARK  status: ('A' for Active; 'I' for Inactive)
REMARK    1  A    between atoms: S_1  and  C_24
REMARK    2  A    between atoms: S_1  and  C_25
REMARK    3  A    between atoms: N_5  and  C_14
REMARK    4  A    between atoms: C_7  and  C_11
REMARK    5  A    between atoms: C_8  and  C_13
REMARK    6  A    between atoms: C_11  and  C_17
REMARK    7  A    between atoms: C_13  and  C_21
REMARK    8  A    between atoms: C_23  and  C_24
REMARK                            x       y       z     vdW  Elec       q    Type
REMARK                         _______ _______ _______ _____ _____    ______ ____
ROOT
ATOM      4  N   UNL     1      13.947   8.466  16.048  0.00  0.00    -0.316 NA
ATOM      7  C   UNL     1      13.183   9.167  18.810  0.00  0.00    +0.004 C 
ATOM      8  C   UNL     1      14.239   8.084  18.484  0.00  0.00    +0.012 C 
ATOM      9  C   UNL     1      13.100  10.157  17.637  0.00  0.00    +0.019 C 
ATOM     10  C   UNL     1      13.997   7.453  17.102  0.00  0.00    +0.085 C 
ATOM     12  C   UNL     1      12.900   9.456  16.295  0.00  0.00    +0.081 C 
ATOM     31  H   UNL     1      13.778   8.012  15.151  0.00  0.00    +0.122 HD
ENDROOT
BRANCH   7  11
ATOM     11  C   UNL     1      11.796   8.605  19.147  0.00  0.00    +0.099 C 
BRANCH  11  17
ATOM      2  O   UNL     1      10.657   8.333  21.264  0.00  0.00    -0.276 OA
ATOM      5  N   UNL     1      11.712  10.348  20.787  0.00  0.00    -0.312 N 
ATOM     17  C   UNL     1      11.315   9.048  20.512  0.00  0.00    +0.214 C 
ATOM     32  H   UNL     1      12.259  10.855  20.099  0.00  0.00    +0.149 HD
BRANCH   5  14
ATOM     14  C   UNL     1      11.388  11.029  22.021  0.00  0.00    +0.073 C 
ATOM     15  C   UNL     1      12.461  10.780  23.085  0.00  0.00    +0.022 C 
ATOM     16  C   UNL     1      11.178  12.528  21.784  0.00  0.00    +0.022 C 
ATOM     18  C   UNL     1      13.766  11.516  22.784  0.00  0.00    +0.002 C 
ATOM     19  C   UNL     1      12.485  13.262  21.485  0.00  0.00    +0.002 C 
ATOM     20  C   UNL     1      13.533  13.008  22.563  0.00  0.00    +0.000 C 
ENDBRANCH   5  14
ENDBRANCH  11  17
ENDBRANCH   7  11
BRANCH   8  13
ATOM     13  C   UNL     1      14.338   7.001  19.559  0.00  0.00    +0.064 C 
BRANCH  13  21
ATOM      3  O   UNL     1      17.396   7.081  21.457  0.00  0.00    -0.359 OA
ATOM      6  N   UNL     1      16.045   7.361  21.289  0.00  0.00    -0.083 NA
ATOM     21  C   UNL     1      15.740   6.877  20.082  0.00  0.00    +0.084 A 
ATOM     22  C   UNL     1      16.847   6.286  19.447  0.00  0.00    +0.071 A 
ATOM     23  C   UNL     1      17.862   6.441  20.354  0.00  0.00    +0.148 A 
BRANCH  23  24
ATOM     24  C   UNL     1      19.282   6.070  20.364  0.00  0.00    +0.151 C 
BRANCH  24   1
ATOM      1  S   UNL     1      20.130   6.499  21.925  0.00  0.00    -0.117 S 
BRANCH   1  25
ATOM     25  C   UNL     1      21.300   5.154  22.059  0.00  0.00    +0.008 A 
ATOM     26  C   UNL     1      21.364   4.183  21.059  0.00  0.00    +0.015 A 
ATOM     27  C   UNL     1      22.148   5.076  23.163  0.00  0.00    +0.015 A 
ATOM     28  C   UNL     1      22.277   3.134  21.165  0.00  0.00    +0.001 A 
ATOM     29  C   UNL     1      23.061   4.026  23.268  0.00  0.00    +0.001 A 
ATOM     30  C   UNL     1      23.125   3.056  22.269  0.00  0.00    +0.000 A 
ENDBRANCH   1  25
ENDBRANCH  24   1
ENDBRANCH  23  24
ENDBRANCH  13  21
ENDBRANCH   8  13
TORSDOF 8
ENDMDL
MODEL 2
REMARK VINA RESULT:      -6.9     27.542     31.428
REMARK  Name = 26743094
REMARK  8 active torsions:
REMARK  status: ('A' for Active; 'I' for Inactive)
REMARK    1  A    between atoms: S_1  and  C_24
REMARK    2  A    between atoms: S_1  and  C_25
REMARK    3  A    between atoms: N_5  and  C_14
REMARK    4  A    between atoms: C_7  and  C_11
REMARK    5  A    between atoms: C_8  and  C_13
REMARK    6  A    between atoms: C_11  and  C_17
REMARK    7  A    between atoms: C_13  and  C_21
REMARK    8  A    between atoms: C_23  and  C_24
REMARK                            x       y       z     vdW  Elec       q    Type
REMARK                         _______ _______ _______ _____ _____    ______ ____
ROOT
ATOM      4  N   UNL     1     -18.139   6.609  21.457  0.00  0.00    -0.316 NA
ATOM      7  C   UNL     1     -15.302   6.015  20.899  0.00  0.00    +0.004 C 
ATOM      8  C   UNL     1     -16.104   5.296  22.010  0.00  0.00    +0.012 C 
ATOM      9  C   UNL     1     -16.279   6.536  19.832  0.00  0.00    +0.019 C 
ATOM     10  C   UNL     1     -17.254   6.171  22.537  0.00  0.00    +0.085 C 
ATOM     12  C   UNL     1     -17.415   7.361  20.434  0.00  0.00    +0.081 C 
ATOM     31  H   UNL     1     -18.881   7.191  21.843  0.00  0.00    +0.122 HD
ENDROOT
BRANCH   7  11
ATOM     11  C   UNL     1     -14.402   7.146  21.412  0.00  0.00    +0.099 C 
BRANCH  11  17
ATOM      2  O   UNL     1     -12.270   6.004  21.371  0.00  0.00    -0.276 OA
ATOM      5  N   UNL     1     -12.525   7.987  20.185  0.00  0.00    -0.312 N 
ATOM     17  C   UNL     1     -12.956   6.956  21.007  0.00  0.00    +0.214 C 
ATOM     32  H   UNL     1     -13.173   8.727  19.938  0.00  0.00    +0.149 HD
BRANCH   5  14
ATOM     14  C   UNL     1     -11.184   8.062  19.650  0.00  0.00    +0.073 C 
ATOM     15  C   UNL     1     -11.133   7.533  18.214  0.00  0.00    +0.022 C 
ATOM     16  C   UNL     1     -10.636   9.491  19.735  0.00  0.00    +0.022 C 
ATOM     18  C   UNL     1     -11.803   8.479  17.217  0.00  0.00    +0.002 C 
ATOM     19  C   UNL     1     -11.307  10.434  18.735  0.00  0.00    +0.002 C 
ATOM     20  C   UNL     1     -11.235   9.891  17.312  0.00  0.00    +0.000 C 
ENDBRANCH   5  14
ENDBRANCH  11  17
ENDBRANCH   7  11
BRANCH   8  13
ATOM     13  C   UNL     1     -15.226   4.811  23.164  0.00  0.00    +0.064 C 
BRANCH  13  21
ATOM      3  O   UNL     1     -16.842   1.704  24.000  0.00  0.00    -0.359 OA
ATOM      6  N   UNL     1     -16.425   2.668  23.089  0.00  0.00    -0.083 NA
ATOM     21  C   UNL     1     -15.815   3.600  23.827  0.00  0.00    +0.084 A 
ATOM     22  C   UNL     1     -15.817   3.282  25.197  0.00  0.00    +0.071 A 
ATOM     23  C   UNL     1     -16.474   2.081  25.251  0.00  0.00    +0.148 A 
BRANCH  23  24
ATOM     24  C   UNL     1     -16.841   1.171  26.343  0.00  0.00    +0.151 C 
BRANCH  24   1
ATOM      1  S   UNL     1     -17.476   2.037  27.822  0.00  0.00    -0.117 S 
BRANCH   1  25
ATOM     25  C   UNL     1     -16.044   1.984  28.891  0.00  0.00    +0.008 A 
ATOM     26  C   UNL     1     -15.381   3.163  29.227  0.00  0.00    +0.015 A 
ATOM     27  C   UNL     1     -15.591   0.762  29.387  0.00  0.00    +0.015 A 
ATOM     28  C   UNL     1     -14.264   3.121  30.061  0.00  0.00    +0.001 A 
ATOM     29  C   UNL     1     -14.474   0.720  30.221  0.00  0.00    +0.001 A 
ATOM     30  C   UNL     1     -13.810   1.900  30.558  0.00  0.00    +0.000 A 
ENDBRANCH   1  25
ENDBRANCH  24   1
ENDBRANCH  23  24
ENDBRANCH  13  21
ENDBRANCH   8  13
TORSDOF 8
ENDMDL
MODEL 3
REMARK VINA RESULT:      -6.5     29.784     32.099
REMARK  Name = 26743094
REMARK  8 active torsions:
REMARK  status: ('A' for Active; 'I' for Inactive)
REMARK    1  A    between atoms: S_1  and  C_24
REMARK    2  A    between atoms: S_1  and  C_25
REMARK    3  A    between atoms: N_5  and  C_14
REMARK    4  A    between atoms: C_7  and  C_11
REMARK    5  A    between atoms: C_8  and  C_13
REMARK    6  A    between atoms: C_11  and  C_17
REMARK    7  A    between atoms: C_13  and  C_21
REMARK    8  A    between atoms: C_23  and  C_24
REMARK                            x       y       z     vdW  Elec       q    Type
REMARK                         _______ _______ _______ _____ _____    ______ ____
ROOT
ATOM      4  N   UNL     1     -14.120   9.406  30.904  0.00  0.00    -0.316 NA
ATOM      7  C   UNL     1     -11.773   8.837  32.600  0.00  0.00    +0.004 C 
ATOM      8  C   UNL     1     -13.138   8.134  32.797  0.00  0.00    +0.012 C 
ATOM      9  C   UNL     1     -11.663   9.320  31.145  0.00  0.00    +0.019 C 
ATOM     10  C   UNL     1     -14.303   9.006  32.300  0.00  0.00    +0.085 C 
ATOM     12  C   UNL     1     -12.873  10.144  30.710  0.00  0.00    +0.081 C 
ATOM     31  H   UNL     1     -14.906   9.987  30.614  0.00  0.00    +0.122 HD
ENDROOT
BRANCH   7  11
ATOM     11  C   UNL     1     -11.519   9.991  33.578  0.00  0.00    +0.099 C 
BRANCH  11  17
ATOM      2  O   UNL     1      -9.105   9.863  33.677  0.00  0.00    -0.276 OA
ATOM      5  N   UNL     1     -10.335   9.767  35.647  0.00  0.00    -0.312 N 
ATOM     17  C   UNL     1     -10.180   9.869  34.273  0.00  0.00    +0.214 C 
ATOM     32  H   UNL     1     -11.269   9.787  36.043  0.00  0.00    +0.149 HD
BRANCH   5  14
ATOM     14  C   UNL     1      -9.222   9.637  36.560  0.00  0.00    +0.073 C 
ATOM     15  C   UNL     1      -9.478  10.413  37.856  0.00  0.00    +0.022 C 
ATOM     16  C   UNL     1      -8.914   8.164  36.848  0.00  0.00    +0.022 C 
ATOM     18  C   UNL     1     -10.540   9.751  38.734  0.00  0.00    +0.002 C 
ATOM     19  C   UNL     1      -9.977   7.505  37.728  0.00  0.00    +0.002 C 
ATOM     20  C   UNL     1     -10.207   8.290  39.016  0.00  0.00    +0.000 C 
ENDBRANCH   5  14
ENDBRANCH  11  17
ENDBRANCH   7  11
BRANCH   8  13
ATOM     13  C   UNL     1     -13.379   7.687  34.240  0.00  0.00    +0.064 C 
BRANCH  13  21
ATOM      3  O   UNL     1     -14.308   4.337  35.173  0.00  0.00    -0.359 OA
ATOM      6  N   UNL     1     -13.845   5.613  35.471  0.00  0.00    -0.083 NA
ATOM     21  C   UNL     1     -13.829   6.257  34.301  0.00  0.00    +0.084 A 
ATOM     22  C   UNL     1     -14.268   5.445  33.239  0.00  0.00    +0.071 A 
ATOM     23  C   UNL     1     -14.557   4.250  33.841  0.00  0.00    +0.148 A 
BRANCH  23  24
ATOM     24  C   UNL     1     -15.055   2.959  33.351  0.00  0.00    +0.151 C 
BRANCH  24   1
ATOM      1  S   UNL     1     -13.881   2.106  32.241  0.00  0.00    -0.117 S 
BRANCH   1  25
ATOM     25  C   UNL     1     -14.768   2.172  30.690  0.00  0.00    +0.008 A 
ATOM     26  C   UNL     1     -15.353   1.017  30.172  0.00  0.00    +0.015 A 
ATOM     27  C   UNL     1     -14.873   3.379  29.999  0.00  0.00    +0.015 A 
ATOM     28  C   UNL     1     -16.044   1.069  28.962  0.00  0.00    +0.001 A 
ATOM     29  C   UNL     1     -15.565   3.430  28.789  0.00  0.00    +0.001 A 
ATOM     30  C   UNL     1     -16.150   2.276  28.271  0.00  0.00    +0.000 A 
ENDBRANCH   1  25
ENDBRANCH  24   1
ENDBRANCH  23  24
ENDBRANCH  13  21
ENDBRANCH   8  13
TORSDOF 8
ENDMDL
MODEL 4
REMARK VINA RESULT:      -6.4     14.749     18.749
REMARK  Name = 26743094
REMARK  8 active torsions:
REMARK  status: ('A' for Active; 'I' for Inactive)
REMARK    1  A    between atoms: S_1  and  C_24
REMARK    2  A    between atoms: S_1  and  C_25
REMARK    3  A    between atoms: N_5  and  C_14
REMARK    4  A    between atoms: C_7  and  C_11
REMARK    5  A    between atoms: C_8  and  C_13
REMARK    6  A    between atoms: C_11  and  C_17
REMARK    7  A    between atoms: C_13  and  C_21
REMARK    8  A    between atoms: C_23  and  C_24
REMARK                            x       y       z     vdW  Elec       q    Type
REMARK                         _______ _______ _______ _____ _____    ______ ____
ROOT
ATOM      4  N   UNL     1      13.904  11.009   3.065  0.00  0.00    -0.316 NA
ATOM      7  C   UNL     1      13.735   8.110   3.591  0.00  0.00    +0.004 C 
ATOM      8  C   UNL     1      13.745   9.166   4.722  0.00  0.00    +0.012 C 
ATOM      9  C   UNL     1      13.216   8.764   2.299  0.00  0.00    +0.019 C 
ATOM     10  C   UNL     1      14.472  10.451   4.293  0.00  0.00    +0.085 C 
ATOM     12  C   UNL     1      13.958  10.055   1.959  0.00  0.00    +0.081 C 
ATOM     31  H   UNL     1      14.416  11.853   2.809  0.00  0.00    +0.122 HD
ENDROOT
BRANCH   7  11
ATOM     11  C   UNL     1      15.092   7.437   3.354  0.00  0.00    +0.099 C 
BRANCH  11  17
ATOM      2  O   UNL     1      15.823   6.820   1.132  0.00  0.00    -0.276 OA
ATOM      5  N   UNL     1      14.196   5.544   2.194  0.00  0.00    -0.312 N 
ATOM     17  C   UNL     1      15.101   6.591   2.099  0.00  0.00    +0.214 C 
ATOM     32  H   UNL     1      13.647   5.438   3.040  0.00  0.00    +0.149 HD
BRANCH   5  14
ATOM     14  C   UNL     1      13.993   4.577   1.138  0.00  0.00    +0.073 C 
ATOM     15  C   UNL     1      13.325   3.307   1.673  0.00  0.00    +0.022 C 
ATOM     16  C   UNL     1      13.189   5.183  -0.017  0.00  0.00    +0.022 C 
ATOM     18  C   UNL     1      11.855   3.527   2.033  0.00  0.00    +0.002 C 
ATOM     19  C   UNL     1      11.719   5.399   0.345  0.00  0.00    +0.002 C 
ATOM     20  C   UNL     1      11.073   4.120   0.866  0.00  0.00    +0.000 C 
ENDBRANCH   5  14
ENDBRANCH  11  17
ENDBRANCH   7  11
BRANCH   8  13
ATOM     13  C   UNL     1      14.323   8.634   6.034  0.00  0.00    +0.064 C 
BRANCH  13  21
ATOM      3  O   UNL     1      12.762   5.903   7.785  0.00  0.00    -0.359 OA
ATOM      6  N   UNL     1      13.877   6.575   7.298  0.00  0.00    -0.083 NA
ATOM     21  C   UNL     1      13.388   7.657   6.686  0.00  0.00    +0.084 A 
ATOM     22  C   UNL     1      11.985   7.721   6.754  0.00  0.00    +0.071 A 
ATOM     23  C   UNL     1      11.642   6.595   7.455  0.00  0.00    +0.148 A 
BRANCH  23  24
ATOM     24  C   UNL     1      10.365   6.021   7.894  0.00  0.00    +0.151 C 
BRANCH  24   1
ATOM      1  S   UNL     1       9.622   4.889   6.667  0.00  0.00    -0.117 S 
BRANCH   1  25
ATOM     25  C   UNL     1       9.276   6.019   5.326  0.00  0.00    +0.008 A 
ATOM     26  C   UNL     1       8.276   6.980   5.464  0.00  0.00    +0.015 A 
ATOM     27  C   UNL     1      10.008   5.937   4.140  0.00  0.00    +0.015 A 
ATOM     28  C   UNL     1       8.006   7.861   4.416  0.00  0.00    +0.001 A 
ATOM     29  C   UNL     1       9.738   6.818   3.093  0.00  0.00    +0.001 A 
ATOM     30  C   UNL     1       8.737   7.780   3.231  0.00  0.00    +0.000 A 
ENDBRANCH   1  25
ENDBRANCH  24   1
ENDBRANCH  23  24
ENDBRANCH  13  21
ENDBRANCH   8  13
TORSDOF 8
ENDMDL
MODEL 5
REMARK VINA RESULT:      -6.4     29.151     31.660
REMARK  Name = 26743094
REMARK  8 active torsions:
REMARK  status: ('A' for Active; 'I' for Inactive)
REMARK    1  A    between atoms: S_1  and  C_24
REMARK    2  A    between atoms: S_1  and  C_25
REMARK    3  A    between atoms: N_5  and  C_14
REMARK    4  A    between atoms: C_7  and  C_11
REMARK    5  A    between atoms: C_8  and  C_13
REMARK    6  A    between atoms: C_11  and  C_17
REMARK    7  A    between atoms: C_13  and  C_21
REMARK    8  A    between atoms: C_23  and  C_24
REMARK                            x       y       z     vdW  Elec       q    Type
REMARK                         _______ _______ _______ _____ _____    ______ ____
ROOT
ATOM      4  N   UNL     1      -6.463 -14.039   4.405  0.00  0.00    -0.316 NA
ATOM      7  C   UNL     1      -5.244 -11.586   5.502  0.00  0.00    +0.004 C 
ATOM      8  C   UNL     1      -4.465 -12.578   4.606  0.00  0.00    +0.012 C 
ATOM      9  C   UNL     1      -6.748 -11.721   5.211  0.00  0.00    +0.019 C 
ATOM     10  C   UNL     1      -5.033 -14.003   4.710  0.00  0.00    +0.085 C 
ATOM     12  C   UNL     1      -7.230 -13.168   5.294  0.00  0.00    +0.081 C 
ATOM     31  H   UNL     1      -6.804 -14.996   4.492  0.00  0.00    +0.122 HD
ENDROOT
BRANCH   7  11
ATOM     11  C   UNL     1      -4.963 -11.745   7.001  0.00  0.00    +0.099 C 
BRANCH  11  17
ATOM      2  O   UNL     1      -5.582  -9.428   7.320  0.00  0.00    -0.276 OA
ATOM      5  N   UNL     1      -4.250 -10.482   8.907  0.00  0.00    -0.312 N 
ATOM     17  C   UNL     1      -4.985 -10.420   7.732  0.00  0.00    +0.214 C 
ATOM     32  H   UNL     1      -3.796 -11.353   9.161  0.00  0.00    +0.149 HD
BRANCH   5  14
ATOM     14  C   UNL     1      -4.098  -9.359   9.804  0.00  0.00    +0.073 C 
ATOM     15  C   UNL     1      -5.209  -9.341  10.858  0.00  0.00    +0.022 C 
ATOM     16  C   UNL     1      -2.712  -9.360  10.458  0.00  0.00    +0.022 C 
ATOM     18  C   UNL     1      -5.050 -10.453  11.896  0.00  0.00    +0.002 C 
ATOM     19  C   UNL     1      -2.557 -10.471  11.497  0.00  0.00    +0.002 C 
ATOM     20  C   UNL     1      -3.667 -10.427  12.541  0.00  0.00    +0.000 C 
ENDBRANCH   5  14
ENDBRANCH  11  17
ENDBRANCH   7  11
BRANCH   8  13
ATOM     13  C   UNL     1      -2.960 -12.577   4.879  0.00  0.00    +0.064 C 
BRANCH  13  21
ATOM      3  O   UNL     1      -1.523 -13.202   1.638  0.00  0.00    -0.359 OA
ATOM      6  N   UNL     1      -2.379 -12.517   2.493  0.00  0.00    -0.083 NA
ATOM     21  C   UNL     1      -2.189 -13.076   3.692  0.00  0.00    +0.084 A 
ATOM     22  C   UNL     1      -1.234 -14.108   3.655  0.00  0.00    +0.071 A 
ATOM     23  C   UNL     1      -0.847 -14.145   2.342  0.00  0.00    +0.148 A 
BRANCH  23  24
ATOM     24  C   UNL     1       0.107 -14.967   1.587  0.00  0.00    +0.151 C 
BRANCH  24   1
ATOM      1  S   UNL     1       1.588 -15.426   2.554  0.00  0.00    -0.117 S 
BRANCH   1  25
ATOM     25  C   UNL     1       2.891 -14.981   1.414  0.00  0.00    +0.008 A 
ATOM     26  C   UNL     1       4.088 -15.696   1.409  0.00  0.00    +0.015 A 
ATOM     27  C   UNL     1       2.710 -13.918   0.529  0.00  0.00    +0.015 A 
ATOM     28  C   UNL     1       5.105 -15.348   0.520  0.00  0.00    +0.001 A 
ATOM     29  C   UNL     1       3.727 -13.570  -0.360  0.00  0.00    +0.001 A 
ATOM     30  C   UNL     1       4.924 -14.285  -0.365  0.00  0.00    +0.000 A 
ENDBRANCH   1  25
ENDBRANCH  24   1
ENDBRANCH  23  24
ENDBRANCH  13  21
ENDBRANCH   8  13
TORSDOF 8
ENDMDL
MODEL 6
REMARK VINA RESULT:      -6.3     15.234     18.690
REMARK  Name = 26743094
REMARK  8 active torsions:
REMARK  status: ('A' for Active; 'I' for Inactive)
REMARK    1  A    between atoms: S_1  and  C_24
REMARK    2  A    between atoms: S_1  and  C_25
REMARK    3  A    between atoms: N_5  and  C_14
REMARK    4  A    between atoms: C_7  and  C_11
REMARK    5  A    between atoms: C_8  and  C_13
REMARK    6  A    between atoms: C_11  and  C_17
REMARK    7  A    between atoms: C_13  and  C_21
REMARK    8  A    between atoms: C_23  and  C_24
REMARK                            x       y       z     vdW  Elec       q    Type
REMARK                         _______ _______ _______ _____ _____    ______ ____
ROOT
ATOM      4  N   UNL     1      15.931   9.232   3.370  0.00  0.00    -0.316 NA
ATOM      7  C   UNL     1      13.964   7.479   4.699  0.00  0.00    +0.004 C 
ATOM      8  C   UNL     1      13.587   8.429   3.537  0.00  0.00    +0.012 C 
ATOM      9  C   UNL     1      15.463   7.147   4.610  0.00  0.00    +0.019 C 
ATOM     10  C   UNL     1      14.530   9.642   3.467  0.00  0.00    +0.085 C 
ATOM     12  C   UNL     1      16.332   8.398   4.502  0.00  0.00    +0.081 C 
ATOM     31  H   UNL     1      16.524  10.061   3.334  0.00  0.00    +0.122 HD
ENDROOT
BRANCH   7  11
ATOM     11  C   UNL     1      13.608   8.021   6.089  0.00  0.00    +0.099 C 
BRANCH  11  17
ATOM      2  O   UNL     1      13.257   6.205   7.648  0.00  0.00    -0.276 OA
ATOM      5  N   UNL     1      11.421   7.223   6.649  0.00  0.00    -0.312 N 
ATOM     17  C   UNL     1      12.775   7.043   6.889  0.00  0.00    +0.214 C 
ATOM     32  H   UNL     1      11.124   7.949   6.006  0.00  0.00    +0.149 HD
BRANCH   5  14
ATOM     14  C   UNL     1      10.394   6.424   7.279  0.00  0.00    +0.073 C 
ATOM     15  C   UNL     1       9.153   7.266   7.589  0.00  0.00    +0.022 C 
ATOM     16  C   UNL     1      10.039   5.206   6.420  0.00  0.00    +0.022 C 
ATOM     18  C   UNL     1       8.372   7.642   6.329  0.00  0.00    +0.002 C 
ATOM     19  C   UNL     1       9.257   5.585   5.163  0.00  0.00    +0.002 C 
ATOM     20  C   UNL     1       8.021   6.414   5.496  0.00  0.00    +0.000 C 
ENDBRANCH   5  14
ENDBRANCH  11  17
ENDBRANCH   7  11
BRANCH   8  13
ATOM     13  C   UNL     1      12.128   8.885   3.586  0.00  0.00    +0.064 C 
BRANCH  13  21
ATOM      3  O   UNL     1       9.631   7.567   1.351  0.00  0.00    -0.359 OA
ATOM      6  N   UNL     1      10.041   8.062   2.584  0.00  0.00    -0.083 NA
ATOM     21  C   UNL     1      11.342   8.324   2.436  0.00  0.00    +0.084 A 
ATOM     22  C   UNL     1      11.806   8.017   1.144  0.00  0.00    +0.071 A 
ATOM     23  C   UNL     1      10.691   7.545   0.503  0.00  0.00    +0.148 A 
BRANCH  23  24
ATOM     24  C   UNL     1      10.433   7.045  -0.853  0.00  0.00    +0.151 C 
BRANCH  24   1
ATOM      1  S   UNL     1       9.802   5.331  -0.883  0.00  0.00    -0.117 S 
BRANCH   1  25
ATOM     25  C   UNL     1      11.032   4.496   0.110  0.00  0.00    +0.008 A 
ATOM     26  C   UNL     1      10.760   4.188   1.443  0.00  0.00    +0.015 A 
ATOM     27  C   UNL     1      12.263   4.154  -0.449  0.00  0.00    +0.015 A 
ATOM     28  C   UNL     1      11.721   3.538   2.218  0.00  0.00    +0.001 A 
ATOM     29  C   UNL     1      13.223   3.503   0.326  0.00  0.00    +0.001 A 
ATOM     30  C   UNL     1      12.952   3.195   1.659  0.00  0.00    +0.000 A 
ENDBRANCH   1  25
ENDBRANCH  24   1
ENDBRANCH  23  24
ENDBRANCH  13  21
ENDBRANCH   8  13
TORSDOF 8
ENDMDL
MODEL 7
REMARK VINA RESULT:      -6.2     29.939     32.429
REMARK  Name = 26743094
REMARK  8 active torsions:
REMARK  status: ('A' for Active; 'I' for Inactive)
REMARK    1  A    between atoms: S_1  and  C_24
REMARK    2  A    between atoms: S_1  and  C_25
REMARK    3  A    between atoms: N_5  and  C_14
REMARK    4  A    between atoms: C_7  and  C_11
REMARK    5  A    between atoms: C_8  and  C_13
REMARK    6  A    between atoms: C_11  and  C_17
REMARK    7  A    between atoms: C_13  and  C_21
REMARK    8  A    between atoms: C_23  and  C_24
REMARK                            x       y       z     vdW  Elec       q    Type
REMARK                         _______ _______ _______ _____ _____    ______ ____
ROOT
ATOM      4  N   UNL     1     -13.666  10.128  31.594  0.00  0.00    -0.316 NA
ATOM      7  C   UNL     1     -12.582   8.272  33.616  0.00  0.00    +0.004 C 
ATOM      8  C   UNL     1     -13.897   7.998  32.848  0.00  0.00    +0.012 C 
ATOM      9  C   UNL     1     -11.701   9.215  32.780  0.00  0.00    +0.019 C 
ATOM     10  C   UNL     1     -14.572   9.302  32.393  0.00  0.00    +0.085 C 
ATOM     12  C   UNL     1     -12.450  10.468  32.330  0.00  0.00    +0.081 C 
ATOM     31  H   UNL     1     -14.145  10.985  31.319  0.00  0.00    +0.122 HD
ENDROOT
BRANCH   7  11
ATOM     11  C   UNL     1     -12.788   8.830  35.029  0.00  0.00    +0.099 C 
BRANCH  11  17
ATOM      2  O   UNL     1     -12.608   6.942  36.532  0.00  0.00    -0.276 OA
ATOM      5  N   UNL     1     -10.902   8.520  36.471  0.00  0.00    -0.312 N 
ATOM     17  C   UNL     1     -12.119   7.977  36.085  0.00  0.00    +0.214 C 
ATOM     32  H   UNL     1     -10.583   9.380  36.037  0.00  0.00    +0.149 HD
BRANCH   5  14
ATOM     14  C   UNL     1     -10.047   7.914  37.467  0.00  0.00    +0.073 C 
ATOM     15  C   UNL     1      -8.588   7.890  37.002  0.00  0.00    +0.022 C 
ATOM     16  C   UNL     1     -10.187   8.625  38.818  0.00  0.00    +0.022 C 
ATOM     18  C   UNL     1      -7.950   9.279  37.004  0.00  0.00    +0.002 C 
ATOM     19  C   UNL     1      -9.546  10.013  38.818  0.00  0.00    +0.002 C 
ATOM     20  C   UNL     1      -8.092   9.961  38.361  0.00  0.00    +0.000 C 
ENDBRANCH   5  14
ENDBRANCH  11  17
ENDBRANCH   7  11
BRANCH   8  13
ATOM     13  C   UNL     1     -14.880   7.130  33.636  0.00  0.00    +0.064 C 
BRANCH  13  21
ATOM      3  O   UNL     1     -14.374   3.590  34.054  0.00  0.00    -0.359 OA
ATOM      6  N   UNL     1     -14.773   4.839  34.517  0.00  0.00    -0.083 NA
ATOM     21  C   UNL     1     -14.556   5.671  33.495  0.00  0.00    +0.084 A 
ATOM     22  C   UNL     1     -14.027   5.011  32.371  0.00  0.00    +0.071 A 
ATOM     23  C   UNL     1     -13.933   3.706  32.776  0.00  0.00    +0.148 A 
BRANCH  23  24
ATOM     24  C   UNL     1     -13.470   2.472  32.130  0.00  0.00    +0.151 C 
BRANCH  24   1
ATOM      1  S   UNL     1     -14.792   1.228  31.916  0.00  0.00    -0.117 S 
BRANCH   1  25
ATOM     25  C   UNL     1     -15.394   1.646  30.286  0.00  0.00    +0.008 A 
ATOM     26  C   UNL     1     -16.236   0.765  29.606  0.00  0.00    +0.015 A 
ATOM     27  C   UNL     1     -15.022   2.853  29.694  0.00  0.00    +0.015 A 
ATOM     28  C   UNL     1     -16.705   1.092  28.334  0.00  0.00    +0.001 A 
ATOM     29  C   UNL     1     -15.492   3.179  28.422  0.00  0.00    +0.001 A 
ATOM     30  C   UNL     1     -16.333   2.299  27.742  0.00  0.00    +0.000 A 
ENDBRANCH   1  25
ENDBRANCH  24   1
ENDBRANCH  23  24
ENDBRANCH  13  21
ENDBRANCH   8  13
TORSDOF 8
ENDMDL
MODEL 8
REMARK VINA RESULT:      -6.1     14.400     17.833
REMARK  Name = 26743094
REMARK  8 active torsions:
REMARK  status: ('A' for Active; 'I' for Inactive)
REMARK    1  A    between atoms: S_1  and  C_24
REMARK    2  A    between atoms: S_1  and  C_25
REMARK    3  A    between atoms: N_5  and  C_14
REMARK    4  A    between atoms: C_7  and  C_11
REMARK    5  A    between atoms: C_8  and  C_13
REMARK    6  A    between atoms: C_11  and  C_17
REMARK    7  A    between atoms: C_13  and  C_21
REMARK    8  A    between atoms: C_23  and  C_24
REMARK                            x       y       z     vdW  Elec       q    Type
REMARK                         _______ _______ _______ _____ _____    ______ ____
ROOT
ATOM      4  N   UNL     1      18.076   9.437   5.723  0.00  0.00    -0.316 NA
ATOM      7  C   UNL     1      15.555   8.933   4.275  0.00  0.00    +0.004 C 
ATOM      8  C   UNL     1      15.694   8.740   5.804  0.00  0.00    +0.012 C 
ATOM      9  C   UNL     1      16.612   9.942   3.798  0.00  0.00    +0.019 C 
ATOM     10  C   UNL     1      17.143   8.419   6.206  0.00  0.00    +0.085 C 
ATOM     12  C   UNL     1      18.019   9.580   4.269  0.00  0.00    +0.081 C 
ATOM     31  H   UNL     1      19.024   9.186   6.001  0.00  0.00    +0.122 HD
ENDROOT
BRANCH   7  11
ATOM     11  C   UNL     1      15.643   7.630   3.471  0.00  0.00    +0.099 C 
BRANCH  11  17
ATOM      2  O   UNL     1      14.184   8.530   1.764  0.00  0.00    -0.276 OA
ATOM      5  N   UNL     1      14.154   6.248   2.203  0.00  0.00    -0.312 N 
ATOM     17  C   UNL     1      14.589   7.552   2.388  0.00  0.00    +0.214 C 
ATOM     32  H   UNL     1      14.557   5.507   2.768  0.00  0.00    +0.149 HD
BRANCH   5  14
ATOM     14  C   UNL     1      13.148   5.880   1.233  0.00  0.00    +0.073 C 
ATOM     15  C   UNL     1      13.350   4.442   0.747  0.00  0.00    +0.022 C 
ATOM     16  C   UNL     1      11.738   6.083   1.797  0.00  0.00    +0.022 C 
ATOM     18  C   UNL     1      12.990   3.408   1.814  0.00  0.00    +0.002 C 
ATOM     19  C   UNL     1      11.380   5.046   2.862  0.00  0.00    +0.002 C 
ATOM     20  C   UNL     1      11.579   3.623   2.352  0.00  0.00    +0.000 C 
ENDBRANCH   5  14
ENDBRANCH  11  17
ENDBRANCH   7  11
BRANCH   8  13
ATOM     13  C   UNL     1      14.735   7.689   6.365  0.00  0.00    +0.064 C 
BRANCH  13  21
ATOM      3  O   UNL     1      11.498   9.240   6.639  0.00  0.00    -0.359 OA
ATOM      6  N   UNL     1      12.823   9.082   7.028  0.00  0.00    -0.083 NA
ATOM     21  C   UNL     1      13.305   8.126   6.229  0.00  0.00    +0.084 A 
ATOM     22  C   UNL     1      12.340   7.648   5.324  0.00  0.00    +0.071 A 
ATOM     23  C   UNL     1      11.223   8.382   5.624  0.00  0.00    +0.148 A 
BRANCH  23  24
ATOM     24  C   UNL     1       9.856   8.417   5.089  0.00  0.00    +0.151 C 
BRANCH  24   1
ATOM      1  S   UNL     1       8.573   8.204   6.373  0.00  0.00    -0.117 S 
BRANCH   1  25
ATOM     25  C   UNL     1       9.054   6.634   7.080  0.00  0.00    +0.008 A 
ATOM     26  C   UNL     1       9.377   5.564   6.247  0.00  0.00    +0.015 A 
ATOM     27  C   UNL     1       9.106   6.481   8.466  0.00  0.00    +0.015 A 
ATOM     28  C   UNL     1       9.751   4.339   6.800  0.00  0.00    +0.001 A 
ATOM     29  C   UNL     1       9.481   5.256   9.018  0.00  0.00    +0.001 A 
ATOM     30  C   UNL     1       9.804   4.186   8.185  0.00  0.00    +0.000 A 
ENDBRANCH   1  25
ENDBRANCH  24   1
ENDBRANCH  23  24
ENDBRANCH  13  21
ENDBRANCH   8  13
TORSDOF 8
ENDMDL
MODEL 9
REMARK VINA RESULT:      -6.0     27.531     30.565
REMARK  Name = 26743094
REMARK  8 active torsions:
REMARK  status: ('A' for Active; 'I' for Inactive)
REMARK    1  A    between atoms: S_1  and  C_24
REMARK    2  A    between atoms: S_1  and  C_25
REMARK    3  A    between atoms: N_5  and  C_14
REMARK    4  A    between atoms: C_7  and  C_11
REMARK    5  A    between atoms: C_8  and  C_13
REMARK    6  A    between atoms: C_11  and  C_17
REMARK    7  A    between atoms: C_13  and  C_21
REMARK    8  A    between atoms: C_23  and  C_24
REMARK                            x       y       z     vdW  Elec       q    Type
REMARK                         _______ _______ _______ _____ _____    ______ ____
ROOT
ATOM      4  N   UNL     1     -18.796   9.566  17.267  0.00  0.00    -0.316 NA
ATOM      7  C   UNL     1     -16.393   8.038  18.039  0.00  0.00    +0.004 C 
ATOM      8  C   UNL     1     -16.975   8.014  16.605  0.00  0.00    +0.012 C 
ATOM      9  C   UNL     1     -16.820   9.343  18.732  0.00  0.00    +0.019 C 
ATOM     10  C   UNL     1     -18.485   8.302  16.600  0.00  0.00    +0.085 C 
ATOM     12  C   UNL     1     -18.327   9.581  18.651  0.00  0.00    +0.081 C 
ATOM     31  H   UNL     1     -19.804   9.718  17.250  0.00  0.00    +0.122 HD
ENDROOT
BRANCH   7  11
ATOM     11  C   UNL     1     -16.776   6.820  18.888  0.00  0.00    +0.099 C 
BRANCH  11  17
ATOM      2  O   UNL     1     -16.873   6.908  21.304  0.00  0.00    -0.276 OA
ATOM      5  N   UNL     1     -14.805   6.919  20.244  0.00  0.00    -0.312 N 
ATOM     17  C   UNL     1     -16.191   6.886  20.282  0.00  0.00    +0.214 C 
ATOM     32  H   UNL     1     -14.333   6.892  19.346  0.00  0.00    +0.149 HD
BRANCH   5  14
ATOM     14  C   UNL     1     -13.983   6.985  21.431  0.00  0.00    +0.073 C 
ATOM     15  C   UNL     1     -12.666   6.229  21.233  0.00  0.00    +0.022 C 
ATOM     16  C   UNL     1     -13.731   8.439  21.847  0.00  0.00    +0.022 C 
ATOM     18  C   UNL     1     -11.711   6.955  20.285  0.00  0.00    +0.002 C 
ATOM     19  C   UNL     1     -12.775   9.161  20.898  0.00  0.00    +0.002 C 
ATOM     20  C   UNL     1     -11.467   8.395  20.724  0.00  0.00    +0.000 C 
ENDBRANCH   5  14
ENDBRANCH  11  17
ENDBRANCH   7  11
BRANCH   8  13
ATOM     13  C   UNL     1     -16.672   6.714  15.858  0.00  0.00    +0.064 C 
BRANCH  13  21
ATOM      3  O   UNL     1     -14.281   6.476  13.177  0.00  0.00    -0.359 OA
ATOM      6  N   UNL     1     -15.382   6.013  13.888  0.00  0.00    -0.083 NA
ATOM     21  C   UNL     1     -15.553   6.897  14.875  0.00  0.00    +0.084 A 
ATOM     22  C   UNL     1     -14.599   7.930  14.838  0.00  0.00    +0.071 A 
ATOM     23  C   UNL     1     -13.825   7.618  13.751  0.00  0.00    +0.148 A 
BRANCH  23  24
ATOM     24  C   UNL     1     -12.656   8.245  13.122  0.00  0.00    +0.151 C 
BRANCH  24   1
ATOM      1  S   UNL     1     -11.065   7.627  13.776  0.00  0.00    -0.117 S 
BRANCH   1  25
ATOM     25  C   UNL     1     -10.832   8.705  15.183  0.00  0.00    +0.008 A 
ATOM     26  C   UNL     1     -10.415   8.177  16.404  0.00  0.00    +0.015 A 
ATOM     27  C   UNL     1     -11.067  10.075  15.058  0.00  0.00    +0.015 A 
ATOM     28  C   UNL     1     -10.234   9.019  17.501  0.00  0.00    +0.001 A 
ATOM     29  C   UNL     1     -10.886  10.916  16.156  0.00  0.00    +0.001 A 
ATOM     30  C   UNL     1     -10.469  10.387  17.377  0.00  0.00    +0.000 A 
ENDBRANCH   1  25
ENDBRANCH  24   1
ENDBRANCH  23  24
ENDBRANCH  13  21
ENDBRANCH   8  13
TORSDOF 8
ENDMDL
MODEL 10
REMARK VINA RESULT:      -5.9     14.890     18.794
REMARK  Name = 26743094
REMARK  8 active torsions:
REMARK  status: ('A' for Active; 'I' for Inactive)
REMARK    1  A    between atoms: S_1  and  C_24
REMARK    2  A    between atoms: S_1  and  C_25
REMARK    3  A    between atoms: N_5  and  C_14
REMARK    4  A    between atoms: C_7  and  C_11
REMARK    5  A    between atoms: C_8  and  C_13
REMARK    6  A    between atoms: C_11  and  C_17
REMARK    7  A    between atoms: C_13  and  C_21
REMARK    8  A    between atoms: C_23  and  C_24
REMARK                            x       y       z     vdW  Elec       q    Type
REMARK                         _______ _______ _______ _____ _____    ______ ____
ROOT
ATOM      4  N   UNL     1      16.757  11.419   4.025  0.00  0.00    -0.316 NA
ATOM      7  C   UNL     1      14.798   9.223   3.810  0.00  0.00    +0.004 C 
ATOM      8  C   UNL     1      15.339   9.731   5.167  0.00  0.00    +0.012 C 
ATOM      9  C   UNL     1      14.920  10.348   2.769  0.00  0.00    +0.019 C 
ATOM     10  C   UNL     1      16.739  10.351   5.025  0.00  0.00    +0.085 C 
ATOM     12  C   UNL     1      16.326  10.942   2.712  0.00  0.00    +0.081 C 
ATOM     31  H   UNL     1      17.700  11.799   3.953  0.00  0.00    +0.122 HD
ENDROOT
BRANCH   7  11
ATOM     11  C   UNL     1      15.475   7.941   3.308  0.00  0.00    +0.099 C 
BRANCH  11  17
ATOM      2  O   UNL     1      13.315   6.852   3.343  0.00  0.00    -0.276 OA
ATOM      5  N   UNL     1      15.031   5.942   2.067  0.00  0.00    -0.312 N 
ATOM     17  C   UNL     1      14.471   6.874   2.929  0.00  0.00    +0.214 C 
ATOM     32  H   UNL     1      15.998   6.052   1.779  0.00  0.00    +0.149 HD
BRANCH   5  14
ATOM     14  C   UNL     1      14.299   4.810   1.544  0.00  0.00    +0.073 C 
ATOM     15  C   UNL     1      13.483   5.204   0.309  0.00  0.00    +0.022 C 
ATOM     16  C   UNL     1      15.240   3.640   1.238  0.00  0.00    +0.022 C 
ATOM     18  C   UNL     1      14.362   5.461  -0.915  0.00  0.00    +0.002 C 
ATOM     19  C   UNL     1      16.116   3.898   0.012  0.00  0.00    +0.002 C 
ATOM     20  C   UNL     1      15.281   4.278  -1.206  0.00  0.00    +0.000 C 
ENDBRANCH   5  14
ENDBRANCH  11  17
ENDBRANCH   7  11
BRANCH   8  13
ATOM     13  C   UNL     1      15.337   8.654   6.254  0.00  0.00    +0.064 C 
BRANCH  13  21
ATOM      3  O   UNL     1      11.843   8.435   7.093  0.00  0.00    -0.359 OA
ATOM      6  N   UNL     1      12.995   9.155   6.799  0.00  0.00    -0.083 NA
ATOM     21  C   UNL     1      13.939   8.232   6.601  0.00  0.00    +0.084 A 
ATOM     22  C   UNL     1      13.447   6.923   6.754  0.00  0.00    +0.071 A 
ATOM     23  C   UNL     1      12.125   7.107   7.062  0.00  0.00    +0.148 A 
BRANCH  23  24
ATOM     24  C   UNL     1      11.012   6.195   7.353  0.00  0.00    +0.151 C 
BRANCH  24   1
ATOM      1  S   UNL     1       9.463   6.650   6.499  0.00  0.00    -0.117 S 
BRANCH   1  25
ATOM     25  C   UNL     1       9.831   6.138   4.826  0.00  0.00    +0.008 A 
ATOM     26  C   UNL     1      10.417   4.894   4.591  0.00  0.00    +0.015 A 
ATOM     27  C   UNL     1       9.533   6.983   3.757  0.00  0.00    +0.015 A 
ATOM     28  C   UNL     1      10.704   4.495   3.286  0.00  0.00    +0.001 A 
ATOM     29  C   UNL     1       9.820   6.583   2.452  0.00  0.00    +0.001 A 
ATOM     30  C   UNL     1      10.406   5.339   2.217  0.00  0.00    +0.000 A 
ENDBRANCH   1  25
ENDBRANCH  24   1
ENDBRANCH  23  24
ENDBRANCH  13  21
ENDBRANCH   8  13
TORSDOF 8
ENDMDL
