MODEL 1
REMARK VINA RESULT:      -7.4      0.000      0.000
REMARK  Name = 45784368
REMARK  13 active torsions:
REMARK  status: ('A' for Active; 'I' for Inactive)
REMARK    1  A    between atoms: O_1  and  C_10
REMARK    2  A    between atoms: O_4  and  C_29
REMARK    3  A    between atoms: O_4  and  C_37
REMARK    4  A    between atoms: N_5  and  C_14
REMARK    5  A    between atoms: N_6  and  C_24
REMARK    6  A    between atoms: C_7  and  C_17
REMARK    7  A    between atoms: C_9  and  C_19
REMARK    8  A    between atoms: C_13  and  C_18
REMARK    9  A    between atoms: C_18  and  C_20
REMARK   10  A    between atoms: C_18  and  C_21
REMARK   11  A    between atoms: C_22  and  C_23
REMARK   12  A    between atoms: C_23  and  C_25
REMARK   13  A    between atoms: C_24  and  C_26
REMARK                            x       y       z     vdW  Elec       q    Type
REMARK                         _______ _______ _______ _____ _____    ______ ____
ROOT
ATOM      7  C   UNL     1      -3.485 -11.014  11.188  0.00  0.00    -0.027 C 
ATOM      8  C   UNL     1      -4.824 -10.449  11.769  0.00  0.00    +0.028 C 
ATOM      9  C   UNL     1      -5.457  -9.395  10.791  0.00  0.00    +0.012 C 
ATOM     10  C   UNL     1      -4.643  -9.973  13.239  0.00  0.00    +0.122 C 
ATOM     11  C   UNL     1      -2.947 -12.127  12.118  0.00  0.00    +0.007 C 
ATOM     12  C   UNL     1      -3.763 -11.649   9.806  0.00  0.00    +0.009 C 
ATOM     13  C   UNL     1      -4.008 -11.056  14.142  0.00  0.00    +0.029 C 
ATOM     14  C   UNL     1      -5.663 -10.023   9.384  0.00  0.00    +0.076 C 
ATOM     15  C   UNL     1      -2.732 -11.653  13.549  0.00  0.00    +0.007 C 
ATOM     16  C   UNL     1      -4.404 -10.680   8.821  0.00  0.00    +0.023 C 
ATOM     17  C   UNL     1      -2.395  -9.922  11.037  0.00  0.00    +0.011 C 
ATOM     19  C   UNL     1      -6.794  -8.820  11.289  0.00  0.00    +0.010 C 
ENDROOT
BRANCH  14   5
ATOM      3  O   UNL     1      -7.873 -10.326   7.565  0.00  0.00    -0.275 OA
ATOM      5  N   UNL     1      -6.138  -9.047   8.426  0.00  0.00    -0.312 N 
ATOM     22  C   UNL     1      -7.217  -9.288   7.589  0.00  0.00    +0.218 C 
ATOM     38  H   UNL     1      -5.612  -8.182   8.334  0.00  0.00    +0.149 HD
BRANCH  22  23
ATOM     23  C   UNL     1      -7.500  -8.097   6.695  0.00  0.00    +0.130 C 
BRANCH  23  25
ATOM     25  C   UNL     1      -8.623  -7.227   7.196  0.00  0.00    -0.039 A 
ATOM     27  C   UNL     1      -8.357  -6.191   8.090  0.00  0.00    +0.004 A 
ATOM     28  C   UNL     1      -9.929  -7.458   6.764  0.00  0.00    +0.004 A 
ATOM     31  C   UNL     1      -9.397  -5.386   8.554  0.00  0.00    +0.000 A 
ATOM     32  C   UNL     1     -10.969  -6.654   7.227  0.00  0.00    +0.000 A 
ATOM     33  C   UNL     1     -10.704  -5.617   8.122  0.00  0.00    +0.000 A 
ENDBRANCH  23  25
ENDBRANCH  22  23
ENDBRANCH  14   5
BRANCH  10   1
ATOM      1  O   UNL     1      -5.920  -9.669  13.802  0.00  0.00    -0.391 OA
ATOM     39  H   UNL     1      -5.956 -10.055  14.695  0.00  0.00    +0.210 HD
ENDBRANCH  10   1
BRANCH  13  18
ATOM     18  C   UNL     1      -3.719 -10.525  15.551  0.00  0.00    +0.077 C 
ATOM     20  C   UNL     1      -2.243 -10.709  15.889  0.00  0.00    +0.017 C 
BRANCH  18  21
ATOM      2  O   UNL     1      -4.886 -12.426  16.495  0.00  0.00    -0.276 OA
ATOM      6  N   UNL     1      -5.073 -10.372  17.555  0.00  0.00    -0.311 N 
ATOM     21  C   UNL     1      -4.614 -11.230  16.566  0.00  0.00    +0.216 C 
ATOM     40  H   UNL     1      -4.759  -9.406  17.575  0.00  0.00    +0.149 HD
BRANCH   6  24
ATOM     24  C   UNL     1      -5.938 -10.807  18.626  0.00  0.00    +0.143 C 
BRANCH  24  26
ATOM     26  C   UNL     1      -7.360 -10.376  18.411  0.00  0.00    +0.011 A 
ATOM     29  C   UNL     1      -8.397 -10.945  19.149  0.00  0.00    +0.125 A 
ATOM     30  C   UNL     1      -7.638  -9.395  17.458  0.00  0.00    +0.009 A 
ATOM     34  C   UNL     1      -9.713 -10.532  18.937  0.00  0.00    +0.046 A 
ATOM     35  C   UNL     1      -8.954  -8.983  17.245  0.00  0.00    +0.001 A 
ATOM     36  C   UNL     1      -9.991  -9.552  17.985  0.00  0.00    +0.004 A 
BRANCH  29   4
ATOM      4  O   UNL     1      -8.143 -11.904  20.083  0.00  0.00    -0.495 OA
ATOM     37  C   UNL     1      -8.595 -13.225  19.793  0.00  0.00    +0.277 C 
ENDBRANCH  29   4
ENDBRANCH  24  26
ENDBRANCH   6  24
ENDBRANCH  18  21
ENDBRANCH  13  18
TORSDOF 9
ENDMDL
MODEL 2
REMARK VINA RESULT:      -7.2      1.331      1.838
REMARK  Name = 45784368
REMARK  13 active torsions:
REMARK  status: ('A' for Active; 'I' for Inactive)
REMARK    1  A    between atoms: O_1  and  C_10
REMARK    2  A    between atoms: O_4  and  C_29
REMARK    3  A    between atoms: O_4  and  C_37
REMARK    4  A    between atoms: N_5  and  C_14
REMARK    5  A    between atoms: N_6  and  C_24
REMARK    6  A    between atoms: C_7  and  C_17
REMARK    7  A    between atoms: C_9  and  C_19
REMARK    8  A    between atoms: C_13  and  C_18
REMARK    9  A    between atoms: C_18  and  C_20
REMARK   10  A    between atoms: C_18  and  C_21
REMARK   11  A    between atoms: C_22  and  C_23
REMARK   12  A    between atoms: C_23  and  C_25
REMARK   13  A    between atoms: C_24  and  C_26
REMARK                            x       y       z     vdW  Elec       q    Type
REMARK                         _______ _______ _______ _____ _____    ______ ____
ROOT
ATOM      7  C   UNL     1      -3.668 -11.006  11.290  0.00  0.00    -0.027 C 
ATOM      8  C   UNL     1      -5.056 -10.454  11.757  0.00  0.00    +0.028 C 
ATOM      9  C   UNL     1      -5.642  -9.449  10.701  0.00  0.00    +0.012 C 
ATOM     10  C   UNL     1      -4.989  -9.925  13.218  0.00  0.00    +0.122 C 
ATOM     11  C   UNL     1      -3.173 -12.075  12.293  0.00  0.00    +0.007 C 
ATOM     12  C   UNL     1      -3.835 -11.693   9.915  0.00  0.00    +0.009 C 
ATOM     13  C   UNL     1      -4.396 -10.963  14.200  0.00  0.00    +0.029 C 
ATOM     14  C   UNL     1      -5.735 -10.128   9.306  0.00  0.00    +0.076 C 
ATOM     15  C   UNL     1      -3.069 -11.549  13.719  0.00  0.00    +0.007 C 
ATOM     16  C   UNL     1      -4.425 -10.774   8.855  0.00  0.00    +0.023 C 
ATOM     17  C   UNL     1      -2.594  -9.895  11.177  0.00  0.00    +0.011 C 
ATOM     19  C   UNL     1      -7.022  -8.889  11.085  0.00  0.00    +0.010 C 
ENDROOT
BRANCH  14   5
ATOM      3  O   UNL     1      -7.615 -10.636   7.186  0.00  0.00    -0.275 OA
ATOM      5  N   UNL     1      -6.162  -9.195   8.283  0.00  0.00    -0.312 N 
ATOM     22  C   UNL     1      -7.078  -9.537   7.300  0.00  0.00    +0.218 C 
ATOM     38  H   UNL     1      -5.719  -8.281   8.265  0.00  0.00    +0.149 HD
BRANCH  22  23
ATOM     23  C   UNL     1      -7.347  -8.371   6.368  0.00  0.00    +0.130 C 
BRANCH  23  25
ATOM     25  C   UNL     1      -8.430  -7.450   6.862  0.00  0.00    -0.039 A 
ATOM     27  C   UNL     1      -8.147  -6.506   7.850  0.00  0.00    +0.004 A 
ATOM     28  C   UNL     1      -9.717  -7.538   6.330  0.00  0.00    +0.004 A 
ATOM     31  C   UNL     1      -9.151  -5.653   8.307  0.00  0.00    +0.000 A 
ATOM     32  C   UNL     1     -10.721  -6.684   6.787  0.00  0.00    +0.000 A 
ATOM     33  C   UNL     1     -10.438  -5.741   7.775  0.00  0.00    +0.000 A 
ENDBRANCH  23  25
ENDBRANCH  22  23
ENDBRANCH  14   5
BRANCH  10   1
ATOM      1  O   UNL     1      -6.308  -9.633  13.681  0.00  0.00    -0.391 OA
ATOM     39  H   UNL     1      -6.890 -10.370  13.423  0.00  0.00    +0.210 HD
ENDBRANCH  10   1
BRANCH  13  18
ATOM     18  C   UNL     1      -4.218 -10.378  15.607  0.00  0.00    +0.077 C 
ATOM     20  C   UNL     1      -2.907 -10.865  16.215  0.00  0.00    +0.017 C 
BRANCH  18  21
ATOM      2  O   UNL     1      -5.552 -11.874  16.966  0.00  0.00    -0.276 OA
ATOM      6  N   UNL     1      -6.295  -9.700  16.655  0.00  0.00    -0.311 N 
ATOM     21  C   UNL     1      -5.410 -10.754  16.481  0.00  0.00    +0.216 C 
ATOM     40  H   UNL     1      -6.079  -8.787  16.265  0.00  0.00    +0.149 HD
BRANCH   6  24
ATOM     24  C   UNL     1      -7.500  -9.813  17.441  0.00  0.00    +0.143 C 
BRANCH  24  26
ATOM     26  C   UNL     1      -8.679  -9.186  16.756  0.00  0.00    +0.011 A 
ATOM     29  C   UNL     1      -9.132  -9.668  15.529  0.00  0.00    +0.125 A 
ATOM     30  C   UNL     1      -9.326  -8.107  17.362  0.00  0.00    +0.009 A 
ATOM     34  C   UNL     1     -10.229  -9.074  14.907  0.00  0.00    +0.046 A 
ATOM     35  C   UNL     1     -10.423  -7.513  16.740  0.00  0.00    +0.001 A 
ATOM     36  C   UNL     1     -10.875  -7.996  15.512  0.00  0.00    +0.004 A 
BRANCH  29   4
ATOM      4  O   UNL     1      -8.512 -10.720  14.923  0.00  0.00    -0.495 OA
ATOM     37  C   UNL     1      -9.190 -11.975  14.953  0.00  0.00    +0.277 C 
ENDBRANCH  29   4
ENDBRANCH  24  26
ENDBRANCH   6  24
ENDBRANCH  18  21
ENDBRANCH  13  18
TORSDOF 9
ENDMDL
MODEL 3
REMARK VINA RESULT:      -7.2     22.963     26.317
REMARK  Name = 45784368
REMARK  13 active torsions:
REMARK  status: ('A' for Active; 'I' for Inactive)
REMARK    1  A    between atoms: O_1  and  C_10
REMARK    2  A    between atoms: O_4  and  C_29
REMARK    3  A    between atoms: O_4  and  C_37
REMARK    4  A    between atoms: N_5  and  C_14
REMARK    5  A    between atoms: N_6  and  C_24
REMARK    6  A    between atoms: C_7  and  C_17
REMARK    7  A    between atoms: C_9  and  C_19
REMARK    8  A    between atoms: C_13  and  C_18
REMARK    9  A    between atoms: C_18  and  C_20
REMARK   10  A    between atoms: C_18  and  C_21
REMARK   11  A    between atoms: C_22  and  C_23
REMARK   12  A    between atoms: C_23  and  C_25
REMARK   13  A    between atoms: C_24  and  C_26
REMARK                            x       y       z     vdW  Elec       q    Type
REMARK                         _______ _______ _______ _____ _____    ______ ____
ROOT
ATOM      7  C   UNL     1      -6.233 -11.384  39.424  0.00  0.00    -0.027 C 
ATOM      8  C   UNL     1      -7.350 -10.393  38.954  0.00  0.00    +0.028 C 
ATOM      9  C   UNL     1      -8.087 -10.947  37.682  0.00  0.00    +0.012 C 
ATOM     10  C   UNL     1      -6.801  -8.944  38.830  0.00  0.00    +0.122 C 
ATOM     11  C   UNL     1      -5.604 -10.866  40.739  0.00  0.00    +0.007 C 
ATOM     12  C   UNL     1      -6.871 -12.761  39.718  0.00  0.00    +0.009 C 
ATOM     13  C   UNL     1      -6.081  -8.468  40.114  0.00  0.00    +0.029 C 
ATOM     14  C   UNL     1      -8.661 -12.363  37.966  0.00  0.00    +0.076 C 
ATOM     15  C   UNL     1      -5.031  -9.461  40.611  0.00  0.00    +0.007 C 
ATOM     16  C   UNL     1      -7.625 -13.337  38.527  0.00  0.00    +0.023 C 
ATOM     17  C   UNL     1      -5.110 -11.557  38.370  0.00  0.00    +0.011 C 
ATOM     19  C   UNL     1      -9.220 -10.034  37.182  0.00  0.00    +0.010 C 
ENDROOT
BRANCH  14   5
ATOM      3  O   UNL     1     -11.032 -13.990  37.841  0.00  0.00    -0.275 OA
ATOM      5  N   UNL     1      -9.247 -12.953  36.780  0.00  0.00    -0.312 N 
ATOM     22  C   UNL     1     -10.398 -13.724  36.823  0.00  0.00    +0.218 C 
ATOM     38  H   UNL     1      -8.750 -12.836  35.901  0.00  0.00    +0.149 HD
BRANCH  22  23
ATOM     23  C   UNL     1     -10.792 -14.207  35.440  0.00  0.00    +0.130 C 
BRANCH  23  25
ATOM     25  C   UNL     1     -11.946 -13.443  34.848  0.00  0.00    -0.039 A 
ATOM     27  C   UNL     1     -12.367 -12.249  35.433  0.00  0.00    +0.004 A 
ATOM     28  C   UNL     1     -12.594 -13.929  33.712  0.00  0.00    +0.004 A 
ATOM     31  C   UNL     1     -13.436 -11.542  34.884  0.00  0.00    +0.000 A 
ATOM     32  C   UNL     1     -13.663 -13.222  33.163  0.00  0.00    +0.000 A 
ATOM     33  C   UNL     1     -14.084 -12.028  33.748  0.00  0.00    +0.000 A 
ENDBRANCH  23  25
ENDBRANCH  22  23
ENDBRANCH  14   5
BRANCH  10   1
ATOM      1  O   UNL     1      -7.885  -8.040  38.613  0.00  0.00    -0.391 OA
ATOM     39  H   UNL     1      -8.504  -8.455  37.986  0.00  0.00    +0.210 HD
ENDBRANCH  10   1
BRANCH  13  18
ATOM     18  C   UNL     1      -5.436  -7.090  39.928  0.00  0.00    +0.077 C 
ATOM     20  C   UNL     1      -3.924  -7.190  40.101  0.00  0.00    +0.017 C 
BRANCH  18  21
ATOM      2  O   UNL     1      -5.392  -5.568  41.812  0.00  0.00    -0.276 OA
ATOM      6  N   UNL     1      -7.389  -5.863  40.671  0.00  0.00    -0.311 N 
ATOM     21  C   UNL     1      -6.043  -6.094  40.912  0.00  0.00    +0.216 C 
ATOM     40  H   UNL     1      -7.843  -6.296  39.873  0.00  0.00    +0.149 HD
BRANCH   6  24
ATOM     24  C   UNL     1      -8.182  -4.960  41.472  0.00  0.00    +0.143 C 
BRANCH  24  26
ATOM     26  C   UNL     1      -9.011  -4.038  40.625  0.00  0.00    +0.011 A 
ATOM     29  C   UNL     1      -9.903  -4.544  39.681  0.00  0.00    +0.125 A 
ATOM     30  C   UNL     1      -8.881  -2.659  40.792  0.00  0.00    +0.009 A 
ATOM     34  C   UNL     1     -10.665  -3.673  38.903  0.00  0.00    +0.046 A 
ATOM     35  C   UNL     1      -9.643  -1.787  40.014  0.00  0.00    +0.001 A 
ATOM     36  C   UNL     1     -10.535  -2.295  39.069  0.00  0.00    +0.004 A 
BRANCH  29   4
ATOM      4  O   UNL     1     -10.042  -5.888  39.505  0.00  0.00    -0.495 OA
ATOM     37  C   UNL     1     -11.077  -6.534  40.244  0.00  0.00    +0.277 C 
ENDBRANCH  29   4
ENDBRANCH  24  26
ENDBRANCH   6  24
ENDBRANCH  18  21
ENDBRANCH  13  18
TORSDOF 9
ENDMDL
MODEL 4
REMARK VINA RESULT:      -7.1      3.212      8.519
REMARK  Name = 45784368
REMARK  13 active torsions:
REMARK  status: ('A' for Active; 'I' for Inactive)
REMARK    1  A    between atoms: O_1  and  C_10
REMARK    2  A    between atoms: O_4  and  C_29
REMARK    3  A    between atoms: O_4  and  C_37
REMARK    4  A    between atoms: N_5  and  C_14
REMARK    5  A    between atoms: N_6  and  C_24
REMARK    6  A    between atoms: C_7  and  C_17
REMARK    7  A    between atoms: C_9  and  C_19
REMARK    8  A    between atoms: C_13  and  C_18
REMARK    9  A    between atoms: C_18  and  C_20
REMARK   10  A    between atoms: C_18  and  C_21
REMARK   11  A    between atoms: C_22  and  C_23
REMARK   12  A    between atoms: C_23  and  C_25
REMARK   13  A    between atoms: C_24  and  C_26
REMARK                            x       y       z     vdW  Elec       q    Type
REMARK                         _______ _______ _______ _____ _____    ______ ____
ROOT
ATOM      7  C   UNL     1      -5.581 -11.549  18.572  0.00  0.00    -0.027 C 
ATOM      8  C   UNL     1      -5.761 -10.587  17.350  0.00  0.00    +0.028 C 
ATOM      9  C   UNL     1      -7.248 -10.601  16.844  0.00  0.00    +0.012 C 
ATOM     10  C   UNL     1      -4.682 -10.851  16.262  0.00  0.00    +0.122 C 
ATOM     11  C   UNL     1      -4.137 -11.428  19.116  0.00  0.00    +0.007 C 
ATOM     12  C   UNL     1      -6.546 -11.118  19.700  0.00  0.00    +0.009 C 
ATOM     13  C   UNL     1      -3.244 -10.831  16.832  0.00  0.00    +0.029 C 
ATOM     14  C   UNL     1      -8.216 -10.239  18.005  0.00  0.00    +0.076 C 
ATOM     15  C   UNL     1      -3.078 -11.723  18.062  0.00  0.00    +0.007 C 
ATOM     16  C   UNL     1      -8.003 -11.086  19.260  0.00  0.00    +0.023 C 
ATOM     17  C   UNL     1      -5.852 -13.031  18.207  0.00  0.00    +0.011 C 
ATOM     19  C   UNL     1      -7.503  -9.653  15.660  0.00  0.00    +0.010 C 
ENDROOT
BRANCH  14   5
ATOM      3  O   UNL     1     -10.106  -8.090  17.698  0.00  0.00    -0.275 OA
ATOM      5  N   UNL     1      -9.602 -10.354  17.604  0.00  0.00    -0.312 N 
ATOM     22  C   UNL     1     -10.437  -9.254  17.484  0.00  0.00    +0.218 C 
ATOM     38  H   UNL     1      -9.977 -11.289  17.469  0.00  0.00    +0.149 HD
BRANCH  22  23
ATOM     23  C   UNL     1     -11.829  -9.662  17.044  0.00  0.00    +0.130 C 
BRANCH  23  25
ATOM     25  C   UNL     1     -12.854  -9.571  18.144  0.00  0.00    -0.039 A 
ATOM     27  C   UNL     1     -12.477  -9.790  19.469  0.00  0.00    +0.004 A 
ATOM     28  C   UNL     1     -14.180  -9.264  17.838  0.00  0.00    +0.004 A 
ATOM     31  C   UNL     1     -13.425  -9.706  20.487  0.00  0.00    +0.000 A 
ATOM     32  C   UNL     1     -15.129  -9.180  18.856  0.00  0.00    +0.000 A 
ATOM     33  C   UNL     1     -14.752  -9.400  20.181  0.00  0.00    +0.000 A 
ENDBRANCH  23  25
ENDBRANCH  22  23
ENDBRANCH  14   5
BRANCH  10   1
ATOM      1  O   UNL     1      -4.742  -9.823  15.272  0.00  0.00    -0.391 OA
ATOM     39  H   UNL     1      -5.217 -10.175  14.499  0.00  0.00    +0.210 HD
ENDBRANCH  10   1
BRANCH  13  18
ATOM     18  C   UNL     1      -2.206 -11.220  15.773  0.00  0.00    +0.077 C 
ATOM     20  C   UNL     1      -1.393  -9.998  15.361  0.00  0.00    +0.017 C 
BRANCH  18  21
ATOM      2  O   UNL     1      -3.620 -12.849  14.670  0.00  0.00    -0.276 OA
ATOM      6  N   UNL     1      -2.625 -11.194  13.386  0.00  0.00    -0.311 N 
ATOM     21  C   UNL     1      -2.901 -11.857  14.573  0.00  0.00    +0.216 C 
ATOM     40  H   UNL     1      -2.064 -10.347  13.397  0.00  0.00    +0.149 HD
BRANCH   6  24
ATOM     24  C   UNL     1      -3.167 -11.610  12.114  0.00  0.00    +0.143 C 
BRANCH  24  26
ATOM     26  C   UNL     1      -3.889 -10.493  11.417  0.00  0.00    +0.011 A 
ATOM     29  C   UNL     1      -5.169 -10.111  11.816  0.00  0.00    +0.125 A 
ATOM     30  C   UNL     1      -3.263  -9.834  10.358  0.00  0.00    +0.009 A 
ATOM     34  C   UNL     1      -5.824  -9.071  11.158  0.00  0.00    +0.046 A 
ATOM     35  C   UNL     1      -3.918  -8.793   9.700  0.00  0.00    +0.001 A 
ATOM     36  C   UNL     1      -5.199  -8.412  10.100  0.00  0.00    +0.004 A 
BRANCH  29   4
ATOM      4  O   UNL     1      -5.794 -10.745  12.848  0.00  0.00    -0.495 OA
ATOM     37  C   UNL     1      -6.907 -11.574  12.519  0.00  0.00    +0.277 C 
ENDBRANCH  29   4
ENDBRANCH  24  26
ENDBRANCH   6  24
ENDBRANCH  18  21
ENDBRANCH  13  18
TORSDOF 9
ENDMDL
MODEL 5
REMARK VINA RESULT:      -7.1     23.696     26.555
REMARK  Name = 45784368
REMARK  13 active torsions:
REMARK  status: ('A' for Active; 'I' for Inactive)
REMARK    1  A    between atoms: O_1  and  C_10
REMARK    2  A    between atoms: O_4  and  C_29
REMARK    3  A    between atoms: O_4  and  C_37
REMARK    4  A    between atoms: N_5  and  C_14
REMARK    5  A    between atoms: N_6  and  C_24
REMARK    6  A    between atoms: C_7  and  C_17
REMARK    7  A    between atoms: C_9  and  C_19
REMARK    8  A    between atoms: C_13  and  C_18
REMARK    9  A    between atoms: C_18  and  C_20
REMARK   10  A    between atoms: C_18  and  C_21
REMARK   11  A    between atoms: C_22  and  C_23
REMARK   12  A    between atoms: C_23  and  C_25
REMARK   13  A    between atoms: C_24  and  C_26
REMARK                            x       y       z     vdW  Elec       q    Type
REMARK                         _______ _______ _______ _____ _____    ______ ____
ROOT
ATOM      7  C   UNL     1       9.763   6.397   6.552  0.00  0.00    -0.027 C 
ATOM      8  C   UNL     1      10.254   7.342   5.404  0.00  0.00    +0.028 C 
ATOM      9  C   UNL     1      11.332   6.624   4.514  0.00  0.00    +0.012 C 
ATOM     10  C   UNL     1      10.664   8.735   5.958  0.00  0.00    +0.122 C 
ATOM     11  C   UNL     1       8.624   7.090   7.339  0.00  0.00    +0.007 C 
ATOM     12  C   UNL     1       9.186   5.105   5.930  0.00  0.00    +0.009 C 
ATOM     13  C   UNL     1       9.561   9.378   6.831  0.00  0.00    +0.029 C 
ATOM     14  C   UNL     1      10.766   5.289   3.955  0.00  0.00    +0.076 C 
ATOM     15  C   UNL     1       9.036   8.438   7.916  0.00  0.00    +0.007 C 
ATOM     16  C   UNL     1      10.178   4.379   5.033  0.00  0.00    +0.023 C 
ATOM     17  C   UNL     1      10.896   6.025   7.542  0.00  0.00    +0.011 C 
ATOM     19  C   UNL     1      11.838   7.488   3.346  0.00  0.00    +0.010 C 
ENDROOT
BRANCH  14   5
ATOM      3  O   UNL     1      10.447   4.021   1.391  0.00  0.00    -0.275 OA
ATOM      5  N   UNL     1      11.770   4.545   3.224  0.00  0.00    -0.312 N 
ATOM     22  C   UNL     1      11.519   3.969   1.989  0.00  0.00    +0.218 C 
ATOM     38  H   UNL     1      12.669   4.397   3.676  0.00  0.00    +0.149 HD
BRANCH  22  23
ATOM     23  C   UNL     1      12.745   3.258   1.450  0.00  0.00    +0.130 C 
BRANCH  23  25
ATOM     25  C   UNL     1      13.110   3.675   0.050  0.00  0.00    -0.039 A 
ATOM     27  C   UNL     1      13.920   4.791  -0.157  0.00  0.00    +0.004 A 
ATOM     28  C   UNL     1      12.639   2.943  -1.040  0.00  0.00    +0.004 A 
ATOM     31  C   UNL     1      14.257   5.177  -1.454  0.00  0.00    +0.000 A 
ATOM     32  C   UNL     1      12.977   3.329  -2.337  0.00  0.00    +0.000 A 
ATOM     33  C   UNL     1      13.786   4.445  -2.544  0.00  0.00    +0.000 A 
ENDBRANCH  23  25
ENDBRANCH  22  23
ENDBRANCH  14   5
BRANCH  10   1
ATOM      1  O   UNL     1      10.898   9.631   4.871  0.00  0.00    -0.391 OA
ATOM     39  H   UNL     1      11.809   9.965   4.944  0.00  0.00    +0.210 HD
ENDBRANCH  10   1
BRANCH  13  18
ATOM     18  C   UNL     1      10.033  10.688   7.473  0.00  0.00    +0.077 C 
ATOM     20  C   UNL     1       9.812  10.643   8.981  0.00  0.00    +0.017 C 
BRANCH  18  21
ATOM      2  O   UNL     1       9.399  13.017   7.270  0.00  0.00    -0.276 OA
ATOM      6  N   UNL     1       8.540  11.497   5.744  0.00  0.00    -0.311 N 
ATOM     21  C   UNL     1       9.305  11.870   6.839  0.00  0.00    +0.216 C 
ATOM     40  H   UNL     1       8.557  10.536   5.416  0.00  0.00    +0.149 HD
BRANCH   6  24
ATOM     24  C   UNL     1       7.758  12.440   4.980  0.00  0.00    +0.143 C 
BRANCH  24  26
ATOM     26  C   UNL     1       6.648  11.769   4.224  0.00  0.00    +0.011 A 
ATOM     29  C   UNL     1       6.900  10.654   3.426  0.00  0.00    +0.125 A 
ATOM     30  C   UNL     1       5.351  12.273   4.328  0.00  0.00    +0.009 A 
ATOM     34  C   UNL     1       5.857  10.042   2.732  0.00  0.00    +0.046 A 
ATOM     35  C   UNL     1       4.307  11.662   3.634  0.00  0.00    +0.001 A 
ATOM     36  C   UNL     1       4.560  10.546   2.836  0.00  0.00    +0.004 A 
BRANCH  29   4
ATOM      4  O   UNL     1       8.161  10.149   3.313  0.00  0.00    -0.495 OA
ATOM     37  C   UNL     1       8.299   8.896   2.646  0.00  0.00    +0.277 C 
ENDBRANCH  29   4
ENDBRANCH  24  26
ENDBRANCH   6  24
ENDBRANCH  18  21
ENDBRANCH  13  18
TORSDOF 9
ENDMDL
MODEL 6
REMARK VINA RESULT:      -7.0     27.646     31.307
REMARK  Name = 45784368
REMARK  13 active torsions:
REMARK  status: ('A' for Active; 'I' for Inactive)
REMARK    1  A    between atoms: O_1  and  C_10
REMARK    2  A    between atoms: O_4  and  C_29
REMARK    3  A    between atoms: O_4  and  C_37
REMARK    4  A    between atoms: N_5  and  C_14
REMARK    5  A    between atoms: N_6  and  C_24
REMARK    6  A    between atoms: C_7  and  C_17
REMARK    7  A    between atoms: C_9  and  C_19
REMARK    8  A    between atoms: C_13  and  C_18
REMARK    9  A    between atoms: C_18  and  C_20
REMARK   10  A    between atoms: C_18  and  C_21
REMARK   11  A    between atoms: C_22  and  C_23
REMARK   12  A    between atoms: C_23  and  C_25
REMARK   13  A    between atoms: C_24  and  C_26
REMARK                            x       y       z     vdW  Elec       q    Type
REMARK                         _______ _______ _______ _____ _____    ______ ____
ROOT
ATOM      7  C   UNL     1      15.963   9.666  21.514  0.00  0.00    -0.027 C 
ATOM      8  C   UNL     1      15.853   8.107  21.422  0.00  0.00    +0.028 C 
ATOM      9  C   UNL     1      17.110   7.500  20.702  0.00  0.00    +0.012 C 
ATOM     10  C   UNL     1      14.476   7.673  20.844  0.00  0.00    +0.122 C 
ATOM     11  C   UNL     1      14.768  10.221  22.326  0.00  0.00    +0.007 C 
ATOM     12  C   UNL     1      17.259  10.037  22.271  0.00  0.00    +0.009 C 
ATOM     13  C   UNL     1      13.286   8.315  21.595  0.00  0.00    +0.029 C 
ATOM     14  C   UNL     1      18.412   7.941  21.429  0.00  0.00    +0.076 C 
ATOM     15  C   UNL     1      13.418   9.830  21.739  0.00  0.00    +0.007 C 
ATOM     16  C   UNL     1      18.512   9.452  21.634  0.00  0.00    +0.023 C 
ATOM     17  C   UNL     1      15.975  10.344  20.121  0.00  0.00    +0.011 C 
ATOM     19  C   UNL     1      17.081   5.966  20.604  0.00  0.00    +0.010 C 
ENDROOT
BRANCH  14   5
ATOM      3  O   UNL     1      20.954   7.257  22.593  0.00  0.00    -0.275 OA
ATOM      5  N   UNL     1      19.596   7.495  20.725  0.00  0.00    -0.312 N 
ATOM     22  C   UNL     1      20.779   7.187  21.379  0.00  0.00    +0.218 C 
ATOM     38  H   UNL     1      19.560   7.471  19.710  0.00  0.00    +0.149 HD
BRANCH  22  23
ATOM     23  C   UNL     1      21.851   6.742  20.403  0.00  0.00    +0.130 C 
BRANCH  23  25
ATOM     25  C   UNL     1      22.319   5.330  20.634  0.00  0.00    -0.039 A 
ATOM     27  C   UNL     1      21.400   4.335  20.965  0.00  0.00    +0.004 A 
ATOM     28  C   UNL     1      23.674   5.017  20.515  0.00  0.00    +0.004 A 
ATOM     31  C   UNL     1      21.835   3.027  21.179  0.00  0.00    +0.000 A 
ATOM     32  C   UNL     1      24.108   3.709  20.728  0.00  0.00    +0.000 A 
ATOM     33  C   UNL     1      23.189   2.714  21.060  0.00  0.00    +0.000 A 
ENDBRANCH  23  25
ENDBRANCH  22  23
ENDBRANCH  14   5
BRANCH  10   1
ATOM      1  O   UNL     1      14.328   6.259  20.976  0.00  0.00    -0.391 OA
ATOM     39  H   UNL     1      14.952   5.951  21.657  0.00  0.00    +0.210 HD
ENDBRANCH  10   1
BRANCH  13  18
ATOM     18  C   UNL     1      11.946   7.979  20.930  0.00  0.00    +0.077 C 
ATOM     20  C   UNL     1      11.332   6.743  21.580  0.00  0.00    +0.017 C 
BRANCH  18  21
ATOM      2  O   UNL     1      12.385   6.679  18.934  0.00  0.00    -0.276 OA
ATOM      6  N   UNL     1      12.026   8.960  18.715  0.00  0.00    -0.311 N 
ATOM     21  C   UNL     1      12.144   7.777  19.431  0.00  0.00    +0.216 C 
ATOM     40  H   UNL     1      11.772   9.819  19.194  0.00  0.00    +0.149 HD
BRANCH   6  24
ATOM     24  C   UNL     1      12.175   9.023  17.281  0.00  0.00    +0.143 C 
BRANCH  24  26
ATOM     26  C   UNL     1      13.313   9.913  16.873  0.00  0.00    +0.011 A 
ATOM     29  C   UNL     1      13.625  11.056  17.608  0.00  0.00    +0.125 A 
ATOM     30  C   UNL     1      14.064   9.586  15.743  0.00  0.00    +0.009 A 
ATOM     34  C   UNL     1      14.686  11.872  17.216  0.00  0.00    +0.046 A 
ATOM     35  C   UNL     1      15.125  10.402  15.349  0.00  0.00    +0.001 A 
ATOM     36  C   UNL     1      15.435  11.545  16.086  0.00  0.00    +0.004 A 
BRANCH  29   4
ATOM      4  O   UNL     1      12.902  11.390  18.714  0.00  0.00    -0.495 OA
ATOM     37  C   UNL     1      13.165  12.665  19.299  0.00  0.00    +0.277 C 
ENDBRANCH  29   4
ENDBRANCH  24  26
ENDBRANCH   6  24
ENDBRANCH  18  21
ENDBRANCH  13  18
TORSDOF 9
ENDMDL
MODEL 7
REMARK VINA RESULT:      -7.0     25.153     28.727
REMARK  Name = 45784368
REMARK  13 active torsions:
REMARK  status: ('A' for Active; 'I' for Inactive)
REMARK    1  A    between atoms: O_1  and  C_10
REMARK    2  A    between atoms: O_4  and  C_29
REMARK    3  A    between atoms: O_4  and  C_37
REMARK    4  A    between atoms: N_5  and  C_14
REMARK    5  A    between atoms: N_6  and  C_24
REMARK    6  A    between atoms: C_7  and  C_17
REMARK    7  A    between atoms: C_9  and  C_19
REMARK    8  A    between atoms: C_13  and  C_18
REMARK    9  A    between atoms: C_18  and  C_20
REMARK   10  A    between atoms: C_18  and  C_21
REMARK   11  A    between atoms: C_22  and  C_23
REMARK   12  A    between atoms: C_23  and  C_25
REMARK   13  A    between atoms: C_24  and  C_26
REMARK                            x       y       z     vdW  Elec       q    Type
REMARK                         _______ _______ _______ _____ _____    ______ ____
ROOT
ATOM      7  C   UNL     1      11.633   9.665   6.988  0.00  0.00    -0.027 C 
ATOM      8  C   UNL     1      12.466   8.351   7.166  0.00  0.00    +0.028 C 
ATOM      9  C   UNL     1      13.766   8.391   6.285  0.00  0.00    +0.012 C 
ATOM     10  C   UNL     1      11.574   7.090   6.985  0.00  0.00    +0.122 C 
ATOM     11  C   UNL     1      10.423   9.643   7.951  0.00  0.00    +0.007 C 
ATOM     12  C   UNL     1      12.515  10.876   7.369  0.00  0.00    +0.009 C 
ATOM     13  C   UNL     1      10.309   7.123   7.875  0.00  0.00    +0.029 C 
ATOM     14  C   UNL     1      14.608   9.653   6.624  0.00  0.00    +0.076 C 
ATOM     15  C   UNL     1       9.525   8.429   7.750  0.00  0.00    +0.007 C 
ATOM     16  C   UNL     1      13.806  10.952   6.565  0.00  0.00    +0.023 C 
ATOM     17  C   UNL     1      11.114   9.848   5.540  0.00  0.00    +0.011 C 
ATOM     19  C   UNL     1      14.648   7.139   6.435  0.00  0.00    +0.010 C 
ENDROOT
BRANCH  14   5
ATOM      3  O   UNL     1      17.006  11.158   7.141  0.00  0.00    -0.275 OA
ATOM      5  N   UNL     1      15.756   9.783   5.751  0.00  0.00    -0.312 N 
ATOM     22  C   UNL     1      16.869  10.534   6.091  0.00  0.00    +0.218 C 
ATOM     38  H   UNL     1      15.700   9.350   4.833  0.00  0.00    +0.149 HD
BRANCH  22  23
ATOM     23  C   UNL     1      17.920  10.491   4.999  0.00  0.00    +0.130 C 
BRANCH  23  25
ATOM     25  C   UNL     1      18.928   9.387   5.183  0.00  0.00    -0.039 A 
ATOM     27  C   UNL     1      19.629   9.275   6.383  0.00  0.00    +0.004 A 
ATOM     28  C   UNL     1      19.158   8.474   4.153  0.00  0.00    +0.004 A 
ATOM     31  C   UNL     1      20.562   8.253   6.553  0.00  0.00    +0.000 A 
ATOM     32  C   UNL     1      20.091   7.452   4.323  0.00  0.00    +0.000 A 
ATOM     33  C   UNL     1      20.793   7.341   5.523  0.00  0.00    +0.000 A 
ENDBRANCH  23  25
ENDBRANCH  22  23
ENDBRANCH  14   5
BRANCH  10   1
ATOM      1  O   UNL     1      12.310   5.927   7.365  0.00  0.00    -0.391 OA
ATOM     39  H   UNL     1      13.235   6.050   7.089  0.00  0.00    +0.210 HD
ENDBRANCH  10   1
BRANCH  13  18
ATOM     18  C   UNL     1       9.380   5.938   7.588  0.00  0.00    +0.077 C 
ATOM     20  C   UNL     1       9.925   4.673   8.243  0.00  0.00    +0.017 C 
BRANCH  18  21
ATOM      2  O   UNL     1       8.295   6.267   5.448  0.00  0.00    -0.276 OA
ATOM      6  N   UNL     1      10.211   4.965   5.530  0.00  0.00    -0.311 N 
ATOM     21  C   UNL     1       9.216   5.758   6.082  0.00  0.00    +0.216 C 
ATOM     40  H   UNL     1      10.970   4.624   6.114  0.00  0.00    +0.149 HD
BRANCH   6  24
ATOM     24  C   UNL     1      10.268   4.649   4.123  0.00  0.00    +0.143 C 
BRANCH  24  26
ATOM     26  C   UNL     1      11.289   5.481   3.401  0.00  0.00    +0.011 A 
ATOM     29  C   UNL     1      12.183   4.895   2.505  0.00  0.00    +0.125 A 
ATOM     30  C   UNL     1      11.338   6.855   3.636  0.00  0.00    +0.009 A 
ATOM     34  C   UNL     1      13.124   5.682   1.842  0.00  0.00    +0.046 A 
ATOM     35  C   UNL     1      12.280   7.643   2.974  0.00  0.00    +0.001 A 
ATOM     36  C   UNL     1      13.173   7.056   2.077  0.00  0.00    +0.004 A 
BRANCH  29   4
ATOM      4  O   UNL     1      12.149   3.554   2.264  0.00  0.00    -0.495 OA
ATOM     37  C   UNL     1      13.111   3.037   1.348  0.00  0.00    +0.277 C 
ENDBRANCH  29   4
ENDBRANCH  24  26
ENDBRANCH   6  24
ENDBRANCH  18  21
ENDBRANCH  13  18
TORSDOF 9
ENDMDL
MODEL 8
REMARK VINA RESULT:      -7.0     22.511     26.710
REMARK  Name = 45784368
REMARK  13 active torsions:
REMARK  status: ('A' for Active; 'I' for Inactive)
REMARK    1  A    between atoms: O_1  and  C_10
REMARK    2  A    between atoms: O_4  and  C_29
REMARK    3  A    between atoms: O_4  and  C_37
REMARK    4  A    between atoms: N_5  and  C_14
REMARK    5  A    between atoms: N_6  and  C_24
REMARK    6  A    between atoms: C_7  and  C_17
REMARK    7  A    between atoms: C_9  and  C_19
REMARK    8  A    between atoms: C_13  and  C_18
REMARK    9  A    between atoms: C_18  and  C_20
REMARK   10  A    between atoms: C_18  and  C_21
REMARK   11  A    between atoms: C_22  and  C_23
REMARK   12  A    between atoms: C_23  and  C_25
REMARK   13  A    between atoms: C_24  and  C_26
REMARK                            x       y       z     vdW  Elec       q    Type
REMARK                         _______ _______ _______ _____ _____    ______ ____
ROOT
ATOM      7  C   UNL     1       3.236   6.640  -5.184  0.00  0.00    -0.027 C 
ATOM      8  C   UNL     1       1.926   6.876  -6.008  0.00  0.00    +0.028 C 
ATOM      9  C   UNL     1       1.570   5.610  -6.866  0.00  0.00    +0.012 C 
ATOM     10  C   UNL     1       1.987   8.219  -6.790  0.00  0.00    +0.122 C 
ATOM     11  C   UNL     1       3.496   7.858  -4.266  0.00  0.00    +0.007 C 
ATOM     12  C   UNL     1       3.046   5.401  -4.278  0.00  0.00    +0.009 C 
ATOM     13  C   UNL     1       2.350   9.419  -5.885  0.00  0.00    +0.029 C 
ATOM     14  C   UNL     1       1.455   4.356  -5.954  0.00  0.00    +0.076 C 
ATOM     15  C   UNL     1       3.595   9.170  -5.034  0.00  0.00    +0.007 C 
ATOM     16  C   UNL     1       2.672   4.146  -5.054  0.00  0.00    +0.023 C 
ATOM     17  C   UNL     1       4.476   6.425  -6.088  0.00  0.00    +0.011 C 
ATOM     19  C   UNL     1       0.275   5.763  -7.680  0.00  0.00    +0.010 C 
ENDROOT
BRANCH  14   5
ATOM      3  O   UNL     1       0.025   2.003  -5.115  0.00  0.00    -0.275 OA
ATOM      5  N   UNL     1       1.242   3.149  -6.726  0.00  0.00    -0.312 N 
ATOM     22  C   UNL     1       0.536   2.065  -6.231  0.00  0.00    +0.218 C 
ATOM     38  H   UNL     1       1.686   3.089  -7.638  0.00  0.00    +0.149 HD
BRANCH  22  23
ATOM     23  C   UNL     1       0.460   0.943  -7.249  0.00  0.00    +0.130 C 
BRANCH  23  25
ATOM     25  C   UNL     1      -0.885   0.267  -7.295  0.00  0.00    -0.039 A 
ATOM     27  C   UNL     1      -1.916   0.817  -8.056  0.00  0.00    +0.004 A 
ATOM     28  C   UNL     1      -1.098  -0.910  -6.576  0.00  0.00    +0.004 A 
ATOM     31  C   UNL     1      -3.162   0.191  -8.097  0.00  0.00    +0.000 A 
ATOM     32  C   UNL     1      -2.343  -1.536  -6.618  0.00  0.00    +0.000 A 
ATOM     33  C   UNL     1      -3.375  -0.986  -7.379  0.00  0.00    +0.000 A 
ENDBRANCH  23  25
ENDBRANCH  22  23
ENDBRANCH  14   5
BRANCH  10   1
ATOM      1  O   UNL     1       0.705   8.504  -7.350  0.00  0.00    -0.391 OA
ATOM     39  H   UNL     1       0.275   7.658  -7.569  0.00  0.00    +0.210 HD
ENDBRANCH  10   1
BRANCH  13  18
ATOM     18  C   UNL     1       2.533  10.708  -6.695  0.00  0.00    +0.077 C 
ATOM     20  C   UNL     1       3.995  11.141  -6.671  0.00  0.00    +0.017 C 
BRANCH  18  21
ATOM      2  O   UNL     1       1.979  12.972  -6.036  0.00  0.00    -0.276 OA
ATOM      6  N   UNL     1       0.369  11.321  -5.793  0.00  0.00    -0.311 N 
ATOM     21  C   UNL     1       1.621  11.802  -6.146  0.00  0.00    +0.216 C 
ATOM     40  H   UNL     1       0.132  10.349  -5.965  0.00  0.00    +0.149 HD
BRANCH   6  24
ATOM     24  C   UNL     1      -0.667  12.167  -5.248  0.00  0.00    +0.143 C 
BRANCH  24  26
ATOM     26  C   UNL     1      -1.542  11.429  -4.276  0.00  0.00    +0.011 A 
ATOM     29  C   UNL     1      -0.985  10.691  -3.232  0.00  0.00    +0.125 A 
ATOM     30  C   UNL     1      -2.928  11.487  -4.426  0.00  0.00    +0.009 A 
ATOM     34  C   UNL     1      -1.812  10.012  -2.337  0.00  0.00    +0.046 A 
ATOM     35  C   UNL     1      -3.756  10.808  -3.532  0.00  0.00    +0.001 A 
ATOM     36  C   UNL     1      -3.197  10.070  -2.488  0.00  0.00    +0.004 A 
BRANCH  29   4
ATOM      4  O   UNL     1       0.367  10.624  -3.071  0.00  0.00    -0.495 OA
ATOM     37  C   UNL     1       0.902  11.152  -1.859  0.00  0.00    +0.277 C 
ENDBRANCH  29   4
ENDBRANCH  24  26
ENDBRANCH   6  24
ENDBRANCH  18  21
ENDBRANCH  13  18
TORSDOF 9
ENDMDL
MODEL 9
REMARK VINA RESULT:      -7.0      1.453      2.108
REMARK  Name = 45784368
REMARK  13 active torsions:
REMARK  status: ('A' for Active; 'I' for Inactive)
REMARK    1  A    between atoms: O_1  and  C_10
REMARK    2  A    between atoms: O_4  and  C_29
REMARK    3  A    between atoms: O_4  and  C_37
REMARK    4  A    between atoms: N_5  and  C_14
REMARK    5  A    between atoms: N_6  and  C_24
REMARK    6  A    between atoms: C_7  and  C_17
REMARK    7  A    between atoms: C_9  and  C_19
REMARK    8  A    between atoms: C_13  and  C_18
REMARK    9  A    between atoms: C_18  and  C_20
REMARK   10  A    between atoms: C_18  and  C_21
REMARK   11  A    between atoms: C_22  and  C_23
REMARK   12  A    between atoms: C_23  and  C_25
REMARK   13  A    between atoms: C_24  and  C_26
REMARK                            x       y       z     vdW  Elec       q    Type
REMARK                         _______ _______ _______ _____ _____    ______ ____
ROOT
ATOM      7  C   UNL     1      -4.049 -10.474  10.044  0.00  0.00    -0.027 C 
ATOM      8  C   UNL     1      -5.389 -10.180  10.798  0.00  0.00    +0.028 C 
ATOM      9  C   UNL     1      -6.225  -9.084  10.044  0.00  0.00    +0.012 C 
ATOM     10  C   UNL     1      -5.137  -9.907  12.308  0.00  0.00    +0.122 C 
ATOM     11  C   UNL     1      -3.305 -11.634  10.747  0.00  0.00    +0.007 C 
ATOM     12  C   UNL     1      -4.371 -10.929   8.601  0.00  0.00    +0.009 C 
ATOM     13  C   UNL     1      -4.302 -11.020  12.983  0.00  0.00    +0.029 C 
ATOM     14  C   UNL     1      -6.479  -9.518   8.573  0.00  0.00    +0.076 C 
ATOM     15  C   UNL     1      -3.022 -11.353  12.218  0.00  0.00    +0.007 C 
ATOM     16  C   UNL     1      -5.205  -9.917   7.828  0.00  0.00    +0.023 C 
ATOM     17  C   UNL     1      -3.112  -9.241   9.992  0.00  0.00    +0.011 C 
ATOM     19  C   UNL     1      -7.570  -8.766  10.717  0.00  0.00    +0.010 C 
ENDROOT
BRANCH  14   5
ATOM      3  O   UNL     1      -8.543  -9.882   6.600  0.00  0.00    -0.275 OA
ATOM      5  N   UNL     1      -7.147  -8.481   7.815  0.00  0.00    -0.312 N 
ATOM     22  C   UNL     1      -8.134  -8.758   6.883  0.00  0.00    +0.218 C 
ATOM     38  H   UNL     1      -6.825  -7.525   7.939  0.00  0.00    +0.149 HD
BRANCH  22  23
ATOM     23  C   UNL     1      -8.664  -7.489   6.244  0.00  0.00    +0.130 C 
BRANCH  23  25
ATOM     25  C   UNL     1      -9.620  -6.731   7.127  0.00  0.00    -0.039 A 
ATOM     27  C   UNL     1      -9.135  -5.777   8.023  0.00  0.00    +0.004 A 
ATOM     28  C   UNL     1     -10.990  -6.981   7.048  0.00  0.00    +0.004 A 
ATOM     31  C   UNL     1     -10.020  -5.075   8.840  0.00  0.00    +0.000 A 
ATOM     32  C   UNL     1     -11.875  -6.279   7.866  0.00  0.00    +0.000 A 
ATOM     33  C   UNL     1     -11.391  -5.325   8.761  0.00  0.00    +0.000 A 
ENDBRANCH  23  25
ENDBRANCH  22  23
ENDBRANCH  14   5
BRANCH  10   1
ATOM      1  O   UNL     1      -6.386  -9.858  12.999  0.00  0.00    -0.391 OA
ATOM     39  H   UNL     1      -7.092  -9.737  12.340  0.00  0.00    +0.210 HD
ENDBRANCH  10   1
BRANCH  13  18
ATOM     18  C   UNL     1      -3.955 -10.670  14.435  0.00  0.00    +0.077 C 
ATOM     20  C   UNL     1      -2.442 -10.671  14.627  0.00  0.00    +0.017 C 
BRANCH  18  21
ATOM      2  O   UNL     1      -4.073 -12.124  16.369  0.00  0.00    -0.276 OA
ATOM      6  N   UNL     1      -5.940 -11.939  15.005  0.00  0.00    -0.311 N 
ATOM     21  C   UNL     1      -4.636 -11.651  15.384  0.00  0.00    +0.216 C 
ATOM     40  H   UNL     1      -6.352 -11.465  14.207  0.00  0.00    +0.149 HD
BRANCH   6  24
ATOM     24  C   UNL     1      -6.787 -12.843  15.746  0.00  0.00    +0.143 C 
BRANCH  24  26
ATOM     26  C   UNL     1      -7.343 -12.204  16.986  0.00  0.00    +0.011 A 
ATOM     29  C   UNL     1      -7.966 -10.958  16.929  0.00  0.00    +0.125 A 
ATOM     30  C   UNL     1      -7.230 -12.872  18.206  0.00  0.00    +0.009 A 
ATOM     34  C   UNL     1      -8.478 -10.380  18.090  0.00  0.00    +0.046 A 
ATOM     35  C   UNL     1      -7.741 -12.293  19.368  0.00  0.00    +0.001 A 
ATOM     36  C   UNL     1      -8.365 -11.047  19.309  0.00  0.00    +0.004 A 
BRANCH  29   4
ATOM      4  O   UNL     1      -8.084 -10.292  15.746  0.00  0.00    -0.495 OA
ATOM     37  C   UNL     1      -9.406  -9.998  15.298  0.00  0.00    +0.277 C 
ENDBRANCH  29   4
ENDBRANCH  24  26
ENDBRANCH   6  24
ENDBRANCH  18  21
ENDBRANCH  13  18
TORSDOF 9
ENDMDL
MODEL 10
REMARK VINA RESULT:      -6.9     29.153     32.418
REMARK  Name = 45784368
REMARK  13 active torsions:
REMARK  status: ('A' for Active; 'I' for Inactive)
REMARK    1  A    between atoms: O_1  and  C_10
REMARK    2  A    between atoms: O_4  and  C_29
REMARK    3  A    between atoms: O_4  and  C_37
REMARK    4  A    between atoms: N_5  and  C_14
REMARK    5  A    between atoms: N_6  and  C_24
REMARK    6  A    between atoms: C_7  and  C_17
REMARK    7  A    between atoms: C_9  and  C_19
REMARK    8  A    between atoms: C_13  and  C_18
REMARK    9  A    between atoms: C_18  and  C_20
REMARK   10  A    between atoms: C_18  and  C_21
REMARK   11  A    between atoms: C_22  and  C_23
REMARK   12  A    between atoms: C_23  and  C_25
REMARK   13  A    between atoms: C_24  and  C_26
REMARK                            x       y       z     vdW  Elec       q    Type
REMARK                         _______ _______ _______ _____ _____    ______ ____
ROOT
ATOM      7  C   UNL     1      19.264   9.874  21.393  0.00  0.00    -0.027 C 
ATOM      8  C   UNL     1      18.343   8.659  21.041  0.00  0.00    +0.028 C 
ATOM      9  C   UNL     1      16.832   9.014  21.289  0.00  0.00    +0.012 C 
ATOM     10  C   UNL     1      18.844   7.356  21.723  0.00  0.00    +0.122 C 
ATOM     11  C   UNL     1      20.730   9.533  21.032  0.00  0.00    +0.007 C 
ATOM     12  C   UNL     1      18.841  11.093  20.541  0.00  0.00    +0.009 C 
ATOM     13  C   UNL     1      20.339   7.074  21.444  0.00  0.00    +0.029 C 
ATOM     14  C   UNL     1      16.439  10.284  20.484  0.00  0.00    +0.076 C 
ATOM     15  C   UNL     1      21.236   8.277  21.730  0.00  0.00    +0.007 C 
ATOM     16  C   UNL     1      17.377  11.468  20.719  0.00  0.00    +0.023 C 
ATOM     17  C   UNL     1      19.198  10.255  22.894  0.00  0.00    +0.011 C 
ATOM     19  C   UNL     1      15.867   7.871  20.934  0.00  0.00    +0.010 C 
ENDROOT
BRANCH  14   5
ATOM      3  O   UNL     1      14.360  10.861  18.579  0.00  0.00    -0.275 OA
ATOM      5  N   UNL     1      15.085  10.707  20.778  0.00  0.00    -0.312 N 
ATOM     22  C   UNL     1      14.152  10.962  19.786  0.00  0.00    +0.218 C 
ATOM     38  H   UNL     1      14.846  10.878  21.751  0.00  0.00    +0.149 HD
BRANCH  22  23
ATOM     23  C   UNL     1      12.819  11.381  20.374  0.00  0.00    +0.130 C 
BRANCH  23  25
ATOM     25  C   UNL     1      12.027  10.231  20.938  0.00  0.00    -0.039 A 
ATOM     27  C   UNL     1      11.750   9.119  20.143  0.00  0.00    +0.004 A 
ATOM     28  C   UNL     1      11.572  10.277  22.256  0.00  0.00    +0.004 A 
ATOM     31  C   UNL     1      11.016   8.054  20.665  0.00  0.00    +0.000 A 
ATOM     32  C   UNL     1      10.838   9.213  22.778  0.00  0.00    +0.000 A 
ATOM     33  C   UNL     1      10.561   8.100  21.983  0.00  0.00    +0.000 A 
ENDBRANCH  23  25
ENDBRANCH  22  23
ENDBRANCH  14   5
BRANCH  10   1
ATOM      1  O   UNL     1      18.116   6.238  21.211  0.00  0.00    -0.391 OA
ATOM     39  H   UNL     1      17.237   6.551  20.936  0.00  0.00    +0.210 HD
ENDBRANCH  10   1
BRANCH  13  18
ATOM     18  C   UNL     1      20.847   5.859  22.229  0.00  0.00    +0.077 C 
ATOM     20  C   UNL     1      22.077   6.238  23.046  0.00  0.00    +0.017 C 
BRANCH  18  21
ATOM      2  O   UNL     1      20.524   4.534  20.227  0.00  0.00    -0.276 OA
ATOM      6  N   UNL     1      22.185   3.904  21.717  0.00  0.00    -0.311 N 
ATOM     21  C   UNL     1      21.147   4.709  21.272  0.00  0.00    +0.216 C 
ATOM     40  H   UNL     1      22.687   4.147  22.567  0.00  0.00    +0.149 HD
BRANCH   6  24
ATOM     24  C   UNL     1      22.651   2.751  20.983  0.00  0.00    +0.143 C 
BRANCH  24  26
ATOM     26  C   UNL     1      24.044   2.358  21.379  0.00  0.00    +0.011 A 
ATOM     29  C   UNL     1      25.077   3.294  21.380  0.00  0.00    +0.125 A 
ATOM     30  C   UNL     1      24.301   1.037  21.748  0.00  0.00    +0.009 A 
ATOM     34  C   UNL     1      26.366   2.912  21.751  0.00  0.00    +0.046 A 
ATOM     35  C   UNL     1      25.589   0.653  22.119  0.00  0.00    +0.001 A 
ATOM     36  C   UNL     1      26.622   1.591  22.120  0.00  0.00    +0.004 A 
BRANCH  29   4
ATOM      4  O   UNL     1      24.845   4.588  21.021  0.00  0.00    -0.495 OA
ATOM     37  C   UNL     1      25.401   5.027  19.784  0.00  0.00    +0.277 C 
ENDBRANCH  29   4
ENDBRANCH  24  26
ENDBRANCH   6  24
ENDBRANCH  18  21
ENDBRANCH  13  18
TORSDOF 9
ENDMDL
