MODEL 1
REMARK VINA RESULT:      -6.7      0.000      0.000
REMARK  Name = 11882965
REMARK  12 active torsions:
REMARK  status: ('A' for Active; 'I' for Inactive)
REMARK    1  A    between atoms: O_2  and  C_15
REMARK    2  A    between atoms: O_3  and  C_20
REMARK    3  A    between atoms: O_6  and  C_34
REMARK    4  A    between atoms: O_6  and  C_35
REMARK    5  A    between atoms: N_8  and  C_28
REMARK    6  A    between atoms: C_10  and  C_18
REMARK    7  A    between atoms: C_12  and  C_20
REMARK    8  A    between atoms: C_12  and  C_21
REMARK    9  A    between atoms: C_13  and  C_23
REMARK   10  A    between atoms: C_23  and  C_24
REMARK   11  A    between atoms: C_26  and  C_27
REMARK   12  A    between atoms: C_28  and  C_34
REMARK                            x       y       z     vdW  Elec       q    Type
REMARK                         _______ _______ _______ _____ _____    ______ ____
ROOT
ATOM      1  S   UNL     1      17.962   6.294  20.122  0.00  0.00    -0.057 S 
ATOM      5  O   UNL     1      20.786   8.778  22.886  0.00  0.00    -0.275 OA
ATOM      7  N   UNL     1      18.145   8.436  21.562  0.00  0.00    -0.229 NA
ATOM      9  N   UNL     1      20.091   7.017  21.473  0.00  0.00    -0.264 N 
ATOM     10  C   UNL     1      14.667   9.460  20.250  0.00  0.00    -0.019 C 
ATOM     11  C   UNL     1      14.190   7.947  20.104  0.00  0.00    +0.011 C 
ATOM     12  C   UNL     1      12.775   7.703  19.452  0.00  0.00    +0.021 C 
ATOM     13  C   UNL     1      15.872   9.497  21.299  0.00  0.00    +0.054 C 
ATOM     14  C   UNL     1      13.502  10.315  20.813  0.00  0.00    +0.010 C 
ATOM     15  C   UNL     1      11.740   8.668  20.095  0.00  0.00    +0.123 C 
ATOM     16  C   UNL     1      15.317   7.051  19.511  0.00  0.00    +0.049 C 
ATOM     17  C   UNL     1      12.185  10.127  20.074  0.00  0.00    +0.032 C 
ATOM     18  C   UNL     1      15.133  10.077  18.908  0.00  0.00    +0.012 C 
ATOM     19  C   UNL     1      16.879   8.416  21.005  0.00  0.00    +0.058 A 
ATOM     21  C   UNL     1      12.315   6.253  19.769  0.00  0.00    +0.016 C 
ATOM     22  C   UNL     1      16.604   7.319  20.216  0.00  0.00    +0.015 A 
ATOM     25  C   UNL     1      18.805   7.372  21.159  0.00  0.00    +0.165 A 
ATOM     26  C   UNL     1      20.984   7.721  22.297  0.00  0.00    +0.222 C 
ATOM     39  H   UNL     1      20.404   6.144  21.054  0.00  0.00    +0.157 HD
ENDROOT
BRANCH  26  27
ATOM     27  C   UNL     1      22.306   7.022  22.408  0.00  0.00    +0.075 C 
ATOM     29  C   UNL     1      22.189   5.833  23.363  0.00  0.00    +0.013 C 
ATOM     30  C   UNL     1      22.781   6.582  21.022  0.00  0.00    +0.013 C 
ATOM     31  C   UNL     1      23.489   5.035  23.434  0.00  0.00    +0.001 C 
ATOM     32  C   UNL     1      24.079   5.782  21.098  0.00  0.00    +0.001 C 
ATOM     33  C   UNL     1      23.956   4.597  22.050  0.00  0.00    +0.000 C 
ENDBRANCH  26  27
BRANCH  15   2
ATOM      2  O   UNL     1      10.478   8.564  19.438  0.00  0.00    -0.391 OA
ATOM     36  H   UNL     1      10.370   7.646  19.139  0.00  0.00    +0.210 HD
ENDBRANCH  15   2
BRANCH  12  20
ATOM     20  C   UNL     1      12.751   7.817  17.911  0.00  0.00    +0.165 C 
BRANCH  20   3
ATOM      3  O   UNL     1      11.729   6.973  17.431  0.00  0.00    -0.394 OA
ATOM     37  H   UNL     1      10.921   7.505  17.331  0.00  0.00    +0.209 HD
ENDBRANCH  20   3
ENDBRANCH  12  20
BRANCH  13  23
ATOM     23  C   UNL     1      16.546  10.868  21.447  0.00  0.00    +0.106 C 
BRANCH  23  24
ATOM      4  O   UNL     1      17.218  12.157  23.381  0.00  0.00    -0.276 OA
ATOM      8  N   UNL     1      15.201  11.005  23.416  0.00  0.00    -0.313 N 
ATOM     24  C   UNL     1      16.390  11.428  22.842  0.00  0.00    +0.214 C 
ATOM     38  H   UNL     1      14.550  10.444  22.876  0.00  0.00    +0.149 HD
BRANCH   8  28
ATOM     28  C   UNL     1      14.789  11.382  24.750  0.00  0.00    +0.132 C 
BRANCH  28  34
ATOM     34  C   UNL     1      13.574  12.290  24.722  0.00  0.00    +0.178 C 
BRANCH  34   6
ATOM      6  O   UNL     1      12.611  11.822  25.658  0.00  0.00    -0.381 OA
ATOM     35  C   UNL     1      11.400  11.447  25.017  0.00  0.00    +0.194 C 
ENDBRANCH  34   6
ENDBRANCH  28  34
ENDBRANCH   8  28
ENDBRANCH  23  24
ENDBRANCH  13  23
TORSDOF 9
ENDMDL
MODEL 2
REMARK VINA RESULT:      -6.7     30.021     33.810
REMARK  Name = 11882965
REMARK  12 active torsions:
REMARK  status: ('A' for Active; 'I' for Inactive)
REMARK    1  A    between atoms: O_2  and  C_15
REMARK    2  A    between atoms: O_3  and  C_20
REMARK    3  A    between atoms: O_6  and  C_34
REMARK    4  A    between atoms: O_6  and  C_35
REMARK    5  A    between atoms: N_8  and  C_28
REMARK    6  A    between atoms: C_10  and  C_18
REMARK    7  A    between atoms: C_12  and  C_20
REMARK    8  A    between atoms: C_12  and  C_21
REMARK    9  A    between atoms: C_13  and  C_23
REMARK   10  A    between atoms: C_23  and  C_24
REMARK   11  A    between atoms: C_26  and  C_27
REMARK   12  A    between atoms: C_28  and  C_34
REMARK                            x       y       z     vdW  Elec       q    Type
REMARK                         _______ _______ _______ _____ _____    ______ ____
ROOT
ATOM      1  S   UNL     1     -10.244 -12.967  20.042  0.00  0.00    -0.057 S 
ATOM      5  O   UNL     1     -13.561  -9.737  19.447  0.00  0.00    -0.275 OA
ATOM      7  N   UNL     1     -10.810 -10.720  18.890  0.00  0.00    -0.229 NA
ATOM      9  N   UNL     1     -12.540 -11.715  20.241  0.00  0.00    -0.264 N 
ATOM     10  C   UNL     1      -7.138 -10.541  17.727  0.00  0.00    -0.019 C 
ATOM     11  C   UNL     1      -7.006 -12.125  17.642  0.00  0.00    +0.011 C 
ATOM     12  C   UNL     1      -5.579 -12.707  17.302  0.00  0.00    +0.021 C 
ATOM     13  C   UNL     1      -8.690 -10.171  17.638  0.00  0.00    +0.054 C 
ATOM     14  C   UNL     1      -6.412  -9.897  16.517  0.00  0.00    +0.010 C 
ATOM     15  C   UNL     1      -4.978 -11.923  16.102  0.00  0.00    +0.123 C 
ATOM     16  C   UNL     1      -7.693 -12.819  18.854  0.00  0.00    +0.049 C 
ATOM     17  C   UNL     1      -4.996 -10.411  16.302  0.00  0.00    +0.032 C 
ATOM     18  C   UNL     1      -6.543  -9.956  19.031  0.00  0.00    +0.012 C 
ATOM     19  C   UNL     1      -9.508 -11.045  18.553  0.00  0.00    +0.058 A 
ATOM     21  C   UNL     1      -5.730 -14.189  16.858  0.00  0.00    +0.016 C 
ATOM     22  C   UNL     1      -9.049 -12.236  19.073  0.00  0.00    +0.015 A 
ATOM     25  C   UNL     1     -11.293 -11.656  19.677  0.00  0.00    +0.165 A 
ATOM     26  C   UNL     1     -13.576 -10.777  20.097  0.00  0.00    +0.222 C 
ATOM     39  H   UNL     1     -12.708 -12.537  20.815  0.00  0.00    +0.157 HD
ENDROOT
BRANCH  26  27
ATOM     27  C   UNL     1     -14.800 -11.179  20.863  0.00  0.00    +0.075 C 
ATOM     29  C   UNL     1     -14.400 -11.973  22.108  0.00  0.00    +0.013 C 
ATOM     30  C   UNL     1     -15.617  -9.939  21.229  0.00  0.00    +0.013 C 
ATOM     31  C   UNL     1     -15.612 -12.324  22.968  0.00  0.00    +0.001 C 
ATOM     32  C   UNL     1     -16.826 -10.293  22.092  0.00  0.00    +0.001 C 
ATOM     33  C   UNL     1     -16.421 -11.082  23.332  0.00  0.00    +0.000 C 
ENDBRANCH  26  27
BRANCH  15   2
ATOM      2  O   UNL     1      -3.636 -12.337  15.851  0.00  0.00    -0.391 OA
ATOM     36  H   UNL     1      -3.521 -13.226  16.224  0.00  0.00    +0.210 HD
ENDBRANCH  15   2
BRANCH  12  20
ATOM     20  C   UNL     1      -4.595 -12.729  18.493  0.00  0.00    +0.165 C 
BRANCH  20   3
ATOM      3  O   UNL     1      -4.011 -14.011  18.547  0.00  0.00    -0.394 OA
ATOM     37  H   UNL     1      -3.391 -14.091  17.803  0.00  0.00    +0.209 HD
ENDBRANCH  20   3
ENDBRANCH  12  20
BRANCH  13  23
ATOM     23  C   UNL     1      -9.004  -8.683  17.851  0.00  0.00    +0.106 C 
BRANCH  23  24
ATOM      4  O   UNL     1      -9.592  -8.528  15.510  0.00  0.00    -0.276 OA
ATOM      8  N   UNL     1     -10.382  -6.928  16.998  0.00  0.00    -0.313 N 
ATOM     24  C   UNL     1      -9.675  -8.068  16.645  0.00  0.00    +0.214 C 
ATOM     38  H   UNL     1     -10.438  -6.650  17.973  0.00  0.00    +0.149 HD
BRANCH   8  28
ATOM     28  C   UNL     1     -11.121  -6.130  16.046  0.00  0.00    +0.132 C 
BRANCH  28  34
ATOM     34  C   UNL     1     -12.544  -6.630  15.884  0.00  0.00    +0.178 C 
BRANCH  34   6
ATOM      6  O   UNL     1     -13.158  -5.964  14.788  0.00  0.00    -0.381 OA
ATOM     35  C   UNL     1     -12.195  -5.337  13.953  0.00  0.00    +0.194 C 
ENDBRANCH  34   6
ENDBRANCH  28  34
ENDBRANCH   8  28
ENDBRANCH  23  24
ENDBRANCH  13  23
TORSDOF 9
ENDMDL
MODEL 3
REMARK VINA RESULT:      -6.6      2.066      3.409
REMARK  Name = 11882965
REMARK  12 active torsions:
REMARK  status: ('A' for Active; 'I' for Inactive)
REMARK    1  A    between atoms: O_2  and  C_15
REMARK    2  A    between atoms: O_3  and  C_20
REMARK    3  A    between atoms: O_6  and  C_34
REMARK    4  A    between atoms: O_6  and  C_35
REMARK    5  A    between atoms: N_8  and  C_28
REMARK    6  A    between atoms: C_10  and  C_18
REMARK    7  A    between atoms: C_12  and  C_20
REMARK    8  A    between atoms: C_12  and  C_21
REMARK    9  A    between atoms: C_13  and  C_23
REMARK   10  A    between atoms: C_23  and  C_24
REMARK   11  A    between atoms: C_26  and  C_27
REMARK   12  A    between atoms: C_28  and  C_34
REMARK                            x       y       z     vdW  Elec       q    Type
REMARK                         _______ _______ _______ _____ _____    ______ ____
ROOT
ATOM      1  S   UNL     1      17.304   5.650  19.789  0.00  0.00    -0.057 S 
ATOM      5  O   UNL     1      21.486   7.142  21.230  0.00  0.00    -0.275 OA
ATOM      7  N   UNL     1      18.561   7.597  20.940  0.00  0.00    -0.229 NA
ATOM      9  N   UNL     1      19.884   5.701  20.259  0.00  0.00    -0.264 N 
ATOM     10  C   UNL     1      15.262   9.593  20.874  0.00  0.00    -0.019 C 
ATOM     11  C   UNL     1      14.373   8.278  20.996  0.00  0.00    +0.011 C 
ATOM     12  C   UNL     1      12.809   8.460  20.899  0.00  0.00    +0.021 C 
ATOM     13  C   UNL     1      16.722   9.253  21.428  0.00  0.00    +0.054 C 
ATOM     14  C   UNL     1      14.652  10.712  21.757  0.00  0.00    +0.010 C 
ATOM     15  C   UNL     1      12.373   9.646  21.805  0.00  0.00    +0.123 C 
ATOM     16  C   UNL     1      14.927   7.131  20.101  0.00  0.00    +0.049 C 
ATOM     17  C   UNL     1      13.161  10.925  21.541  0.00  0.00    +0.032 C 
ATOM     18  C   UNL     1      15.372  10.113  19.420  0.00  0.00    +0.012 C 
ATOM     19  C   UNL     1      17.225   7.949  20.866  0.00  0.00    +0.058 A 
ATOM     21  C   UNL     1      12.115   7.181  21.445  0.00  0.00    +0.016 C 
ATOM     22  C   UNL     1      16.402   7.004  20.291  0.00  0.00    +0.015 A 
ATOM     25  C   UNL     1      18.720   6.410  20.396  0.00  0.00    +0.165 A 
ATOM     26  C   UNL     1      21.167   6.097  20.673  0.00  0.00    +0.222 C 
ATOM     39  H   UNL     1      19.779   4.794  19.811  0.00  0.00    +0.157 HD
ENDROOT
BRANCH  26  27
ATOM     27  C   UNL     1      22.199   5.057  20.355  0.00  0.00    +0.075 C 
ATOM     29  C   UNL     1      23.597   5.602  20.652  0.00  0.00    +0.013 C 
ATOM     30  C   UNL     1      21.915   3.781  21.151  0.00  0.00    +0.013 C 
ATOM     31  C   UNL     1      24.674   4.542  20.431  0.00  0.00    +0.001 C 
ATOM     32  C   UNL     1      22.996   2.726  20.930  0.00  0.00    +0.001 C 
ATOM     33  C   UNL     1      24.388   3.274  21.229  0.00  0.00    +0.000 C 
ENDBRANCH  26  27
BRANCH  15   2
ATOM      2  O   UNL     1      10.983   9.920  21.641  0.00  0.00    -0.391 OA
ATOM     36  H   UNL     1      10.499   9.081  21.716  0.00  0.00    +0.210 HD
ENDBRANCH  15   2
BRANCH  12  20
ATOM     20  C   UNL     1      12.273   8.640  19.461  0.00  0.00    +0.165 C 
BRANCH  20   3
ATOM      3  O   UNL     1      10.938   8.189  19.438  0.00  0.00    -0.394 OA
ATOM     37  H   UNL     1      10.944   7.242  19.216  0.00  0.00    +0.209 HD
ENDBRANCH  20   3
ENDBRANCH  12  20
BRANCH  13  23
ATOM     23  C   UNL     1      17.751  10.378  21.247  0.00  0.00    +0.106 C 
BRANCH  23  24
ATOM      4  O   UNL     1      17.941  11.715  23.255  0.00  0.00    -0.276 OA
ATOM      8  N   UNL     1      19.471  10.010  22.864  0.00  0.00    -0.313 N 
ATOM     24  C   UNL     1      18.369  10.797  22.561  0.00  0.00    +0.214 C 
ATOM     38  H   UNL     1      19.722   9.237  22.256  0.00  0.00    +0.149 HD
BRANCH   8  28
ATOM     28  C   UNL     1      20.262  10.186  24.061  0.00  0.00    +0.132 C 
BRANCH  28  34
ATOM     34  C   UNL     1      21.142   8.980  24.329  0.00  0.00    +0.178 C 
BRANCH  34   6
ATOM      6  O   UNL     1      20.331   7.817  24.435  0.00  0.00    -0.381 OA
ATOM     35  C   UNL     1      20.346   7.288  25.754  0.00  0.00    +0.194 C 
ENDBRANCH  34   6
ENDBRANCH  28  34
ENDBRANCH   8  28
ENDBRANCH  23  24
ENDBRANCH  13  23
TORSDOF 9
ENDMDL
MODEL 4
REMARK VINA RESULT:      -6.6     15.918     19.787
REMARK  Name = 11882965
REMARK  12 active torsions:
REMARK  status: ('A' for Active; 'I' for Inactive)
REMARK    1  A    between atoms: O_2  and  C_15
REMARK    2  A    between atoms: O_3  and  C_20
REMARK    3  A    between atoms: O_6  and  C_34
REMARK    4  A    between atoms: O_6  and  C_35
REMARK    5  A    between atoms: N_8  and  C_28
REMARK    6  A    between atoms: C_10  and  C_18
REMARK    7  A    between atoms: C_12  and  C_20
REMARK    8  A    between atoms: C_12  and  C_21
REMARK    9  A    between atoms: C_13  and  C_23
REMARK   10  A    between atoms: C_23  and  C_24
REMARK   11  A    between atoms: C_26  and  C_27
REMARK   12  A    between atoms: C_28  and  C_34
REMARK                            x       y       z     vdW  Elec       q    Type
REMARK                         _______ _______ _______ _____ _____    ______ ____
ROOT
ATOM      1  S   UNL     1      14.938   7.959   6.218  0.00  0.00    -0.057 S 
ATOM      5  O   UNL     1      12.263   6.176   2.835  0.00  0.00    -0.275 OA
ATOM      7  N   UNL     1      14.889   7.245   3.731  0.00  0.00    -0.229 NA
ATOM      9  N   UNL     1      12.849   6.964   4.984  0.00  0.00    -0.264 N 
ATOM     10  C   UNL     1      18.446   8.690   3.380  0.00  0.00    -0.019 C 
ATOM     11  C   UNL     1      18.817   8.354   4.892  0.00  0.00    +0.011 C 
ATOM     12  C   UNL     1      20.220   8.854   5.413  0.00  0.00    +0.021 C 
ATOM     13  C   UNL     1      17.234   7.743   2.948  0.00  0.00    +0.054 C 
ATOM     14  C   UNL     1      19.662   8.376   2.470  0.00  0.00    +0.010 C 
ATOM     15  C   UNL     1      21.312   8.500   4.365  0.00  0.00    +0.123 C 
ATOM     16  C   UNL     1      17.637   8.683   5.853  0.00  0.00    +0.049 C 
ATOM     17  C   UNL     1      20.971   8.979   2.958  0.00  0.00    +0.032 C 
ATOM     18  C   UNL     1      18.042  10.171   3.174  0.00  0.00    +0.012 C 
ATOM     19  C   UNL     1      16.157   7.727   4.001  0.00  0.00    +0.058 A 
ATOM     21  C   UNL     1      20.572   8.095   6.724  0.00  0.00    +0.016 C 
ATOM     22  C   UNL     1      16.363   8.136   5.302  0.00  0.00    +0.015 A 
ATOM     25  C   UNL     1      14.160   7.328   4.823  0.00  0.00    +0.165 A 
ATOM     26  C   UNL     1      11.998   6.423   4.007  0.00  0.00    +0.222 C 
ATOM     39  H   UNL     1      12.481   7.107   5.921  0.00  0.00    +0.157 HD
ENDROOT
BRANCH  26  27
ATOM     27  C   UNL     1      10.629   6.148   4.553  0.00  0.00    +0.075 C 
ATOM     29  C   UNL     1      10.686   6.044   6.078  0.00  0.00    +0.013 C 
ATOM     30  C   UNL     1       9.659   7.243   4.103  0.00  0.00    +0.013 C 
ATOM     31  C   UNL     1       9.297   5.857   6.684  0.00  0.00    +0.001 C 
ATOM     32  C   UNL     1       8.273   7.054   4.714  0.00  0.00    +0.001 C 
ATOM     33  C   UNL     1       8.336   6.953   6.234  0.00  0.00    +0.000 C 
ENDBRANCH  26  27
BRANCH  15   2
ATOM      2  O   UNL     1      22.572   9.052   4.745  0.00  0.00    -0.391 OA
ATOM     36  H   UNL     1      22.549   9.224   5.701  0.00  0.00    +0.210 HD
ENDBRANCH  15   2
BRANCH  12  20
ATOM     20  C   UNL     1      20.271  10.355   5.777  0.00  0.00    +0.165 C 
BRANCH  20   3
ATOM      3  O   UNL     1      21.056  10.491   6.940  0.00  0.00    -0.394 OA
ATOM     37  H   UNL     1      21.132  11.438   7.142  0.00  0.00    +0.209 HD
ENDBRANCH  20   3
ENDBRANCH  12  20
BRANCH  13  23
ATOM     23  C   UNL     1      16.657   8.041   1.557  0.00  0.00    +0.106 C 
BRANCH  23  24
ATOM      4  O   UNL     1      17.203   6.594  -0.303  0.00  0.00    -0.276 OA
ATOM      8  N   UNL     1      15.601   5.922   1.240  0.00  0.00    -0.313 N 
ATOM     24  C   UNL     1      16.543   6.793   0.713  0.00  0.00    +0.214 C 
ATOM     38  H   UNL     1      15.139   6.146   2.116  0.00  0.00    +0.149 HD
BRANCH   8  28
ATOM     28  C   UNL     1      15.279   4.648   0.638  0.00  0.00    +0.132 C 
BRANCH  28  34
ATOM     34  C   UNL     1      15.042   3.578   1.688  0.00  0.00    +0.178 C 
BRANCH  34   6
ATOM      6  O   UNL     1      13.667   3.219   1.696  0.00  0.00    -0.381 OA
ATOM     35  C   UNL     1      13.098   3.301   0.397  0.00  0.00    +0.194 C 
ENDBRANCH  34   6
ENDBRANCH  28  34
ENDBRANCH   8  28
ENDBRANCH  23  24
ENDBRANCH  13  23
TORSDOF 9
ENDMDL
MODEL 5
REMARK VINA RESULT:      -6.5     27.268     31.415
REMARK  Name = 11882965
REMARK  12 active torsions:
REMARK  status: ('A' for Active; 'I' for Inactive)
REMARK    1  A    between atoms: O_2  and  C_15
REMARK    2  A    between atoms: O_3  and  C_20
REMARK    3  A    between atoms: O_6  and  C_34
REMARK    4  A    between atoms: O_6  and  C_35
REMARK    5  A    between atoms: N_8  and  C_28
REMARK    6  A    between atoms: C_10  and  C_18
REMARK    7  A    between atoms: C_12  and  C_20
REMARK    8  A    between atoms: C_12  and  C_21
REMARK    9  A    between atoms: C_13  and  C_23
REMARK   10  A    between atoms: C_23  and  C_24
REMARK   11  A    between atoms: C_26  and  C_27
REMARK   12  A    between atoms: C_28  and  C_34
REMARK                            x       y       z     vdW  Elec       q    Type
REMARK                         _______ _______ _______ _____ _____    ______ ____
ROOT
ATOM      1  S   UNL     1      -8.526  -9.552  12.575  0.00  0.00    -0.057 S 
ATOM      5  O   UNL     1      -4.777 -10.311  15.249  0.00  0.00    -0.275 OA
ATOM      7  N   UNL     1      -5.988 -10.051  12.545  0.00  0.00    -0.229 NA
ATOM      9  N   UNL     1      -7.034  -9.864  14.708  0.00  0.00    -0.264 N 
ATOM     10  C   UNL     1      -6.230 -10.381   8.711  0.00  0.00    -0.019 C 
ATOM     11  C   UNL     1      -7.416  -9.324   8.616  0.00  0.00    +0.011 C 
ATOM     12  C   UNL     1      -8.068  -9.105   7.197  0.00  0.00    +0.021 C 
ATOM     13  C   UNL     1      -5.450 -10.125  10.082  0.00  0.00    +0.054 C 
ATOM     14  C   UNL     1      -5.243 -10.155   7.537  0.00  0.00    +0.010 C 
ATOM     15  C   UNL     1      -6.944  -8.943   6.135  0.00  0.00    +0.123 C 
ATOM     16  C   UNL     1      -8.454  -9.530   9.758  0.00  0.00    +0.049 C 
ATOM     17  C   UNL     1      -5.914 -10.066   6.174  0.00  0.00    +0.032 C 
ATOM     18  C   UNL     1      -6.725 -11.848   8.668  0.00  0.00    +0.012 C 
ATOM     19  C   UNL     1      -6.411  -9.968  11.231  0.00  0.00    +0.058 A 
ATOM     21  C   UNL     1      -8.885  -7.782   7.213  0.00  0.00    +0.016 C 
ATOM     22  C   UNL     1      -7.750  -9.683  11.065  0.00  0.00    +0.015 A 
ATOM     25  C   UNL     1      -7.019  -9.857  13.339  0.00  0.00    +0.165 A 
ATOM     26  C   UNL     1      -5.941 -10.086  15.563  0.00  0.00    +0.222 C 
ATOM     39  H   UNL     1      -7.944  -9.684  15.124  0.00  0.00    +0.157 HD
ENDROOT
BRANCH  26  27
ATOM     27  C   UNL     1      -6.341 -10.017  17.006  0.00  0.00    +0.075 C 
ATOM     29  C   UNL     1      -7.709 -10.674  17.201  0.00  0.00    +0.013 C 
ATOM     30  C   UNL     1      -5.273 -10.683  17.876  0.00  0.00    +0.013 C 
ATOM     31  C   UNL     1      -8.115 -10.710  18.672  0.00  0.00    +0.001 C 
ATOM     32  C   UNL     1      -5.683 -10.720  19.346  0.00  0.00    +0.001 C 
ATOM     33  C   UNL     1      -7.047 -11.377  19.533  0.00  0.00    +0.000 C 
ENDBRANCH  26  27
BRANCH  15   2
ATOM      2  O   UNL     1      -7.498  -8.872   4.822  0.00  0.00    -0.391 OA
ATOM     36  H   UNL     1      -7.758  -7.952   4.654  0.00  0.00    +0.210 HD
ENDBRANCH  15   2
BRANCH  12  20
ATOM     20  C   UNL     1      -9.069 -10.205   6.775  0.00  0.00    +0.165 C 
BRANCH  20   3
ATOM      3  O   UNL     1     -10.082  -9.595   6.007  0.00  0.00    -0.394 OA
ATOM     37  H   UNL     1     -10.233 -10.144   5.219  0.00  0.00    +0.209 HD
ENDBRANCH  20   3
ENDBRANCH  12  20
BRANCH  13  23
ATOM     23  C   UNL     1      -4.359 -11.158  10.399  0.00  0.00    +0.106 C 
BRANCH  23  24
ATOM      4  O   UNL     1      -2.454  -9.692  10.666  0.00  0.00    -0.276 OA
ATOM      8  N   UNL     1      -3.091 -11.074  12.422  0.00  0.00    -0.313 N 
ATOM     24  C   UNL     1      -3.197 -10.544  11.144  0.00  0.00    +0.214 C 
ATOM     38  H   UNL     1      -3.784 -11.739  12.751  0.00  0.00    +0.149 HD
BRANCH   8  28
ATOM     28  C   UNL     1      -2.067 -10.675  13.361  0.00  0.00    +0.132 C 
BRANCH  28  34
ATOM     34  C   UNL     1      -1.689 -11.813  14.290  0.00  0.00    +0.178 C 
BRANCH  34   6
ATOM      6  O   UNL     1      -1.084 -11.285  15.463  0.00  0.00    -0.381 OA
ATOM     35  C   UNL     1      -1.083  -9.864  15.455  0.00  0.00    +0.194 C 
ENDBRANCH  34   6
ENDBRANCH  28  34
ENDBRANCH   8  28
ENDBRANCH  23  24
ENDBRANCH  13  23
TORSDOF 9
ENDMDL
MODEL 6
REMARK VINA RESULT:      -6.2     16.624     20.377
REMARK  Name = 11882965
REMARK  12 active torsions:
REMARK  status: ('A' for Active; 'I' for Inactive)
REMARK    1  A    between atoms: O_2  and  C_15
REMARK    2  A    between atoms: O_3  and  C_20
REMARK    3  A    between atoms: O_6  and  C_34
REMARK    4  A    between atoms: O_6  and  C_35
REMARK    5  A    between atoms: N_8  and  C_28
REMARK    6  A    between atoms: C_10  and  C_18
REMARK    7  A    between atoms: C_12  and  C_20
REMARK    8  A    between atoms: C_12  and  C_21
REMARK    9  A    between atoms: C_13  and  C_23
REMARK   10  A    between atoms: C_23  and  C_24
REMARK   11  A    between atoms: C_26  and  C_27
REMARK   12  A    between atoms: C_28  and  C_34
REMARK                            x       y       z     vdW  Elec       q    Type
REMARK                         _______ _______ _______ _____ _____    ______ ____
ROOT
ATOM      1  S   UNL     1       9.467   7.764   0.180  0.00  0.00    -0.057 S 
ATOM      5  O   UNL     1      11.792   5.120   3.244  0.00  0.00    -0.275 OA
ATOM      7  N   UNL     1       9.722   7.183   2.688  0.00  0.00    -0.229 NA
ATOM      9  N   UNL     1      11.159   6.011   1.149  0.00  0.00    -0.264 N 
ATOM     10  C   UNL     1       7.237  10.026   3.467  0.00  0.00    -0.019 C 
ATOM     11  C   UNL     1       6.461   9.831   2.091  0.00  0.00    +0.011 C 
ATOM     12  C   UNL     1       5.317  10.866   1.761  0.00  0.00    +0.021 C 
ATOM     13  C   UNL     1       8.008   8.665   3.795  0.00  0.00    +0.054 C 
ATOM     14  C   UNL     1       6.215  10.295   4.602  0.00  0.00    +0.010 C 
ATOM     15  C   UNL     1       4.416  11.051   3.014  0.00  0.00    +0.123 C 
ATOM     16  C   UNL     1       7.447   9.589   0.911  0.00  0.00    +0.049 C 
ATOM     17  C   UNL     1       5.204  11.384   4.276  0.00  0.00    +0.032 C 
ATOM     18  C   UNL     1       8.252  11.195   3.426  0.00  0.00    +0.012 C 
ATOM     19  C   UNL     1       8.743   8.153   2.583  0.00  0.00    +0.058 A 
ATOM     21  C   UNL     1       4.423  10.289   0.628  0.00  0.00    +0.016 C 
ATOM     22  C   UNL     1       8.463   8.567   1.298  0.00  0.00    +0.015 A 
ATOM     25  C   UNL     1      10.180   6.907   1.486  0.00  0.00    +0.165 A 
ATOM     26  C   UNL     1      11.890   5.190   2.024  0.00  0.00    +0.222 C 
ATOM     39  H   UNL     1      11.354   5.950   0.152  0.00  0.00    +0.157 HD
ENDROOT
BRANCH  26  27
ATOM     27  C   UNL     1      12.879   4.336   1.289  0.00  0.00    +0.075 C 
ATOM     29  C   UNL     1      12.682   4.490  -0.221  0.00  0.00    +0.013 C 
ATOM     30  C   UNL     1      14.303   4.709   1.708  0.00  0.00    +0.013 C 
ATOM     31  C   UNL     1      13.730   3.709  -1.010  0.00  0.00    +0.001 C 
ATOM     32  C   UNL     1      15.347   3.928   0.914  0.00  0.00    +0.001 C 
ATOM     33  C   UNL     1      15.147   4.087  -0.590  0.00  0.00    +0.000 C 
ENDBRANCH  26  27
BRANCH  15   2
ATOM      2  O   UNL     1       3.450  12.077   2.791  0.00  0.00    -0.391 OA
ATOM     36  H   UNL     1       3.108  12.361   3.655  0.00  0.00    +0.210 HD
ENDBRANCH  15   2
BRANCH  12  20
ATOM     20  C   UNL     1       5.820  12.230   1.237  0.00  0.00    +0.165 C 
BRANCH  20   3
ATOM      3  O   UNL     1       4.846  12.739   0.354  0.00  0.00    -0.394 OA
ATOM     37  H   UNL     1       4.606  13.632   0.653  0.00  0.00    +0.209 HD
ENDBRANCH  20   3
ENDBRANCH  12  20
BRANCH  13  23
ATOM     23  C   UNL     1       8.928   8.733   5.023  0.00  0.00    +0.106 C 
BRANCH  23  24
ATOM      4  O   UNL     1       7.833   7.554   6.829  0.00  0.00    -0.276 OA
ATOM      8  N   UNL     1       9.606   6.549   5.713  0.00  0.00    -0.313 N 
ATOM     24  C   UNL     1       8.703   7.572   5.963  0.00  0.00    +0.214 C 
ATOM     38  H   UNL     1      10.259   6.629   4.940  0.00  0.00    +0.149 HD
BRANCH   8  28
ATOM     28  C   UNL     1       9.628   5.313   6.463  0.00  0.00    +0.132 C 
BRANCH  28  34
ATOM     34  C   UNL     1      10.201   5.515   7.854  0.00  0.00    +0.178 C 
BRANCH  34   6
ATOM      6  O   UNL     1      10.005   4.335   8.622  0.00  0.00    -0.381 OA
ATOM     35  C   UNL     1       9.437   4.627   9.891  0.00  0.00    +0.194 C 
ENDBRANCH  34   6
ENDBRANCH  28  34
ENDBRANCH   8  28
ENDBRANCH  23  24
ENDBRANCH  13  23
TORSDOF 9
ENDMDL
MODEL 7
REMARK VINA RESULT:      -6.2     28.689     31.525
REMARK  Name = 11882965
REMARK  12 active torsions:
REMARK  status: ('A' for Active; 'I' for Inactive)
REMARK    1  A    between atoms: O_2  and  C_15
REMARK    2  A    between atoms: O_3  and  C_20
REMARK    3  A    between atoms: O_6  and  C_34
REMARK    4  A    between atoms: O_6  and  C_35
REMARK    5  A    between atoms: N_8  and  C_28
REMARK    6  A    between atoms: C_10  and  C_18
REMARK    7  A    between atoms: C_12  and  C_20
REMARK    8  A    between atoms: C_12  and  C_21
REMARK    9  A    between atoms: C_13  and  C_23
REMARK   10  A    between atoms: C_23  and  C_24
REMARK   11  A    between atoms: C_26  and  C_27
REMARK   12  A    between atoms: C_28  and  C_34
REMARK                            x       y       z     vdW  Elec       q    Type
REMARK                         _______ _______ _______ _____ _____    ______ ____
ROOT
ATOM      1  S   UNL     1      -7.437 -10.585  12.467  0.00  0.00    -0.057 S 
ATOM      5  O   UNL     1      -3.351 -10.695  10.212  0.00  0.00    -0.275 OA
ATOM      7  N   UNL     1      -4.882 -10.881  12.755  0.00  0.00    -0.229 NA
ATOM      9  N   UNL     1      -5.686 -10.498  10.516  0.00  0.00    -0.264 N 
ATOM     10  C   UNL     1      -5.449 -10.927  16.569  0.00  0.00    -0.019 C 
ATOM     11  C   UNL     1      -6.894 -11.582  16.425  0.00  0.00    +0.011 C 
ATOM     12  C   UNL     1      -7.737 -11.752  17.747  0.00  0.00    +0.021 C 
ATOM     13  C   UNL     1      -4.627 -11.251  15.237  0.00  0.00    +0.054 C 
ATOM     14  C   UNL     1      -4.709 -11.572  17.769  0.00  0.00    +0.010 C 
ATOM     15  C   UNL     1      -6.836 -12.365  18.855  0.00  0.00    +0.123 C 
ATOM     16  C   UNL     1      -7.692 -10.945  15.250  0.00  0.00    +0.049 C 
ATOM     17  C   UNL     1      -5.527 -11.607  19.052  0.00  0.00    +0.032 C 
ATOM     18  C   UNL     1      -5.501  -9.395  16.782  0.00  0.00    +0.012 C 
ATOM     19  C   UNL     1      -5.458 -10.980  14.009  0.00  0.00    +0.058 A 
ATOM     21  C   UNL     1      -8.894 -12.756  17.484  0.00  0.00    +0.016 C 
ATOM     22  C   UNL     1      -6.831 -10.865  14.034  0.00  0.00    +0.015 A 
ATOM     25  C   UNL     1      -5.829 -10.664  11.868  0.00  0.00    +0.165 A 
ATOM     26  C   UNL     1      -4.487 -10.522   9.784  0.00  0.00    +0.222 C 
ATOM     39  H   UNL     1      -6.557 -10.348  10.012  0.00  0.00    +0.157 HD
ENDROOT
BRANCH  26  27
ATOM     27  C   UNL     1      -4.725 -10.304   8.320  0.00  0.00    +0.075 C 
ATOM     29  C   UNL     1      -4.558 -11.622   7.562  0.00  0.00    +0.013 C 
ATOM     30  C   UNL     1      -6.115  -9.704   8.101  0.00  0.00    +0.013 C 
ATOM     31  C   UNL     1      -4.884 -11.465   6.078  0.00  0.00    +0.001 C 
ATOM     32  C   UNL     1      -6.438  -9.552   6.617  0.00  0.00    +0.001 C 
ATOM     33  C   UNL     1      -6.272 -10.870   5.867  0.00  0.00    +0.000 C 
ENDBRANCH  26  27
BRANCH  15   2
ATOM      2  O   UNL     1      -7.530 -12.412  20.101  0.00  0.00    -0.391 OA
ATOM     36  H   UNL     1      -6.912 -12.148  20.801  0.00  0.00    +0.210 HD
ENDBRANCH  15   2
BRANCH  12  20
ATOM     20  C   UNL     1      -8.418 -10.457  18.245  0.00  0.00    +0.165 C 
BRANCH  20   3
ATOM      3  O   UNL     1      -9.638 -10.816  18.851  0.00  0.00    -0.394 OA
ATOM     37  H   UNL     1      -9.796 -11.759  18.676  0.00  0.00    +0.209 HD
ENDBRANCH  20   3
ENDBRANCH  12  20
BRANCH  13  23
ATOM     23  C   UNL     1      -3.256 -10.566  15.152  0.00  0.00    +0.106 C 
BRANCH  23  24
ATOM      4  O   UNL     1      -1.001 -11.415  15.363  0.00  0.00    -0.276 OA
ATOM      8  N   UNL     1      -2.579 -12.637  14.173  0.00  0.00    -0.313 N 
ATOM     24  C   UNL     1      -2.140 -11.559  14.928  0.00  0.00    +0.214 C 
ATOM     38  H   UNL     1      -3.555 -12.699  13.900  0.00  0.00    +0.149 HD
BRANCH   8  28
ATOM     28  C   UNL     1      -1.724 -13.742  13.801  0.00  0.00    +0.132 C 
BRANCH  28  34
ATOM     34  C   UNL     1      -2.261 -14.478  12.588  0.00  0.00    +0.178 C 
BRANCH  34   6
ATOM      6  O   UNL     1      -2.015 -15.871  12.733  0.00  0.00    -0.381 OA
ATOM     35  C   UNL     1      -0.637 -16.178  12.569  0.00  0.00    +0.194 C 
ENDBRANCH  34   6
ENDBRANCH  28  34
ENDBRANCH   8  28
ENDBRANCH  23  24
ENDBRANCH  13  23
TORSDOF 9
ENDMDL
MODEL 8
REMARK VINA RESULT:      -6.2      1.430      2.485
REMARK  Name = 11882965
REMARK  12 active torsions:
REMARK  status: ('A' for Active; 'I' for Inactive)
REMARK    1  A    between atoms: O_2  and  C_15
REMARK    2  A    between atoms: O_3  and  C_20
REMARK    3  A    between atoms: O_6  and  C_34
REMARK    4  A    between atoms: O_6  and  C_35
REMARK    5  A    between atoms: N_8  and  C_28
REMARK    6  A    between atoms: C_10  and  C_18
REMARK    7  A    between atoms: C_12  and  C_20
REMARK    8  A    between atoms: C_12  and  C_21
REMARK    9  A    between atoms: C_13  and  C_23
REMARK   10  A    between atoms: C_23  and  C_24
REMARK   11  A    between atoms: C_26  and  C_27
REMARK   12  A    between atoms: C_28  and  C_34
REMARK                            x       y       z     vdW  Elec       q    Type
REMARK                         _______ _______ _______ _____ _____    ______ ____
ROOT
ATOM      1  S   UNL     1      17.974   6.182  19.944  0.00  0.00    -0.057 S 
ATOM      5  O   UNL     1      20.940   8.537  22.671  0.00  0.00    -0.275 OA
ATOM      7  N   UNL     1      18.250   8.283  21.429  0.00  0.00    -0.229 NA
ATOM      9  N   UNL     1      20.161   6.827  21.239  0.00  0.00    -0.264 N 
ATOM     10  C   UNL     1      14.752   9.409  20.261  0.00  0.00    -0.019 C 
ATOM     11  C   UNL     1      14.240   7.910  20.093  0.00  0.00    +0.011 C 
ATOM     12  C   UNL     1      12.798   7.711  19.484  0.00  0.00    +0.021 C 
ATOM     13  C   UNL     1      15.992   9.395  21.269  0.00  0.00    +0.054 C 
ATOM     14  C   UNL     1      13.625  10.273  20.883  0.00  0.00    +0.010 C 
ATOM     15  C   UNL     1      11.806   8.681  20.185  0.00  0.00    +0.123 C 
ATOM     16  C   UNL     1      15.327   7.007  19.442  0.00  0.00    +0.049 C 
ATOM     17  C   UNL     1      12.281  10.130  20.184  0.00  0.00    +0.032 C 
ATOM     18  C   UNL     1      15.186  10.050  18.919  0.00  0.00    +0.012 C 
ATOM     19  C   UNL     1      16.966   8.302  20.915  0.00  0.00    +0.058 A 
ATOM     21  C   UNL     1      12.319   6.263  19.781  0.00  0.00    +0.016 C 
ATOM     22  C   UNL     1      16.642   7.231  20.109  0.00  0.00    +0.015 A 
ATOM     25  C   UNL     1      18.874   7.216  20.978  0.00  0.00    +0.165 A 
ATOM     26  C   UNL     1      21.096   7.492  22.049  0.00  0.00    +0.222 C 
ATOM     39  H   UNL     1      20.442   5.959  20.789  0.00  0.00    +0.157 HD
ENDROOT
BRANCH  26  27
ATOM     27  C   UNL     1      22.406   6.764  22.099  0.00  0.00    +0.075 C 
ATOM     29  C   UNL     1      22.194   5.344  22.627  0.00  0.00    +0.013 C 
ATOM     30  C   UNL     1      23.050   6.754  20.711  0.00  0.00    +0.013 C 
ATOM     31  C   UNL     1      23.489   4.535  22.606  0.00  0.00    +0.001 C 
ATOM     32  C   UNL     1      24.342   5.942  20.694  0.00  0.00    +0.001 C 
ATOM     33  C   UNL     1      24.125   4.526  21.220  0.00  0.00    +0.000 C 
ENDBRANCH  26  27
BRANCH  15   2
ATOM      2  O   UNL     1      10.521   8.618  19.569  0.00  0.00    -0.391 OA
ATOM     36  H   UNL     1       9.851   8.792  20.251  0.00  0.00    +0.210 HD
ENDBRANCH  15   2
BRANCH  12  20
ATOM     20  C   UNL     1      12.725   7.864  17.948  0.00  0.00    +0.165 C 
BRANCH  20   3
ATOM      3  O   UNL     1      11.754   6.962  17.469  0.00  0.00    -0.394 OA
ATOM     37  H   UNL     1      12.127   6.496  16.703  0.00  0.00    +0.209 HD
ENDBRANCH  20   3
ENDBRANCH  12  20
BRANCH  13  23
ATOM     23  C   UNL     1      16.699  10.749  21.427  0.00  0.00    +0.106 C 
BRANCH  23  24
ATOM      4  O   UNL     1      15.481  11.322  23.437  0.00  0.00    -0.276 OA
ATOM      8  N   UNL     1      17.752  11.796  23.299  0.00  0.00    -0.313 N 
ATOM     24  C   UNL     1      16.544  11.308  22.823  0.00  0.00    +0.214 C 
ATOM     38  H   UNL     1      18.593  11.694  22.740  0.00  0.00    +0.149 HD
BRANCH   8  28
ATOM     28  C   UNL     1      17.902  12.393  24.607  0.00  0.00    +0.132 C 
BRANCH  28  34
ATOM     34  C   UNL     1      19.362  12.495  25.009  0.00  0.00    +0.178 C 
BRANCH  34   6
ATOM      6  O   UNL     1      20.076  11.385  24.481  0.00  0.00    -0.381 OA
ATOM     35  C   UNL     1      21.320  11.783  23.921  0.00  0.00    +0.194 C 
ENDBRANCH  34   6
ENDBRANCH  28  34
ENDBRANCH   8  28
ENDBRANCH  23  24
ENDBRANCH  13  23
TORSDOF 9
ENDMDL
MODEL 9
REMARK VINA RESULT:      -6.0     16.610     19.594
REMARK  Name = 11882965
REMARK  12 active torsions:
REMARK  status: ('A' for Active; 'I' for Inactive)
REMARK    1  A    between atoms: O_2  and  C_15
REMARK    2  A    between atoms: O_3  and  C_20
REMARK    3  A    between atoms: O_6  and  C_34
REMARK    4  A    between atoms: O_6  and  C_35
REMARK    5  A    between atoms: N_8  and  C_28
REMARK    6  A    between atoms: C_10  and  C_18
REMARK    7  A    between atoms: C_12  and  C_20
REMARK    8  A    between atoms: C_12  and  C_21
REMARK    9  A    between atoms: C_13  and  C_23
REMARK   10  A    between atoms: C_23  and  C_24
REMARK   11  A    between atoms: C_26  and  C_27
REMARK   12  A    between atoms: C_28  and  C_34
REMARK                            x       y       z     vdW  Elec       q    Type
REMARK                         _______ _______ _______ _____ _____    ______ ____
ROOT
ATOM      1  S   UNL     1      16.348   6.952   0.794  0.00  0.00    -0.057 S 
ATOM      5  O   UNL     1      16.197   8.145   5.304  0.00  0.00    -0.275 OA
ATOM      7  N   UNL     1      14.813   7.146   2.868  0.00  0.00    -0.229 NA
ATOM      9  N   UNL     1      17.119   7.785   3.158  0.00  0.00    -0.264 N 
ATOM     10  C   UNL     1      11.839   6.234   0.591  0.00  0.00    -0.019 C 
ATOM     11  C   UNL     1      12.743   5.333  -0.362  0.00  0.00    +0.011 C 
ATOM     12  C   UNL     1      12.052   4.734  -1.647  0.00  0.00    +0.021 C 
ATOM     13  C   UNL     1      12.580   6.358   2.001  0.00  0.00    +0.054 C 
ATOM     14  C   UNL     1      10.472   5.535   0.816  0.00  0.00    +0.010 C 
ATOM     15  C   UNL     1      10.680   4.118  -1.252  0.00  0.00    +0.123 C 
ATOM     16  C   UNL     1      14.117   6.007  -0.645  0.00  0.00    +0.049 C 
ATOM     17  C   UNL     1       9.794   5.079  -0.467  0.00  0.00    +0.032 C 
ATOM     18  C   UNL     1      11.584   7.649   0.017  0.00  0.00    +0.012 C 
ATOM     19  C   UNL     1      14.039   6.685   1.819  0.00  0.00    +0.058 A 
ATOM     21  C   UNL     1      12.933   3.581  -2.205  0.00  0.00    +0.016 C 
ATOM     22  C   UNL     1      14.713   6.503   0.630  0.00  0.00    +0.015 A 
ATOM     25  C   UNL     1      16.044   7.330   2.441  0.00  0.00    +0.165 A 
ATOM     26  C   UNL     1      17.134   8.157   4.513  0.00  0.00    +0.222 C 
ATOM     39  H   UNL     1      17.986   7.846   2.630  0.00  0.00    +0.157 HD
ENDROOT
BRANCH  26  27
ATOM     27  C   UNL     1      18.496   8.604   4.951  0.00  0.00    +0.075 C 
ATOM     29  C   UNL     1      18.580   8.600   6.479  0.00  0.00    +0.013 C 
ATOM     30  C   UNL     1      19.566   7.703   4.330  0.00  0.00    +0.013 C 
ATOM     31  C   UNL     1      19.981   8.959   6.968  0.00  0.00    +0.001 C 
ATOM     32  C   UNL     1      20.964   8.064   4.824  0.00  0.00    +0.001 C 
ATOM     33  C   UNL     1      21.043   8.056   6.347  0.00  0.00    +0.000 C 
ENDBRANCH  26  27
BRANCH  15   2
ATOM      2  O   UNL     1       9.972   3.682  -2.411  0.00  0.00    -0.391 OA
ATOM     36  H   UNL     1       9.030   3.619  -2.182  0.00  0.00    +0.210 HD
ENDBRANCH  15   2
BRANCH  12  20
ATOM     20  C   UNL     1      11.891   5.734  -2.814  0.00  0.00    +0.165 C 
BRANCH  20   3
ATOM      3  O   UNL     1      12.011   5.014  -4.019  0.00  0.00    -0.394 OA
ATOM     37  H   UNL     1      11.128   4.694  -4.268  0.00  0.00    +0.209 HD
ENDBRANCH  20   3
ENDBRANCH  12  20
BRANCH  13  23
ATOM     23  C   UNL     1      11.908   7.317   2.993  0.00  0.00    +0.106 C 
BRANCH  23  24
ATOM      4  O   UNL     1      12.363   6.899   5.332  0.00  0.00    -0.276 OA
ATOM      8  N   UNL     1      10.601   5.797   4.292  0.00  0.00    -0.313 N 
ATOM     24  C   UNL     1      11.678   6.671   4.339  0.00  0.00    +0.214 C 
ATOM     38  H   UNL     1      10.058   5.710   3.439  0.00  0.00    +0.149 HD
BRANCH   8  28
ATOM     28  C   UNL     1      10.152   5.034   5.435  0.00  0.00    +0.132 C 
BRANCH  28  34
ATOM     34  C   UNL     1       9.043   5.749   6.182  0.00  0.00    +0.178 C 
BRANCH  34   6
ATOM      6  O   UNL     1       9.466   6.019   7.513  0.00  0.00    -0.381 OA
ATOM     35  C   UNL     1       9.705   7.405   7.714  0.00  0.00    +0.194 C 
ENDBRANCH  34   6
ENDBRANCH  28  34
ENDBRANCH   8  28
ENDBRANCH  23  24
ENDBRANCH  13  23
TORSDOF 9
ENDMDL
MODEL 10
REMARK VINA RESULT:      -5.8     22.683     26.152
REMARK  Name = 11882965
REMARK  12 active torsions:
REMARK  status: ('A' for Active; 'I' for Inactive)
REMARK    1  A    between atoms: O_2  and  C_15
REMARK    2  A    between atoms: O_3  and  C_20
REMARK    3  A    between atoms: O_6  and  C_34
REMARK    4  A    between atoms: O_6  and  C_35
REMARK    5  A    between atoms: N_8  and  C_28
REMARK    6  A    between atoms: C_10  and  C_18
REMARK    7  A    between atoms: C_12  and  C_20
REMARK    8  A    between atoms: C_12  and  C_21
REMARK    9  A    between atoms: C_13  and  C_23
REMARK   10  A    between atoms: C_23  and  C_24
REMARK   11  A    between atoms: C_26  and  C_27
REMARK   12  A    between atoms: C_28  and  C_34
REMARK                            x       y       z     vdW  Elec       q    Type
REMARK                         _______ _______ _______ _____ _____    ______ ____
ROOT
ATOM      1  S   UNL     1      -1.389   9.583   0.310  0.00  0.00    -0.057 S 
ATOM      5  O   UNL     1       2.632  11.480  -1.111  0.00  0.00    -0.275 OA
ATOM      7  N   UNL     1       0.707  10.891   1.079  0.00  0.00    -0.229 NA
ATOM      9  N   UNL     1       0.575  10.326  -1.261  0.00  0.00    -0.264 N 
ATOM     10  C   UNL     1      -0.923  11.201   4.559  0.00  0.00    -0.019 C 
ATOM     11  C   UNL     1      -1.691   9.814   4.410  0.00  0.00    +0.011 C 
ATOM     12  C   UNL     1      -2.691   9.422   5.565  0.00  0.00    +0.021 C 
ATOM     13  C   UNL     1       0.319  11.188   3.553  0.00  0.00    +0.054 C 
ATOM     14  C   UNL     1      -0.379  11.336   6.005  0.00  0.00    +0.010 C 
ATOM     15  C   UNL     1      -2.006   9.660   6.940  0.00  0.00    +0.123 C 
ATOM     16  C   UNL     1      -2.284   9.644   2.981  0.00  0.00    +0.049 C 
ATOM     17  C   UNL     1      -1.417  11.059   7.083  0.00  0.00    +0.032 C 
ATOM     18  C   UNL     1      -1.822  12.423   4.251  0.00  0.00    +0.012 C 
ATOM     19  C   UNL     1      -0.095  10.699   2.189  0.00  0.00    +0.058 A 
ATOM     21  C   UNL     1      -3.011   7.904   5.464  0.00  0.00    +0.016 C 
ATOM     22  C   UNL     1      -1.257   9.993   1.957  0.00  0.00    +0.015 A 
ATOM     25  C   UNL     1       0.121  10.352   0.031  0.00  0.00    +0.165 A 
ATOM     26  C   UNL     1       1.773  10.877  -1.746  0.00  0.00    +0.222 C 
ATOM     39  H   UNL     1      -0.037   9.847  -1.917  0.00  0.00    +0.157 HD
ENDROOT
BRANCH  26  27
ATOM     27  C   UNL     1       1.933  10.651  -3.219  0.00  0.00    +0.075 C 
ATOM     29  C   UNL     1       3.132   9.738  -3.480  0.00  0.00    +0.013 C 
ATOM     30  C   UNL     1       0.645  10.062  -3.798  0.00  0.00    +0.013 C 
ATOM     31  C   UNL     1       3.276   9.404  -4.963  0.00  0.00    +0.001 C 
ATOM     32  C   UNL     1       0.793   9.727  -5.280  0.00  0.00    +0.001 C 
ATOM     33  C   UNL     1       1.989   8.815  -5.535  0.00  0.00    +0.000 C 
ENDBRANCH  26  27
BRANCH  15   2
ATOM      2  O   UNL     1      -2.927   9.438   8.006  0.00  0.00    -0.391 OA
ATOM     36  H   UNL     1      -2.565   9.851   8.808  0.00  0.00    +0.210 HD
ENDBRANCH  15   2
BRANCH  12  20
ATOM     20  C   UNL     1      -4.058  10.139   5.499  0.00  0.00    +0.165 C 
BRANCH  20   3
ATOM      3  O   UNL     1      -5.054   9.201   5.838  0.00  0.00    -0.394 OA
ATOM     37  H   UNL     1      -5.573   9.566   6.575  0.00  0.00    +0.209 HD
ENDBRANCH  20   3
ENDBRANCH  12  20
BRANCH  13  23
ATOM     23  C   UNL     1       1.084  12.515   3.467  0.00  0.00    +0.106 C 
BRANCH  23  24
ATOM      4  O   UNL     1       3.024  12.449   4.911  0.00  0.00    -0.276 OA
ATOM      8  N   UNL     1       3.276  12.058   2.634  0.00  0.00    -0.313 N 
ATOM     24  C   UNL     1       2.552  12.344   3.782  0.00  0.00    +0.214 C 
ATOM     38  H   UNL     1       2.793  11.938   1.749  0.00  0.00    +0.149 HD
BRANCH   8  28
ATOM     28  C   UNL     1       4.706  11.848   2.634  0.00  0.00    +0.132 C 
BRANCH  28  34
ATOM     34  C   UNL     1       5.054  10.384   2.831  0.00  0.00    +0.178 C 
BRANCH  34   6
ATOM      6  O   UNL     1       4.148   9.578   2.089  0.00  0.00    -0.381 OA
ATOM     35  C   UNL     1       4.599   9.375   0.758  0.00  0.00    +0.194 C 
ENDBRANCH  34   6
ENDBRANCH  28  34
ENDBRANCH   8  28
ENDBRANCH  23  24
ENDBRANCH  13  23
TORSDOF 9
ENDMDL
