MODEL 1
REMARK VINA RESULT:      -7.0      0.000      0.000
REMARK  Name = 44716532
REMARK  12 active torsions:
REMARK  status: ('A' for Active; 'I' for Inactive)
REMARK    1  A    between atoms: O_2  and  C_11
REMARK    2  A    between atoms: O_3  and  C_12
REMARK    3  A    between atoms: N_8  and  C_16
REMARK    4  A    between atoms: N_9  and  C_19
REMARK    5  A    between atoms: N_10  and  C_20
REMARK    6  A    between atoms: N_10  and  C_27
REMARK    7  A    between atoms: N_10  and  C_28
REMARK    8  A    between atoms: C_13  and  C_15
REMARK    9  A    between atoms: C_14  and  C_16
REMARK   10  A    between atoms: C_15  and  C_17
REMARK   11  A    between atoms: C_18  and  C_21
REMARK   12  A    between atoms: C_19  and  C_20
REMARK                            x       y       z     vdW  Elec       q    Type
REMARK                         _______ _______ _______ _____ _____    ______ ____
ROOT
ATOM      1  O   UNL     1      12.590   8.311  22.310  0.00  0.00    -0.366 OA
ATOM     11  C   UNL     1      10.774   7.482  21.046  0.00  0.00    +0.175 C 
ATOM     12  C   UNL     1      11.941   6.538  20.846  0.00  0.00    +0.176 C 
ATOM     13  C   UNL     1      11.159   8.185  22.341  0.00  0.00    +0.158 C 
ATOM     14  C   UNL     1      13.128   7.310  21.422  0.00  0.00    +0.167 C 
ENDROOT
BRANCH  11   2
ATOM      2  O   UNL     1      10.709   8.406  19.968  0.00  0.00    -0.387 OA
ATOM     30  H   UNL     1      10.461   7.907  19.171  0.00  0.00    +0.210 HD
ENDBRANCH  11   2
BRANCH  12   3
ATOM      3  O   UNL     1      11.741   5.369  21.637  0.00  0.00    -0.387 OA
ATOM     31  H   UNL     1      11.262   4.725  21.088  0.00  0.00    +0.210 HD
ENDBRANCH  12   3
BRANCH  13  15
ATOM     15  C   UNL     1      10.539   9.555  22.548  0.00  0.00    +0.130 C 
BRANCH  15  17
ATOM      4  O   UNL     1      11.771  11.234  21.318  0.00  0.00    -0.276 OA
ATOM      9  N   UNL     1      12.163  10.985  23.595  0.00  0.00    -0.314 N 
ATOM     17  C   UNL     1      11.546  10.680  22.390  0.00  0.00    +0.216 C 
ATOM     33  H   UNL     1      11.913  10.466  24.431  0.00  0.00    +0.149 HD
BRANCH   9  19
ATOM     19  C   UNL     1      13.167  12.015  23.728  0.00  0.00    +0.119 C 
BRANCH  19  20
ATOM     20  C   UNL     1      14.333  11.539  24.582  0.00  0.00    +0.102 C 
BRANCH  20  10
ATOM     10  N   UNL     1      14.028  11.709  25.997  0.00  0.00    -0.307 NA
ATOM     27  C   UNL     1      13.534  13.062  26.261  0.00  0.00    +0.104 C 
ATOM     28  C   UNL     1      15.209  11.431  26.816  0.00  0.00    +0.104 C 
ENDBRANCH  20  10
ENDBRANCH  19  20
ENDBRANCH   9  19
ENDBRANCH  15  17
ENDBRANCH  13  15
BRANCH  14  16
ATOM     16  C   UNL     1      13.951   8.027  20.361  0.00  0.00    +0.138 C 
BRANCH  16   8
ATOM      5  O   UNL     1      15.762   6.129  19.194  0.00  0.00    -0.270 OA
ATOM      8  N   UNL     1      15.354   7.908  20.625  0.00  0.00    -0.309 N 
ATOM     18  C   UNL     1      16.160   6.954  20.012  0.00  0.00    +0.244 C 
ATOM     32  H   UNL     1      15.735   8.524  21.336  0.00  0.00    +0.149 HD
BRANCH  18  21
ATOM      6  O   UNL     1      20.644   4.916  20.257  0.00  0.00    -0.453 OA
ATOM      7  O   UNL     1      21.555   6.793  21.464  0.00  0.00    -0.453 OA
ATOM     21  C   UNL     1      17.590   6.944  20.415  0.00  0.00    +0.040 A 
ATOM     22  C   UNL     1      18.395   5.849  20.089  0.00  0.00    +0.062 A 
ATOM     23  C   UNL     1      18.122   8.038  21.119  0.00  0.00    +0.017 A 
ATOM     24  C   UNL     1      19.716   5.886  20.482  0.00  0.00    +0.167 A 
ATOM     25  C   UNL     1      20.236   6.957  21.172  0.00  0.00    +0.166 A 
ATOM     26  C   UNL     1      19.464   8.051  21.507  0.00  0.00    +0.050 A 
ATOM     29  C   UNL     1      21.807   5.498  20.881  0.00  0.00    +0.466 C 
ENDBRANCH  18  21
ENDBRANCH  16   8
ENDBRANCH  14  16
TORSDOF 10
ENDMDL
MODEL 2
REMARK VINA RESULT:      -6.8      1.946      2.415
REMARK  Name = 44716532
REMARK  12 active torsions:
REMARK  status: ('A' for Active; 'I' for Inactive)
REMARK    1  A    between atoms: O_2  and  C_11
REMARK    2  A    between atoms: O_3  and  C_12
REMARK    3  A    between atoms: N_8  and  C_16
REMARK    4  A    between atoms: N_9  and  C_19
REMARK    5  A    between atoms: N_10  and  C_20
REMARK    6  A    between atoms: N_10  and  C_27
REMARK    7  A    between atoms: N_10  and  C_28
REMARK    8  A    between atoms: C_13  and  C_15
REMARK    9  A    between atoms: C_14  and  C_16
REMARK   10  A    between atoms: C_15  and  C_17
REMARK   11  A    between atoms: C_18  and  C_21
REMARK   12  A    between atoms: C_19  and  C_20
REMARK                            x       y       z     vdW  Elec       q    Type
REMARK                         _______ _______ _______ _____ _____    ______ ____
ROOT
ATOM      1  O   UNL     1      12.558   8.378  22.261  0.00  0.00    -0.366 OA
ATOM     11  C   UNL     1      10.758   7.496  21.009  0.00  0.00    +0.175 C 
ATOM     12  C   UNL     1      11.930   6.547  20.861  0.00  0.00    +0.176 C 
ATOM     13  C   UNL     1      11.126   8.251  22.280  0.00  0.00    +0.158 C 
ATOM     14  C   UNL     1      13.108   7.345  21.419  0.00  0.00    +0.167 C 
ENDROOT
BRANCH  11   2
ATOM      2  O   UNL     1      10.705   8.376  19.895  0.00  0.00    -0.387 OA
ATOM     30  H   UNL     1      11.614   8.495  19.573  0.00  0.00    +0.210 HD
ENDBRANCH  11   2
BRANCH  12   3
ATOM      3  O   UNL     1      11.722   5.410  21.695  0.00  0.00    -0.387 OA
ATOM     31  H   UNL     1      11.823   4.619  21.138  0.00  0.00    +0.210 HD
ENDBRANCH  12   3
BRANCH  13  15
ATOM     15  C   UNL     1      10.502   9.626  22.425  0.00  0.00    +0.130 C 
BRANCH  15  17
ATOM      4  O   UNL     1      11.876  11.235  23.597  0.00  0.00    -0.276 OA
ATOM      9  N   UNL     1      12.039  11.080  21.285  0.00  0.00    -0.314 N 
ATOM     17  C   UNL     1      11.539  10.730  22.531  0.00  0.00    +0.216 C 
ATOM     33  H   UNL     1      11.694  10.606  20.455  0.00  0.00    +0.149 HD
BRANCH   9  19
ATOM     19  C   UNL     1      13.038  12.107  21.096  0.00  0.00    +0.119 C 
BRANCH  19  20
ATOM     20  C   UNL     1      14.443  11.534  21.202  0.00  0.00    +0.102 C 
BRANCH  20  10
ATOM     10  N   UNL     1      15.214  11.857  20.009  0.00  0.00    -0.307 NA
ATOM     27  C   UNL     1      16.556  11.275  20.087  0.00  0.00    +0.104 C 
ATOM     28  C   UNL     1      15.300  13.307  19.827  0.00  0.00    +0.104 C 
ENDBRANCH  20  10
ENDBRANCH  19  20
ENDBRANCH   9  19
ENDBRANCH  15  17
ENDBRANCH  13  15
BRANCH  14  16
ATOM     16  C   UNL     1      13.942   8.021  20.340  0.00  0.00    +0.138 C 
BRANCH  16   8
ATOM      5  O   UNL     1      15.767   6.122  19.198  0.00  0.00    -0.270 OA
ATOM      8  N   UNL     1      15.343   7.905  20.619  0.00  0.00    -0.309 N 
ATOM     18  C   UNL     1      16.157   6.950  20.017  0.00  0.00    +0.244 C 
ATOM     32  H   UNL     1      15.715   8.524  21.332  0.00  0.00    +0.149 HD
BRANCH  18  21
ATOM      6  O   UNL     1      20.658   4.950  20.258  0.00  0.00    -0.453 OA
ATOM      7  O   UNL     1      21.538   6.804  21.520  0.00  0.00    -0.453 OA
ATOM     21  C   UNL     1      17.582   6.944  20.434  0.00  0.00    +0.040 A 
ATOM     22  C   UNL     1      18.401   5.865  20.090  0.00  0.00    +0.062 A 
ATOM     23  C   UNL     1      18.097   8.026  21.171  0.00  0.00    +0.017 A 
ATOM     24  C   UNL     1      19.718   5.905  20.498  0.00  0.00    +0.167 A 
ATOM     25  C   UNL     1      20.221   6.963  21.219  0.00  0.00    +0.166 A 
ATOM     26  C   UNL     1      19.434   8.041  21.572  0.00  0.00    +0.050 A 
ATOM     29  C   UNL     1      21.808   5.526  20.908  0.00  0.00    +0.466 C 
ENDBRANCH  18  21
ENDBRANCH  16   8
ENDBRANCH  14  16
TORSDOF 10
ENDMDL
MODEL 3
REMARK VINA RESULT:      -6.4     30.931     32.864
REMARK  Name = 44716532
REMARK  12 active torsions:
REMARK  status: ('A' for Active; 'I' for Inactive)
REMARK    1  A    between atoms: O_2  and  C_11
REMARK    2  A    between atoms: O_3  and  C_12
REMARK    3  A    between atoms: N_8  and  C_16
REMARK    4  A    between atoms: N_9  and  C_19
REMARK    5  A    between atoms: N_10  and  C_20
REMARK    6  A    between atoms: N_10  and  C_27
REMARK    7  A    between atoms: N_10  and  C_28
REMARK    8  A    between atoms: C_13  and  C_15
REMARK    9  A    between atoms: C_14  and  C_16
REMARK   10  A    between atoms: C_15  and  C_17
REMARK   11  A    between atoms: C_18  and  C_21
REMARK   12  A    between atoms: C_19  and  C_20
REMARK                            x       y       z     vdW  Elec       q    Type
REMARK                         _______ _______ _______ _____ _____    ______ ____
ROOT
ATOM      1  O   UNL     1     -15.793   1.740  30.985  0.00  0.00    -0.366 OA
ATOM     11  C   UNL     1     -13.993   1.034  29.627  0.00  0.00    +0.175 C 
ATOM     12  C   UNL     1     -14.131   0.039  30.760  0.00  0.00    +0.176 C 
ATOM     13  C   UNL     1     -15.371   1.685  29.613  0.00  0.00    +0.158 C 
ATOM     14  C   UNL     1     -15.079   0.737  31.736  0.00  0.00    +0.167 C 
ENDROOT
BRANCH  11   2
ATOM      2  O   UNL     1     -12.986   1.987  29.941  0.00  0.00    -0.387 OA
ATOM     30  H   UNL     1     -12.786   1.898  30.888  0.00  0.00    +0.210 HD
ENDBRANCH  11   2
BRANCH  12   3
ATOM      3  O   UNL     1     -14.774  -1.139  30.276  0.00  0.00    -0.387 OA
ATOM     31  H   UNL     1     -14.701  -1.816  30.971  0.00  0.00    +0.210 HD
ENDBRANCH  12   3
BRANCH  13  15
ATOM     15  C   UNL     1     -15.427   3.078  29.014  0.00  0.00    +0.130 C 
BRANCH  15  17
ATOM      4  O   UNL     1     -17.553   2.858  27.882  0.00  0.00    -0.276 OA
ATOM      9  N   UNL     1     -15.710   3.620  26.690  0.00  0.00    -0.314 N 
ATOM     17  C   UNL     1     -16.366   3.164  27.824  0.00  0.00    +0.216 C 
ATOM     33  H   UNL     1     -14.720   3.845  26.739  0.00  0.00    +0.149 HD
BRANCH   9  19
ATOM     19  C   UNL     1     -16.367   3.792  25.414  0.00  0.00    +0.119 C 
BRANCH  19  20
ATOM     20  C   UNL     1     -16.287   2.523  24.579  0.00  0.00    +0.102 C 
BRANCH  20  10
ATOM     10  N   UNL     1     -16.437   2.837  23.164  0.00  0.00    -0.307 NA
ATOM     27  C   UNL     1     -16.222   4.265  22.926  0.00  0.00    +0.104 C 
ATOM     28  C   UNL     1     -17.761   2.436  22.684  0.00  0.00    +0.104 C 
ENDBRANCH  20  10
ENDBRANCH  19  20
ENDBRANCH   9  19
ENDBRANCH  15  17
ENDBRANCH  13  15
BRANCH  14  16
ATOM     16  C   UNL     1     -14.358   1.438  32.878  0.00  0.00    +0.138 C 
BRANCH  16   8
ATOM      5  O   UNL     1     -12.892   3.786  32.115  0.00  0.00    -0.270 OA
ATOM      8  N   UNL     1     -14.792   2.798  33.008  0.00  0.00    -0.309 N 
ATOM     18  C   UNL     1     -14.013   3.880  32.610  0.00  0.00    +0.244 C 
ATOM     32  H   UNL     1     -15.685   2.947  33.464  0.00  0.00    +0.149 HD
BRANCH  18  21
ATOM      6  O   UNL     1     -17.753   6.948  33.570  0.00  0.00    -0.453 OA
ATOM      7  O   UNL     1     -16.330   8.891  33.483  0.00  0.00    -0.453 OA
ATOM     21  C   UNL     1     -14.595   5.228  32.836  0.00  0.00    +0.040 A 
ATOM     22  C   UNL     1     -15.961   5.357  33.099  0.00  0.00    +0.062 A 
ATOM     23  C   UNL     1     -13.766   6.362  32.786  0.00  0.00    +0.017 A 
ATOM     24  C   UNL     1     -16.456   6.628  33.305  0.00  0.00    +0.167 A 
ATOM     25  C   UNL     1     -15.645   7.738  33.254  0.00  0.00    +0.166 A 
ATOM     26  C   UNL     1     -14.292   7.638  32.997  0.00  0.00    +0.050 A 
ATOM     29  C   UNL     1     -17.665   8.383  33.683  0.00  0.00    +0.466 C 
ENDBRANCH  18  21
ENDBRANCH  16   8
ENDBRANCH  14  16
TORSDOF 10
ENDMDL
MODEL 4
REMARK VINA RESULT:      -6.3      1.759      2.548
REMARK  Name = 44716532
REMARK  12 active torsions:
REMARK  status: ('A' for Active; 'I' for Inactive)
REMARK    1  A    between atoms: O_2  and  C_11
REMARK    2  A    between atoms: O_3  and  C_12
REMARK    3  A    between atoms: N_8  and  C_16
REMARK    4  A    between atoms: N_9  and  C_19
REMARK    5  A    between atoms: N_10  and  C_20
REMARK    6  A    between atoms: N_10  and  C_27
REMARK    7  A    between atoms: N_10  and  C_28
REMARK    8  A    between atoms: C_13  and  C_15
REMARK    9  A    between atoms: C_14  and  C_16
REMARK   10  A    between atoms: C_15  and  C_17
REMARK   11  A    between atoms: C_18  and  C_21
REMARK   12  A    between atoms: C_19  and  C_20
REMARK                            x       y       z     vdW  Elec       q    Type
REMARK                         _______ _______ _______ _____ _____    ______ ____
ROOT
ATOM      1  O   UNL     1      12.247   8.656  19.526  0.00  0.00    -0.366 OA
ATOM     11  C   UNL     1      13.832  10.015  20.632  0.00  0.00    +0.175 C 
ATOM     12  C   UNL     1      14.508   9.419  19.415  0.00  0.00    +0.176 C 
ATOM     13  C   UNL     1      12.358   9.881  20.268  0.00  0.00    +0.158 C 
ATOM     14  C   UNL     1      13.534   8.332  18.961  0.00  0.00    +0.167 C 
ENDROOT
BRANCH  11   2
ATOM      2  O   UNL     1      14.141   9.242  21.784  0.00  0.00    -0.387 OA
ATOM     30  H   UNL     1      15.069   9.420  22.014  0.00  0.00    +0.210 HD
ENDBRANCH  11   2
BRANCH  12   3
ATOM      3  O   UNL     1      14.586  10.408  18.390  0.00  0.00    -0.387 OA
ATOM     31  H   UNL     1      15.338  10.175  17.819  0.00  0.00    +0.210 HD
ENDBRANCH  12   3
BRANCH  13  15
ATOM     15  C   UNL     1      11.398   9.846  21.443  0.00  0.00    +0.130 C 
BRANCH  15  17
ATOM      4  O   UNL     1      11.187  12.203  21.943  0.00  0.00    -0.276 OA
ATOM      9  N   UNL     1      12.005  10.768  23.578  0.00  0.00    -0.314 N 
ATOM     17  C   UNL     1      11.505  11.080  22.321  0.00  0.00    +0.216 C 
ATOM     33  H   UNL     1      12.246   9.806  23.797  0.00  0.00    +0.149 HD
BRANCH   9  19
ATOM     19  C   UNL     1      12.212  11.757  24.611  0.00  0.00    +0.119 C 
BRANCH  19  20
ATOM     20  C   UNL     1      10.916  12.065  25.345  0.00  0.00    +0.102 C 
BRANCH  20  10
ATOM     10  N   UNL     1      10.854  13.480  25.691  0.00  0.00    -0.307 NA
ATOM     27  C   UNL     1      10.192  14.243  24.631  0.00  0.00    +0.104 C 
ATOM     28  C   UNL     1      12.196  14.011  25.936  0.00  0.00    +0.104 C 
ENDBRANCH  20  10
ENDBRANCH  19  20
ENDBRANCH   9  19
ENDBRANCH  15  17
ENDBRANCH  13  15
BRANCH  14  16
ATOM     16  C   UNL     1      13.916   6.941  19.447  0.00  0.00    +0.138 C 
BRANCH  16   8
ATOM      5  O   UNL     1      16.295   5.849  18.268  0.00  0.00    -0.270 OA
ATOM      8  N   UNL     1      15.230   6.935  20.019  0.00  0.00    -0.309 N 
ATOM     18  C   UNL     1      16.332   6.381  19.374  0.00  0.00    +0.244 C 
ATOM     32  H   UNL     1      15.317   7.308  20.959  0.00  0.00    +0.149 HD
BRANCH  18  21
ATOM      6  O   UNL     1      20.893   4.793  20.370  0.00  0.00    -0.453 OA
ATOM      7  O   UNL     1      21.224   6.462  22.076  0.00  0.00    -0.453 OA
ATOM     21  C   UNL     1      17.619   6.431  20.113  0.00  0.00    +0.040 A 
ATOM     22  C   UNL     1      18.628   5.512  19.812  0.00  0.00    +0.062 A 
ATOM     23  C   UNL     1      17.813   7.404  21.109  0.00  0.00    +0.017 A 
ATOM     24  C   UNL     1      19.806   5.599  20.523  0.00  0.00    +0.167 A 
ATOM     25  C   UNL     1      19.996   6.551  21.497  0.00  0.00    +0.166 A 
ATOM     26  C   UNL     1      19.017   7.470  21.815  0.00  0.00    +0.050 A 
ATOM     29  C   UNL     1      21.788   5.346  21.356  0.00  0.00    +0.466 C 
ENDBRANCH  18  21
ENDBRANCH  16   8
ENDBRANCH  14  16
TORSDOF 10
ENDMDL
MODEL 5
REMARK VINA RESULT:      -6.2     30.191     32.140
REMARK  Name = 44716532
REMARK  12 active torsions:
REMARK  status: ('A' for Active; 'I' for Inactive)
REMARK    1  A    between atoms: O_2  and  C_11
REMARK    2  A    between atoms: O_3  and  C_12
REMARK    3  A    between atoms: N_8  and  C_16
REMARK    4  A    between atoms: N_9  and  C_19
REMARK    5  A    between atoms: N_10  and  C_20
REMARK    6  A    between atoms: N_10  and  C_27
REMARK    7  A    between atoms: N_10  and  C_28
REMARK    8  A    between atoms: C_13  and  C_15
REMARK    9  A    between atoms: C_14  and  C_16
REMARK   10  A    between atoms: C_15  and  C_17
REMARK   11  A    between atoms: C_18  and  C_21
REMARK   12  A    between atoms: C_19  and  C_20
REMARK                            x       y       z     vdW  Elec       q    Type
REMARK                         _______ _______ _______ _____ _____    ______ ____
ROOT
ATOM      1  O   UNL     1     -15.741   2.359  31.574  0.00  0.00    -0.366 OA
ATOM     11  C   UNL     1     -13.558   2.406  32.477  0.00  0.00    +0.175 C 
ATOM     12  C   UNL     1     -14.513   2.866  33.560  0.00  0.00    +0.176 C 
ATOM     13  C   UNL     1     -14.490   1.652  31.537  0.00  0.00    +0.158 C 
ATOM     14  C   UNL     1     -15.819   3.108  32.804  0.00  0.00    +0.167 C 
ENDROOT
BRANCH  11   2
ATOM      2  O   UNL     1     -12.986   3.533  31.827  0.00  0.00    -0.387 OA
ATOM     30  H   UNL     1     -12.193   3.788  32.329  0.00  0.00    +0.210 HD
ENDBRANCH  11   2
BRANCH  12   3
ATOM      3  O   UNL     1     -14.721   1.802  34.486  0.00  0.00    -0.387 OA
ATOM     31  H   UNL     1     -13.933   1.232  34.455  0.00  0.00    +0.210 HD
ENDBRANCH  12   3
BRANCH  13  15
ATOM     15  C   UNL     1     -14.017   1.543  30.099  0.00  0.00    +0.130 C 
BRANCH  15  17
ATOM      4  O   UNL     1     -15.650   0.201  28.923  0.00  0.00    -0.276 OA
ATOM      9  N   UNL     1     -15.555   2.486  28.512  0.00  0.00    -0.314 N 
ATOM     17  C   UNL     1     -15.158   1.307  29.126  0.00  0.00    +0.216 C 
ATOM     33  H   UNL     1     -15.083   3.356  28.742  0.00  0.00    +0.149 HD
BRANCH   9  19
ATOM     19  C   UNL     1     -16.620   2.547  27.537  0.00  0.00    +0.119 C 
BRANCH  19  20
ATOM     20  C   UNL     1     -16.146   3.194  26.244  0.00  0.00    +0.102 C 
BRANCH  20  10
ATOM     10  N   UNL     1     -16.158   2.224  25.157  0.00  0.00    -0.307 NA
ATOM     27  C   UNL     1     -16.648   2.838  23.922  0.00  0.00    +0.104 C 
ATOM     28  C   UNL     1     -16.982   1.065  25.509  0.00  0.00    +0.104 C 
ENDBRANCH  20  10
ENDBRANCH  19  20
ENDBRANCH   9  19
ENDBRANCH  15  17
ENDBRANCH  13  15
BRANCH  14  16
ATOM     16  C   UNL     1     -16.044   4.570  32.443  0.00  0.00    +0.138 C 
BRANCH  16   8
ATOM      5  O   UNL     1     -15.036   7.099  31.533  0.00  0.00    -0.270 OA
ATOM      8  N   UNL     1     -15.120   5.421  33.133  0.00  0.00    -0.309 N 
ATOM     18  C   UNL     1     -14.683   6.637  32.615  0.00  0.00    +0.244 C 
ATOM     32  H   UNL     1     -14.744   5.068  34.007  0.00  0.00    +0.149 HD
BRANCH  18  21
ATOM      6  O   UNL     1     -12.361   7.649  36.846  0.00  0.00    -0.453 OA
ATOM      7  O   UNL     1     -11.033   9.387  35.833  0.00  0.00    -0.453 OA
ATOM     21  C   UNL     1     -13.704   7.389  33.441  0.00  0.00    +0.040 A 
ATOM     22  C   UNL     1     -13.559   7.082  34.796  0.00  0.00    +0.062 A 
ATOM     23  C   UNL     1     -12.929   8.403  32.851  0.00  0.00    +0.017 A 
ATOM     24  C   UNL     1     -12.636   7.806  35.522  0.00  0.00    +0.167 A 
ATOM     25  C   UNL     1     -11.879   8.798  34.944  0.00  0.00    +0.166 A 
ATOM     26  C   UNL     1     -12.001   9.121  33.608  0.00  0.00    +0.050 A 
ATOM     29  C   UNL     1     -11.344   8.654  37.036  0.00  0.00    +0.466 C 
ENDBRANCH  18  21
ENDBRANCH  16   8
ENDBRANCH  14  16
TORSDOF 10
ENDMDL
MODEL 6
REMARK VINA RESULT:      -6.2     26.714     29.432
REMARK  Name = 44716532
REMARK  12 active torsions:
REMARK  status: ('A' for Active; 'I' for Inactive)
REMARK    1  A    between atoms: O_2  and  C_11
REMARK    2  A    between atoms: O_3  and  C_12
REMARK    3  A    between atoms: N_8  and  C_16
REMARK    4  A    between atoms: N_9  and  C_19
REMARK    5  A    between atoms: N_10  and  C_20
REMARK    6  A    between atoms: N_10  and  C_27
REMARK    7  A    between atoms: N_10  and  C_28
REMARK    8  A    between atoms: C_13  and  C_15
REMARK    9  A    between atoms: C_14  and  C_16
REMARK   10  A    between atoms: C_15  and  C_17
REMARK   11  A    between atoms: C_18  and  C_21
REMARK   12  A    between atoms: C_19  and  C_20
REMARK                            x       y       z     vdW  Elec       q    Type
REMARK                         _______ _______ _______ _____ _____    ______ ____
ROOT
ATOM      1  O   UNL     1      -7.253  -9.663  18.106  0.00  0.00    -0.366 OA
ATOM     11  C   UNL     1      -9.298 -10.827  17.893  0.00  0.00    +0.175 C 
ATOM     12  C   UNL     1      -8.747 -11.118  19.274  0.00  0.00    +0.176 C 
ATOM     13  C   UNL     1      -8.562  -9.545  17.525  0.00  0.00    +0.158 C 
ATOM     14  C   UNL     1      -7.309 -10.602  19.199  0.00  0.00    +0.167 C 
ENDROOT
BRANCH  11   2
ATOM      2  O   UNL     1      -8.955 -11.881  17.004  0.00  0.00    -0.387 OA
ATOM     30  H   UNL     1      -8.177 -12.332  17.372  0.00  0.00    +0.210 HD
ENDBRANCH  11   2
BRANCH  12   3
ATOM      3  O   UNL     1      -9.453 -10.338  20.236  0.00  0.00    -0.387 OA
ATOM     31  H   UNL     1     -10.036 -10.942  20.728  0.00  0.00    +0.210 HD
ENDBRANCH  12   3
BRANCH  13  15
ATOM     15  C   UNL     1      -8.429  -9.274  16.038  0.00  0.00    +0.130 C 
BRANCH  15  17
ATOM      4  O   UNL     1     -10.444  -8.976  14.734  0.00  0.00    -0.276 OA
ATOM      9  N   UNL     1      -9.588  -7.172  15.922  0.00  0.00    -0.314 N 
ATOM     17  C   UNL     1      -9.602  -8.488  15.482  0.00  0.00    +0.216 C 
ATOM     33  H   UNL     1      -8.844  -6.857  16.538  0.00  0.00    +0.149 HD
BRANCH   9  19
ATOM     19  C   UNL     1     -10.589  -6.202  15.540  0.00  0.00    +0.119 C 
BRANCH  19  20
ATOM     20  C   UNL     1     -11.911  -6.471  16.243  0.00  0.00    +0.102 C 
BRANCH  20  10
ATOM     10  N   UNL     1     -12.976  -6.658  15.266  0.00  0.00    -0.307 NA
ATOM     27  C   UNL     1     -13.006  -5.545  14.315  0.00  0.00    +0.104 C 
ATOM     28  C   UNL     1     -14.273  -6.788  15.935  0.00  0.00    +0.104 C 
ENDBRANCH  20  10
ENDBRANCH  19  20
ENDBRANCH   9  19
ENDBRANCH  15  17
ENDBRANCH  13  15
BRANCH  14  16
ATOM     16  C   UNL     1      -6.291 -11.699  18.921  0.00  0.00    +0.138 C 
BRANCH  16   8
ATOM      5  O   UNL     1      -3.430 -11.769  18.691  0.00  0.00    -0.270 OA
ATOM      8  N   UNL     1      -5.519 -11.404  17.750  0.00  0.00    -0.309 N 
ATOM     18  C   UNL     1      -4.128 -11.463  17.728  0.00  0.00    +0.244 C 
ATOM     32  H   UNL     1      -6.034 -11.088  16.935  0.00  0.00    +0.149 HD
BRANCH  18  21
ATOM      6  O   UNL     1      -4.121 -10.749  12.849  0.00  0.00    -0.453 OA
ATOM      7  O   UNL     1      -1.794 -10.123  12.830  0.00  0.00    -0.453 OA
ATOM     21  C   UNL     1      -3.475 -11.102  16.444  0.00  0.00    +0.040 A 
ATOM     22  C   UNL     1      -4.215 -11.127  15.259  0.00  0.00    +0.062 A 
ATOM     23  C   UNL     1      -2.118 -10.737  16.432  0.00  0.00    +0.017 A 
ATOM     24  C   UNL     1      -3.566 -10.781  14.092  0.00  0.00    +0.167 A 
ATOM     25  C   UNL     1      -2.238 -10.425  14.080  0.00  0.00    +0.166 A 
ATOM     26  C   UNL     1      -1.484 -10.392  15.236  0.00  0.00    +0.050 A 
ATOM     29  C   UNL     1      -2.992 -10.331  12.054  0.00  0.00    +0.466 C 
ENDBRANCH  18  21
ENDBRANCH  16   8
ENDBRANCH  14  16
TORSDOF 10
ENDMDL
MODEL 7
REMARK VINA RESULT:      -6.2     19.360     22.389
REMARK  Name = 44716532
REMARK  12 active torsions:
REMARK  status: ('A' for Active; 'I' for Inactive)
REMARK    1  A    between atoms: O_2  and  C_11
REMARK    2  A    between atoms: O_3  and  C_12
REMARK    3  A    between atoms: N_8  and  C_16
REMARK    4  A    between atoms: N_9  and  C_19
REMARK    5  A    between atoms: N_10  and  C_20
REMARK    6  A    between atoms: N_10  and  C_27
REMARK    7  A    between atoms: N_10  and  C_28
REMARK    8  A    between atoms: C_13  and  C_15
REMARK    9  A    between atoms: C_14  and  C_16
REMARK   10  A    between atoms: C_15  and  C_17
REMARK   11  A    between atoms: C_18  and  C_21
REMARK   12  A    between atoms: C_19  and  C_20
REMARK                            x       y       z     vdW  Elec       q    Type
REMARK                         _______ _______ _______ _____ _____    ______ ____
ROOT
ATOM      1  O   UNL     1      13.760   3.259  -0.130  0.00  0.00    -0.366 OA
ATOM     11  C   UNL     1      14.957   5.093   0.758  0.00  0.00    +0.175 C 
ATOM     12  C   UNL     1      14.421   4.286   1.923  0.00  0.00    +0.176 C 
ATOM     13  C   UNL     1      14.920   4.071  -0.372  0.00  0.00    +0.158 C 
ATOM     14  C   UNL     1      13.418   3.336   1.268  0.00  0.00    +0.167 C 
ENDROOT
BRANCH  11   2
ATOM      2  O   UNL     1      14.087   6.183   0.483  0.00  0.00    -0.387 OA
ATOM     30  H   UNL     1      14.370   6.929   1.039  0.00  0.00    +0.210 HD
ENDBRANCH  11   2
BRANCH  12   3
ATOM      3  O   UNL     1      15.477   3.508   2.481  0.00  0.00    -0.387 OA
ATOM     31  H   UNL     1      16.093   3.294   1.760  0.00  0.00    +0.210 HD
ENDBRANCH  12   3
BRANCH  13  15
ATOM     15  C   UNL     1      14.844   4.651  -1.773  0.00  0.00    +0.130 C 
BRANCH  15  17
ATOM      4  O   UNL     1      12.602   5.420  -2.253  0.00  0.00    -0.276 OA
ATOM      9  N   UNL     1      13.285   3.349  -3.055  0.00  0.00    -0.314 N 
ATOM     17  C   UNL     1      13.454   4.545  -2.373  0.00  0.00    +0.216 C 
ATOM     33  H   UNL     1      14.050   2.682  -3.096  0.00  0.00    +0.149 HD
BRANCH   9  19
ATOM     19  C   UNL     1      12.053   2.988  -3.720  0.00  0.00    +0.119 C 
BRANCH  19  20
ATOM     20  C   UNL     1      11.110   2.261  -2.773  0.00  0.00    +0.102 C 
BRANCH  20  10
ATOM     10  N   UNL     1       9.727   2.450  -3.190  0.00  0.00    -0.307 NA
ATOM     27  C   UNL     1       9.106   1.166  -3.521  0.00  0.00    +0.104 C 
ATOM     28  C   UNL     1       9.654   3.359  -4.337  0.00  0.00    +0.104 C 
ENDBRANCH  20  10
ENDBRANCH  19  20
ENDBRANCH   9  19
ENDBRANCH  15  17
ENDBRANCH  13  15
BRANCH  14  16
ATOM     16  C   UNL     1      11.978   3.821   1.367  0.00  0.00    +0.138 C 
BRANCH  16   8
ATOM      5  O   UNL     1      10.625   6.261   2.045  0.00  0.00    -0.270 OA
ATOM      8  N   UNL     1      11.680   4.297   2.685  0.00  0.00    -0.309 N 
ATOM     18  C   UNL     1      11.018   5.497   2.923  0.00  0.00    +0.244 C 
ATOM     32  H   UNL     1      12.030   3.740   3.458  0.00  0.00    +0.149 HD
BRANCH  18  21
ATOM      6  O   UNL     1       9.687   4.501   7.566  0.00  0.00    -0.453 OA
ATOM      7  O   UNL     1      10.191   6.737   8.310  0.00  0.00    -0.453 OA
ATOM     21  C   UNL     1      10.809   5.862   4.348  0.00  0.00    +0.040 A 
ATOM     22  C   UNL     1      10.324   4.906   5.244  0.00  0.00    +0.062 A 
ATOM     23  C   UNL     1      11.103   7.166   4.783  0.00  0.00    +0.017 A 
ATOM     24  C   UNL     1      10.149   5.290   6.557  0.00  0.00    +0.167 A 
ATOM     25  C   UNL     1      10.436   6.567   6.983  0.00  0.00    +0.166 A 
ATOM     26  C   UNL     1      10.915   7.530   6.118  0.00  0.00    +0.050 A 
ATOM     29  C   UNL     1       9.718   5.424   8.674  0.00  0.00    +0.466 C 
ENDBRANCH  18  21
ENDBRANCH  16   8
ENDBRANCH  14  16
TORSDOF 10
ENDMDL
MODEL 8
REMARK VINA RESULT:      -6.2     27.163     29.261
REMARK  Name = 44716532
REMARK  12 active torsions:
REMARK  status: ('A' for Active; 'I' for Inactive)
REMARK    1  A    between atoms: O_2  and  C_11
REMARK    2  A    between atoms: O_3  and  C_12
REMARK    3  A    between atoms: N_8  and  C_16
REMARK    4  A    between atoms: N_9  and  C_19
REMARK    5  A    between atoms: N_10  and  C_20
REMARK    6  A    between atoms: N_10  and  C_27
REMARK    7  A    between atoms: N_10  and  C_28
REMARK    8  A    between atoms: C_13  and  C_15
REMARK    9  A    between atoms: C_14  and  C_16
REMARK   10  A    between atoms: C_15  and  C_17
REMARK   11  A    between atoms: C_18  and  C_21
REMARK   12  A    between atoms: C_19  and  C_20
REMARK                            x       y       z     vdW  Elec       q    Type
REMARK                         _______ _______ _______ _____ _____    ______ ____
ROOT
ATOM      1  O   UNL     1      -5.930  -9.733  17.100  0.00  0.00    -0.366 OA
ATOM     11  C   UNL     1      -7.655 -11.048  18.037  0.00  0.00    +0.175 C 
ATOM     12  C   UNL     1      -6.473 -11.099  18.983  0.00  0.00    +0.176 C 
ATOM     13  C   UNL     1      -7.359  -9.786  17.235  0.00  0.00    +0.158 C 
ATOM     14  C   UNL     1      -5.330 -10.505  18.160  0.00  0.00    +0.167 C 
ENDROOT
BRANCH  11   2
ATOM      2  O   UNL     1      -7.651 -12.195  17.197  0.00  0.00    -0.387 OA
ATOM     30  H   UNL     1      -7.810 -12.970  17.761  0.00  0.00    +0.210 HD
ENDBRANCH  11   2
BRANCH  12   3
ATOM      3  O   UNL     1      -6.722 -10.237  20.092  0.00  0.00    -0.387 OA
ATOM     31  H   UNL     1      -7.666 -10.312  20.312  0.00  0.00    +0.210 HD
ENDBRANCH  12   3
BRANCH  13  15
ATOM     15  C   UNL     1      -7.996  -9.725  15.859  0.00  0.00    +0.130 C 
BRANCH  15  17
ATOM      4  O   UNL     1     -10.380  -9.748  15.451  0.00  0.00    -0.276 OA
ATOM      9  N   UNL     1      -9.425  -7.893  16.473  0.00  0.00    -0.314 N 
ATOM     17  C   UNL     1      -9.402  -9.153  15.892  0.00  0.00    +0.216 C 
ATOM     33  H   UNL     1      -8.559  -7.478  16.806  0.00  0.00    +0.149 HD
BRANCH   9  19
ATOM     19  C   UNL     1     -10.635  -7.119  16.629  0.00  0.00    +0.119 C 
BRANCH  19  20
ATOM     20  C   UNL     1     -10.755  -6.061  15.541  0.00  0.00    +0.102 C 
BRANCH  20  10
ATOM     10  N   UNL     1     -12.157  -5.805  15.236  0.00  0.00    -0.307 NA
ATOM     27  C   UNL     1     -12.949  -7.029  15.374  0.00  0.00    +0.104 C 
ATOM     28  C   UNL     1     -12.299  -5.259  13.885  0.00  0.00    +0.104 C 
ENDBRANCH  20  10
ENDBRANCH  19  20
ENDBRANCH   9  19
ENDBRANCH  15  17
ENDBRANCH  13  15
BRANCH  14  16
ATOM     16  C   UNL     1      -4.441 -11.561  17.518  0.00  0.00    +0.138 C 
BRANCH  16   8
ATOM      5  O   UNL     1      -2.071 -10.650  16.178  0.00  0.00    -0.270 OA
ATOM      8  N   UNL     1      -4.289 -11.326  16.112  0.00  0.00    -0.309 N 
ATOM     18  C   UNL     1      -3.098 -10.882  15.545  0.00  0.00    +0.244 C 
ATOM     32  H   UNL     1      -5.119 -11.443  15.541  0.00  0.00    +0.149 HD
BRANCH  18  21
ATOM      6  O   UNL     1      -5.372 -10.317  11.206  0.00  0.00    -0.453 OA
ATOM      7  O   UNL     1      -3.290 -10.050  10.021  0.00  0.00    -0.453 OA
ATOM     21  C   UNL     1      -3.112 -10.660  14.077  0.00  0.00    +0.040 A 
ATOM     22  C   UNL     1      -4.330 -10.607  13.395  0.00  0.00    +0.062 A 
ATOM     23  C   UNL     1      -1.898 -10.504  13.385  0.00  0.00    +0.017 A 
ATOM     24  C   UNL     1      -4.292 -10.397  12.032  0.00  0.00    +0.167 A 
ATOM     25  C   UNL     1      -3.104 -10.245  11.355  0.00  0.00    +0.166 A 
ATOM     26  C   UNL     1      -1.887 -10.293  12.004  0.00  0.00    +0.050 A 
ATOM     29  C   UNL     1      -4.729 -10.096   9.934  0.00  0.00    +0.466 C 
ENDBRANCH  18  21
ENDBRANCH  16   8
ENDBRANCH  14  16
TORSDOF 10
ENDMDL
MODEL 9
REMARK VINA RESULT:      -6.1     28.402     31.932
REMARK  Name = 44716532
REMARK  12 active torsions:
REMARK  status: ('A' for Active; 'I' for Inactive)
REMARK    1  A    between atoms: O_2  and  C_11
REMARK    2  A    between atoms: O_3  and  C_12
REMARK    3  A    between atoms: N_8  and  C_16
REMARK    4  A    between atoms: N_9  and  C_19
REMARK    5  A    between atoms: N_10  and  C_20
REMARK    6  A    between atoms: N_10  and  C_27
REMARK    7  A    between atoms: N_10  and  C_28
REMARK    8  A    between atoms: C_13  and  C_15
REMARK    9  A    between atoms: C_14  and  C_16
REMARK   10  A    between atoms: C_15  and  C_17
REMARK   11  A    between atoms: C_18  and  C_21
REMARK   12  A    between atoms: C_19  and  C_20
REMARK                            x       y       z     vdW  Elec       q    Type
REMARK                         _______ _______ _______ _____ _____    ______ ____
ROOT
ATOM      1  O   UNL     1     -15.595   2.288  31.533  0.00  0.00    -0.366 OA
ATOM     11  C   UNL     1     -13.405   2.346  32.420  0.00  0.00    +0.175 C 
ATOM     12  C   UNL     1     -14.300   3.132  33.355  0.00  0.00    +0.176 C 
ATOM     13  C   UNL     1     -14.414   1.481  31.675  0.00  0.00    +0.158 C 
ATOM     14  C   UNL     1     -15.589   3.308  32.552  0.00  0.00    +0.167 C 
ENDROOT
BRANCH  11   2
ATOM      2  O   UNL     1     -12.741   3.231  31.528  0.00  0.00    -0.387 OA
ATOM     30  H   UNL     1     -11.789   3.043  31.585  0.00  0.00    +0.210 HD
ENDBRANCH  11   2
BRANCH  12   3
ATOM      3  O   UNL     1     -14.592   2.339  34.504  0.00  0.00    -0.387 OA
ATOM     31  H   UNL     1     -13.798   2.338  35.065  0.00  0.00    +0.210 HD
ENDBRANCH  12   3
BRANCH  13  15
ATOM     15  C   UNL     1     -13.971   0.994  30.307  0.00  0.00    +0.130 C 
BRANCH  15  17
ATOM      4  O   UNL     1     -15.759   0.389  28.794  0.00  0.00    -0.276 OA
ATOM      9  N   UNL     1     -14.990   2.581  28.818  0.00  0.00    -0.314 N 
ATOM     17  C   UNL     1     -15.009   1.257  29.231  0.00  0.00    +0.216 C 
ATOM     33  H   UNL     1     -14.328   3.228  29.236  0.00  0.00    +0.149 HD
BRANCH   9  19
ATOM     19  C   UNL     1     -15.874   3.103  27.800  0.00  0.00    +0.119 C 
BRANCH  19  20
ATOM     20  C   UNL     1     -16.846   4.118  28.382  0.00  0.00    +0.102 C 
BRANCH  20  10
ATOM     10  N   UNL     1     -17.882   3.443  29.154  0.00  0.00    -0.307 NA
ATOM     27  C   UNL     1     -18.598   2.475  28.321  0.00  0.00    +0.104 C 
ATOM     28  C   UNL     1     -18.818   4.415  29.721  0.00  0.00    +0.104 C 
ENDBRANCH  20  10
ENDBRANCH  19  20
ENDBRANCH   9  19
ENDBRANCH  15  17
ENDBRANCH  13  15
BRANCH  14  16
ATOM     16  C   UNL     1     -15.684   4.659  31.856  0.00  0.00    +0.138 C 
BRANCH  16   8
ATOM      5  O   UNL     1     -16.049   7.145  33.246  0.00  0.00    -0.270 OA
ATOM      8  N   UNL     1     -14.654   5.547  32.306  0.00  0.00    -0.309 N 
ATOM     18  C   UNL     1     -14.922   6.738  32.975  0.00  0.00    +0.244 C 
ATOM     32  H   UNL     1     -13.701   5.297  32.061  0.00  0.00    +0.149 HD
BRANCH  18  21
ATOM      6  O   UNL     1     -10.927   9.431  31.926  0.00  0.00    -0.453 OA
ATOM      7  O   UNL     1     -10.459   9.851  34.253  0.00  0.00    -0.453 OA
ATOM     21  C   UNL     1     -13.743   7.560  33.351  0.00  0.00    +0.040 A 
ATOM     22  C   UNL     1     -12.918   8.085  32.353  0.00  0.00    +0.062 A 
ATOM     23  C   UNL     1     -13.470   7.805  34.708  0.00  0.00    +0.017 A 
ATOM     24  C   UNL     1     -11.837   8.844  32.751  0.00  0.00    +0.167 A 
ATOM     25  C   UNL     1     -11.569   9.083  34.079  0.00  0.00    +0.166 A 
ATOM     26  C   UNL     1     -12.368   8.576  35.084  0.00  0.00    +0.050 A 
ATOM     29  C   UNL     1     -10.057  10.068  32.884  0.00  0.00    +0.466 C 
ENDBRANCH  18  21
ENDBRANCH  16   8
ENDBRANCH  14  16
TORSDOF 10
ENDMDL
MODEL 10
REMARK VINA RESULT:      -6.1     27.096     31.137
REMARK  Name = 44716532
REMARK  12 active torsions:
REMARK  status: ('A' for Active; 'I' for Inactive)
REMARK    1  A    between atoms: O_2  and  C_11
REMARK    2  A    between atoms: O_3  and  C_12
REMARK    3  A    between atoms: N_8  and  C_16
REMARK    4  A    between atoms: N_9  and  C_19
REMARK    5  A    between atoms: N_10  and  C_20
REMARK    6  A    between atoms: N_10  and  C_27
REMARK    7  A    between atoms: N_10  and  C_28
REMARK    8  A    between atoms: C_13  and  C_15
REMARK    9  A    between atoms: C_14  and  C_16
REMARK   10  A    between atoms: C_15  and  C_17
REMARK   11  A    between atoms: C_18  and  C_21
REMARK   12  A    between atoms: C_19  and  C_20
REMARK                            x       y       z     vdW  Elec       q    Type
REMARK                         _______ _______ _______ _____ _____    ______ ____
ROOT
ATOM      1  O   UNL     1     -17.353   5.429  23.136  0.00  0.00    -0.366 OA
ATOM     11  C   UNL     1     -15.140   4.604  23.206  0.00  0.00    +0.175 C 
ATOM     12  C   UNL     1     -16.039   3.564  23.842  0.00  0.00    +0.176 C 
ATOM     13  C   UNL     1     -16.133   5.410  22.377  0.00  0.00    +0.158 C 
ATOM     14  C   UNL     1     -17.360   4.306  24.040  0.00  0.00    +0.167 C 
ENDROOT
BRANCH  11   2
ATOM      2  O   UNL     1     -14.548   5.413  24.214  0.00  0.00    -0.387 OA
ATOM     30  H   UNL     1     -15.149   6.159  24.380  0.00  0.00    +0.210 HD
ENDBRANCH  11   2
BRANCH  12   3
ATOM      3  O   UNL     1     -16.255   2.501  22.917  0.00  0.00    -0.387 OA
ATOM     31  H   UNL     1     -16.544   2.900  22.078  0.00  0.00    +0.210 HD
ENDBRANCH  12   3
BRANCH  13  15
ATOM     15  C   UNL     1     -15.714   6.835  22.063  0.00  0.00    +0.130 C 
BRANCH  15  17
ATOM      4  O   UNL     1     -14.861   6.952  19.802  0.00  0.00    -0.276 OA
ATOM      9  N   UNL     1     -13.361   6.896  21.576  0.00  0.00    -0.314 N 
ATOM     17  C   UNL     1     -14.626   6.902  21.006  0.00  0.00    +0.216 C 
ATOM     33  H   UNL     1     -13.267   6.848  22.587  0.00  0.00    +0.149 HD
BRANCH   9  19
ATOM     19  C   UNL     1     -12.145   6.950  20.798  0.00  0.00    +0.119 C 
BRANCH  19  20
ATOM     20  C   UNL     1     -11.786   8.383  20.436  0.00  0.00    +0.102 C 
BRANCH  20  10
ATOM     10  N   UNL     1     -11.153   8.432  19.124  0.00  0.00    -0.307 NA
ATOM     27  C   UNL     1     -10.242   9.574  19.031  0.00  0.00    +0.104 C 
ATOM     28  C   UNL     1     -12.163   8.501  18.066  0.00  0.00    +0.104 C 
ENDBRANCH  20  10
ENDBRANCH  19  20
ENDBRANCH   9  19
ENDBRANCH  15  17
ENDBRANCH  13  15
BRANCH  14  16
ATOM     16  C   UNL     1     -17.541   4.848  25.451  0.00  0.00    +0.138 C 
BRANCH  16   8
ATOM      5  O   UNL     1     -18.399   3.258  27.682  0.00  0.00    -0.270 OA
ATOM      8  N   UNL     1     -16.700   4.156  26.383  0.00  0.00    -0.309 N 
ATOM     18  C   UNL     1     -17.204   3.405  27.440  0.00  0.00    +0.244 C 
ATOM     32  H   UNL     1     -15.700   4.285  26.273  0.00  0.00    +0.149 HD
BRANCH  18  21
ATOM      6  O   UNL     1     -14.957  -0.492  29.462  0.00  0.00    -0.453 OA
ATOM      7  O   UNL     1     -13.471   0.894  30.757  0.00  0.00    -0.453 OA
ATOM     21  C   UNL     1     -16.200   2.771  28.333  0.00  0.00    +0.040 A 
ATOM     22  C   UNL     1     -16.124   1.378  28.413  0.00  0.00    +0.062 A 
ATOM     23  C   UNL     1     -15.333   3.579  29.090  0.00  0.00    +0.017 A 
ATOM     24  C   UNL     1     -15.175   0.836  29.254  0.00  0.00    +0.167 A 
ATOM     25  C   UNL     1     -14.327   1.627  29.995  0.00  0.00    +0.166 A 
ATOM     26  C   UNL     1     -14.381   3.004  29.934  0.00  0.00    +0.050 A 
ATOM     29  C   UNL     1     -13.875  -0.447  30.414  0.00  0.00    +0.466 C 
ENDBRANCH  18  21
ENDBRANCH  16   8
ENDBRANCH  14  16
TORSDOF 10
ENDMDL
