MODEL 1
REMARK VINA RESULT:      -6.8      0.000      0.000
REMARK  Name = 75536688
REMARK  10 active torsions:
REMARK  status: ('A' for Active; 'I' for Inactive)
REMARK    1  A    between atoms: S_1  and  N_10
REMARK    2  A    between atoms: S_1  and  C_18
REMARK    3  A    between atoms: S_2  and  C_21
REMARK    4  A    between atoms: S_2  and  C_28
REMARK    5  A    between atoms: O_4  and  C_12
REMARK    6  A    between atoms: N_9  and  C_11
REMARK    7  A    between atoms: N_9  and  C_16
REMARK    8  A    between atoms: N_10  and  C_15
REMARK    9  A    between atoms: C_13  and  C_15
REMARK   10  A    between atoms: C_16  and  C_17
REMARK                            x       y       z     vdW  Elec       q    Type
REMARK                         _______ _______ _______ _____ _____    ______ ____
ROOT
ATOM      3  O   UNL     1      10.621   8.477  19.871  0.00  0.00    -0.371 OA
ATOM     11  C   UNL     1      12.804   7.614  19.506  0.00  0.00    +0.111 C 
ATOM     12  C   UNL     1      12.645   7.953  20.977  0.00  0.00    +0.164 C 
ATOM     13  C   UNL     1      11.129   7.962  21.114  0.00  0.00    +0.164 C 
ATOM     14  C   UNL     1      11.671   8.417  18.889  0.00  0.00    +0.181 C 
ENDROOT
BRANCH  12   4
ATOM      4  O   UNL     1      13.245   6.993  21.825  0.00  0.00    -0.388 OA
ATOM     31  H   UNL     1      13.491   7.431  22.658  0.00  0.00    +0.210 HD
ENDBRANCH  12   4
BRANCH  11   9
ATOM      9  N   UNL     1      14.106   7.966  18.965  0.00  0.00    -0.305 NA
ATOM     30  H   UNL     1      14.628   8.491  19.667  0.00  0.00    +0.123 HD
BRANCH   9  16
ATOM     16  C   UNL     1      14.867   6.773  18.609  0.00  0.00    +0.116 C 
BRANCH  16  17
ATOM     17  C   UNL     1      16.178   6.704  19.345  0.00  0.00    -0.033 A 
ATOM     19  C   UNL     1      17.159   5.800  18.936  0.00  0.00    +0.007 A 
ATOM     20  C   UNL     1      16.411   7.542  20.435  0.00  0.00    +0.007 A 
ATOM     21  C   UNL     1      18.608   6.574  20.708  0.00  0.00    +0.088 A 
ATOM     22  C   UNL     1      18.375   5.736  19.618  0.00  0.00    +0.027 A 
ATOM     23  C   UNL     1      17.626   7.477  21.116  0.00  0.00    +0.027 A 
BRANCH  21   2
ATOM      2  S   UNL     1      20.128   6.492  21.564  0.00  0.00    -0.006 S 
ATOM      7  O   UNL     1      20.954   7.625  21.170  0.00  0.00    -0.170 OA
ATOM      8  O   UNL     1      19.837   6.264  22.973  0.00  0.00    -0.170 OA
ATOM     28  C   UNL     1      20.917   5.031  20.926  0.00  0.00    +0.200 C 
ENDBRANCH  21   2
ENDBRANCH  16  17
ENDBRANCH   9  16
ENDBRANCH  11   9
BRANCH  13  15
ATOM     15  C   UNL     1      10.635   8.820  22.265  0.00  0.00    +0.140 C 
BRANCH  15  10
ATOM     10  N   UNL     1      11.789   9.396  22.984  0.00  0.00    -0.187 NA
ATOM     32  H   UNL     1      12.118   8.863  23.799  0.00  0.00    +0.148 HD
BRANCH  10   1
ATOM      1  S   UNL     1      12.063  11.074  22.948  0.00  0.00    +0.058 S 
ATOM      5  O   UNL     1      12.739  11.477  24.166  0.00  0.00    -0.153 OA
ATOM      6  O   UNL     1      10.842  11.743  22.537  0.00  0.00    -0.153 OA
BRANCH   1  18
ATOM     18  C   UNL     1      13.208  11.226  21.611  0.00  0.00    +0.105 A 
ATOM     24  C   UNL     1      14.563  10.965  21.822  0.00  0.00    +0.028 A 
ATOM     25  C   UNL     1      12.760  11.607  20.347  0.00  0.00    +0.028 A 
ATOM     26  C   UNL     1      15.468  11.085  20.766  0.00  0.00    +0.002 A 
ATOM     27  C   UNL     1      13.665  11.727  19.293  0.00  0.00    +0.002 A 
ATOM     29  C   UNL     1      15.018  11.466  19.502  0.00  0.00    +0.000 A 
ENDBRANCH   1  18
ENDBRANCH  10   1
ENDBRANCH  15  10
ENDBRANCH  13  15
TORSDOF 9
ENDMDL
MODEL 2
REMARK VINA RESULT:      -6.8     26.923     30.621
REMARK  Name = 75536688
REMARK  10 active torsions:
REMARK  status: ('A' for Active; 'I' for Inactive)
REMARK    1  A    between atoms: S_1  and  N_10
REMARK    2  A    between atoms: S_1  and  C_18
REMARK    3  A    between atoms: S_2  and  C_21
REMARK    4  A    between atoms: S_2  and  C_28
REMARK    5  A    between atoms: O_4  and  C_12
REMARK    6  A    between atoms: N_9  and  C_11
REMARK    7  A    between atoms: N_9  and  C_16
REMARK    8  A    between atoms: N_10  and  C_15
REMARK    9  A    between atoms: C_13  and  C_15
REMARK   10  A    between atoms: C_16  and  C_17
REMARK                            x       y       z     vdW  Elec       q    Type
REMARK                         _______ _______ _______ _____ _____    ______ ____
ROOT
ATOM      3  O   UNL     1     -17.306   5.577  24.457  0.00  0.00    -0.371 OA
ATOM     11  C   UNL     1     -15.950   4.330  22.957  0.00  0.00    +0.111 C 
ATOM     12  C   UNL     1     -15.746   3.802  24.365  0.00  0.00    +0.164 C 
ATOM     13  C   UNL     1     -17.009   4.302  25.052  0.00  0.00    +0.164 C 
ATOM     14  C   UNL     1     -16.558   5.695  23.234  0.00  0.00    +0.181 C 
ENDROOT
BRANCH  12   4
ATOM      4  O   UNL     1     -15.645   2.392  24.409  0.00  0.00    -0.388 OA
ATOM     31  H   UNL     1     -16.029   2.083  25.247  0.00  0.00    +0.210 HD
ENDBRANCH  12   4
BRANCH  11   9
ATOM      9  N   UNL     1     -14.724   4.404  22.179  0.00  0.00    -0.305 NA
ATOM     30  H   UNL     1     -14.962   4.498  21.191  0.00  0.00    +0.123 HD
BRANCH   9  16
ATOM     16  C   UNL     1     -13.916   5.551  22.580  0.00  0.00    +0.116 C 
BRANCH  16  17
ATOM     17  C   UNL     1     -13.413   6.325  21.391  0.00  0.00    -0.033 A 
ATOM     19  C   UNL     1     -12.047   6.369  21.115  0.00  0.00    +0.007 A 
ATOM     20  C   UNL     1     -14.314   6.999  20.565  0.00  0.00    +0.007 A 
ATOM     21  C   UNL     1     -12.480   7.759  19.188  0.00  0.00    +0.088 A 
ATOM     22  C   UNL     1     -11.580   7.087  20.013  0.00  0.00    +0.027 A 
ATOM     23  C   UNL     1     -13.847   7.716  19.463  0.00  0.00    +0.027 A 
BRANCH  21   2
ATOM      2  S   UNL     1     -11.896   8.660  17.810  0.00  0.00    -0.006 S 
ATOM      7  O   UNL     1     -11.891  10.079  18.141  0.00  0.00    -0.170 OA
ATOM      8  O   UNL     1     -10.673   8.022  17.343  0.00  0.00    -0.170 OA
ATOM     28  C   UNL     1     -13.145   8.425  16.566  0.00  0.00    +0.200 C 
ENDBRANCH  21   2
ENDBRANCH  16  17
ENDBRANCH   9  16
ENDBRANCH  11   9
BRANCH  13  15
ATOM     15  C   UNL     1     -16.852   4.462  26.554  0.00  0.00    +0.140 C 
BRANCH  15  10
ATOM     10  N   UNL     1     -15.987   3.387  27.079  0.00  0.00    -0.187 NA
ATOM     32  H   UNL     1     -15.079   3.276  26.610  0.00  0.00    +0.148 HD
BRANCH  10   1
ATOM      1  S   UNL     1     -16.679   2.030  27.836  0.00  0.00    +0.058 S 
ATOM      5  O   UNL     1     -16.532   0.872  26.977  0.00  0.00    -0.153 OA
ATOM      6  O   UNL     1     -17.986   2.394  28.351  0.00  0.00    -0.153 OA
BRANCH   1  18
ATOM     18  C   UNL     1     -15.617   1.814  29.233  0.00  0.00    +0.105 A 
ATOM     24  C   UNL     1     -14.757   2.842  29.619  0.00  0.00    +0.028 A 
ATOM     25  C   UNL     1     -15.639   0.617  29.948  0.00  0.00    +0.028 A 
ATOM     26  C   UNL     1     -13.918   2.672  30.722  0.00  0.00    +0.002 A 
ATOM     27  C   UNL     1     -14.801   0.447  31.049  0.00  0.00    +0.002 A 
ATOM     29  C   UNL     1     -13.941   1.474  31.436  0.00  0.00    +0.000 A 
ENDBRANCH   1  18
ENDBRANCH  10   1
ENDBRANCH  15  10
ENDBRANCH  13  15
TORSDOF 9
ENDMDL
MODEL 3
REMARK VINA RESULT:      -6.6      2.791      4.782
REMARK  Name = 75536688
REMARK  10 active torsions:
REMARK  status: ('A' for Active; 'I' for Inactive)
REMARK    1  A    between atoms: S_1  and  N_10
REMARK    2  A    between atoms: S_1  and  C_18
REMARK    3  A    between atoms: S_2  and  C_21
REMARK    4  A    between atoms: S_2  and  C_28
REMARK    5  A    between atoms: O_4  and  C_12
REMARK    6  A    between atoms: N_9  and  C_11
REMARK    7  A    between atoms: N_9  and  C_16
REMARK    8  A    between atoms: N_10  and  C_15
REMARK    9  A    between atoms: C_13  and  C_15
REMARK   10  A    between atoms: C_16  and  C_17
REMARK                            x       y       z     vdW  Elec       q    Type
REMARK                         _______ _______ _______ _____ _____    ______ ____
ROOT
ATOM      3  O   UNL     1      16.269   6.085  18.901  0.00  0.00    -0.371 OA
ATOM     11  C   UNL     1      17.260   6.299  21.050  0.00  0.00    +0.111 C 
ATOM     12  C   UNL     1      15.987   7.124  21.008  0.00  0.00    +0.164 C 
ATOM     13  C   UNL     1      15.254   6.472  19.843  0.00  0.00    +0.164 C 
ATOM     14  C   UNL     1      17.543   6.108  19.569  0.00  0.00    +0.181 C 
ENDROOT
BRANCH  12   4
ATOM      4  O   UNL     1      15.245   7.042  22.209  0.00  0.00    -0.388 OA
ATOM     31  H   UNL     1      14.585   7.757  22.211  0.00  0.00    +0.210 HD
ENDBRANCH  12   4
BRANCH  11   9
ATOM      9  N   UNL     1      18.353   6.949  21.756  0.00  0.00    -0.305 NA
ATOM     30  H   UNL     1      18.528   6.451  22.629  0.00  0.00    +0.123 HD
BRANCH   9  16
ATOM     16  C   UNL     1      19.573   6.940  20.956  0.00  0.00    +0.116 C 
BRANCH  16  17
ATOM     17  C   UNL     1      20.553   5.906  21.441  0.00  0.00    -0.033 A 
ATOM     19  C   UNL     1      21.182   6.066  22.676  0.00  0.00    +0.007 A 
ATOM     20  C   UNL     1      20.833   4.788  20.655  0.00  0.00    +0.007 A 
ATOM     21  C   UNL     1      22.370   3.990  22.340  0.00  0.00    +0.088 A 
ATOM     22  C   UNL     1      22.090   5.107  23.125  0.00  0.00    +0.027 A 
ATOM     23  C   UNL     1      21.742   3.830  21.105  0.00  0.00    +0.027 A 
BRANCH  21   2
ATOM      2  S   UNL     1      23.510   2.791  22.901  0.00  0.00    -0.006 S 
ATOM      7  O   UNL     1      24.767   3.451  23.225  0.00  0.00    -0.170 OA
ATOM      8  O   UNL     1      22.843   1.973  23.904  0.00  0.00    -0.170 OA
ATOM     28  C   UNL     1      23.814   1.769  21.477  0.00  0.00    +0.200 C 
ENDBRANCH  21   2
ENDBRANCH  16  17
ENDBRANCH   9  16
ENDBRANCH  11   9
BRANCH  13  15
ATOM     15  C   UNL     1      14.256   7.397  19.170  0.00  0.00    +0.140 C 
BRANCH  15  10
ATOM     10  N   UNL     1      13.660   8.300  20.175  0.00  0.00    -0.187 NA
ATOM     32  H   UNL     1      14.327   8.806  20.770  0.00  0.00    +0.148 HD
BRANCH  10   1
ATOM      1  S   UNL     1      12.105   7.984  20.787  0.00  0.00    +0.058 S 
ATOM      5  O   UNL     1      12.189   6.963  21.812  0.00  0.00    -0.153 OA
ATOM      6  O   UNL     1      11.184   7.827  19.676  0.00  0.00    -0.153 OA
BRANCH   1  18
ATOM     18  C   UNL     1      11.707   9.517  21.572  0.00  0.00    +0.105 A 
ATOM     24  C   UNL     1      11.986  10.723  20.928  0.00  0.00    +0.028 A 
ATOM     25  C   UNL     1      11.115   9.521  22.834  0.00  0.00    +0.028 A 
ATOM     26  C   UNL     1      11.673  11.933  21.549  0.00  0.00    +0.002 A 
ATOM     27  C   UNL     1      10.802  10.730  23.454  0.00  0.00    +0.002 A 
ATOM     29  C   UNL     1      11.080  11.936  22.811  0.00  0.00    +0.000 A 
ENDBRANCH   1  18
ENDBRANCH  10   1
ENDBRANCH  15  10
ENDBRANCH  13  15
TORSDOF 9
ENDMDL
MODEL 4
REMARK VINA RESULT:      -6.4      3.662     10.167
REMARK  Name = 75536688
REMARK  10 active torsions:
REMARK  status: ('A' for Active; 'I' for Inactive)
REMARK    1  A    between atoms: S_1  and  N_10
REMARK    2  A    between atoms: S_1  and  C_18
REMARK    3  A    between atoms: S_2  and  C_21
REMARK    4  A    between atoms: S_2  and  C_28
REMARK    5  A    between atoms: O_4  and  C_12
REMARK    6  A    between atoms: N_9  and  C_11
REMARK    7  A    between atoms: N_9  and  C_16
REMARK    8  A    between atoms: N_10  and  C_15
REMARK    9  A    between atoms: C_13  and  C_15
REMARK   10  A    between atoms: C_16  and  C_17
REMARK                            x       y       z     vdW  Elec       q    Type
REMARK                         _______ _______ _______ _____ _____    ______ ____
ROOT
ATOM      3  O   UNL     1      21.491   7.714  21.311  0.00  0.00    -0.371 OA
ATOM     11  C   UNL     1      19.293   7.485  22.181  0.00  0.00    +0.111 C 
ATOM     12  C   UNL     1      20.228   6.575  22.955  0.00  0.00    +0.164 C 
ATOM     13  C   UNL     1      21.576   7.219  22.658  0.00  0.00    +0.164 C 
ATOM     14  C   UNL     1      20.106   7.754  20.925  0.00  0.00    +0.181 C 
ENDROOT
BRANCH  12   4
ATOM      4  O   UNL     1      19.947   6.555  24.341  0.00  0.00    -0.388 OA
ATOM     31  H   UNL     1      20.245   7.397  24.726  0.00  0.00    +0.210 HD
ENDBRANCH  12   4
BRANCH  11   9
ATOM      9  N   UNL     1      17.998   6.887  21.899  0.00  0.00    -0.305 NA
ATOM     30  H   UNL     1      17.378   7.045  22.693  0.00  0.00    +0.123 HD
BRANCH   9  16
ATOM     16  C   UNL     1      17.396   7.475  20.707  0.00  0.00    +0.116 C 
BRANCH  16  17
ATOM     17  C   UNL     1      15.892   7.459  20.773  0.00  0.00    -0.033 A 
ATOM     19  C   UNL     1      15.154   6.918  19.721  0.00  0.00    +0.007 A 
ATOM     20  C   UNL     1      15.237   7.987  21.886  0.00  0.00    +0.007 A 
ATOM     21  C   UNL     1      13.106   7.430  20.894  0.00  0.00    +0.088 A 
ATOM     22  C   UNL     1      13.760   6.903  19.782  0.00  0.00    +0.027 A 
ATOM     23  C   UNL     1      13.844   7.972  21.946  0.00  0.00    +0.027 A 
BRANCH  21   2
ATOM      2  S   UNL     1      11.361   7.415  20.970  0.00  0.00    -0.006 S 
ATOM      7  O   UNL     1      10.833   8.137  19.820  0.00  0.00    -0.170 OA
ATOM      8  O   UNL     1      10.935   6.044  21.220  0.00  0.00    -0.170 OA
ATOM     28  C   UNL     1      10.971   8.380  22.411  0.00  0.00    +0.200 C 
ENDBRANCH  21   2
ENDBRANCH  16  17
ENDBRANCH   9  16
ENDBRANCH  11   9
BRANCH  13  15
ATOM     15  C   UNL     1      22.741   6.253  22.777  0.00  0.00    +0.140 C 
BRANCH  15  10
ATOM     10  N   UNL     1      22.241   4.865  22.735  0.00  0.00    -0.187 NA
ATOM     32  H   UNL     1      22.175   4.387  23.643  0.00  0.00    +0.148 HD
BRANCH  10   1
ATOM      1  S   UNL     1      22.461   3.922  21.337  0.00  0.00    +0.058 S 
ATOM      5  O   UNL     1      23.203   4.686  20.353  0.00  0.00    -0.153 OA
ATOM      6  O   UNL     1      21.196   3.307  20.978  0.00  0.00    -0.153 OA
BRANCH   1  18
ATOM     18  C   UNL     1      23.511   2.631  21.932  0.00  0.00    +0.105 A 
ATOM     24  C   UNL     1      23.811   2.548  23.292  0.00  0.00    +0.028 A 
ATOM     25  C   UNL     1      24.039   1.695  21.043  0.00  0.00    +0.028 A 
ATOM     26  C   UNL     1      24.641   1.529  23.762  0.00  0.00    +0.002 A 
ATOM     27  C   UNL     1      24.868   0.677  21.513  0.00  0.00    +0.002 A 
ATOM     29  C   UNL     1      25.168   0.594  22.873  0.00  0.00    +0.000 A 
ENDBRANCH   1  18
ENDBRANCH  10   1
ENDBRANCH  15  10
ENDBRANCH  13  15
TORSDOF 9
ENDMDL
MODEL 5
REMARK VINA RESULT:      -6.4     26.051     30.062
REMARK  Name = 75536688
REMARK  10 active torsions:
REMARK  status: ('A' for Active; 'I' for Inactive)
REMARK    1  A    between atoms: S_1  and  N_10
REMARK    2  A    between atoms: S_1  and  C_18
REMARK    3  A    between atoms: S_2  and  C_21
REMARK    4  A    between atoms: S_2  and  C_28
REMARK    5  A    between atoms: O_4  and  C_12
REMARK    6  A    between atoms: N_9  and  C_11
REMARK    7  A    between atoms: N_9  and  C_16
REMARK    8  A    between atoms: N_10  and  C_15
REMARK    9  A    between atoms: C_13  and  C_15
REMARK   10  A    between atoms: C_16  and  C_17
REMARK                            x       y       z     vdW  Elec       q    Type
REMARK                         _______ _______ _______ _____ _____    ______ ____
ROOT
ATOM      3  O   UNL     1     -16.005   6.847  22.880  0.00  0.00    -0.371 OA
ATOM     11  C   UNL     1     -15.248   4.653  23.389  0.00  0.00    +0.111 C 
ATOM     12  C   UNL     1     -14.702   5.063  22.033  0.00  0.00    +0.164 C 
ATOM     13  C   UNL     1     -14.815   6.580  22.118  0.00  0.00    +0.164 C 
ATOM     14  C   UNL     1     -16.389   5.641  23.564  0.00  0.00    +0.181 C 
ENDROOT
BRANCH  12   4
ATOM      4  O   UNL     1     -13.365   4.645  21.834  0.00  0.00    -0.388 OA
ATOM     31  H   UNL     1     -12.777   5.392  22.035  0.00  0.00    +0.210 HD
ENDBRANCH  12   4
BRANCH  11   9
ATOM      9  N   UNL     1     -15.685   3.268  23.446  0.00  0.00    -0.305 NA
ATOM     30  H   UNL     1     -14.950   2.704  23.875  0.00  0.00    +0.123 HD
BRANCH   9  16
ATOM     16  C   UNL     1     -16.903   3.134  24.237  0.00  0.00    +0.116 C 
BRANCH  16  17
ATOM     17  C   UNL     1     -16.613   2.667  25.638  0.00  0.00    -0.033 A 
ATOM     19  C   UNL     1     -16.196   3.582  26.605  0.00  0.00    +0.007 A 
ATOM     20  C   UNL     1     -16.760   1.320  25.970  0.00  0.00    +0.007 A 
ATOM     21  C   UNL     1     -16.075   1.804  28.235  0.00  0.00    +0.088 A 
ATOM     22  C   UNL     1     -15.927   3.150  27.904  0.00  0.00    +0.027 A 
ATOM     23  C   UNL     1     -16.491   0.889  27.269  0.00  0.00    +0.027 A 
BRANCH  21   2
ATOM      2  S   UNL     1     -15.735   1.262  29.861  0.00  0.00    -0.006 S 
ATOM      7  O   UNL     1     -16.171   2.286  30.800  0.00  0.00    -0.170 OA
ATOM      8  O   UNL     1     -16.235  -0.100  29.993  0.00  0.00    -0.170 OA
ATOM     28  C   UNL     1     -13.960   1.203  29.946  0.00  0.00    +0.200 C 
ENDBRANCH  21   2
ENDBRANCH  16  17
ENDBRANCH   9  16
ENDBRANCH  11   9
BRANCH  13  15
ATOM     15  C   UNL     1     -14.914   7.251  20.760  0.00  0.00    +0.140 C 
BRANCH  15  10
ATOM     10  N   UNL     1     -13.619   7.145  20.059  0.00  0.00    -0.187 NA
ATOM     32  H   UNL     1     -13.512   6.332  19.439  0.00  0.00    +0.148 HD
BRANCH  10   1
ATOM      1  S   UNL     1     -12.222   7.831  20.744  0.00  0.00    +0.058 S 
ATOM      5  O   UNL     1     -11.387   6.779  21.291  0.00  0.00    -0.153 OA
ATOM      6  O   UNL     1     -12.607   8.959  21.572  0.00  0.00    -0.153 OA
BRANCH   1  18
ATOM     18  C   UNL     1     -11.407   8.491  19.322  0.00  0.00    +0.105 A 
ATOM     24  C   UNL     1     -11.355   7.748  18.141  0.00  0.00    +0.028 A 
ATOM     25  C   UNL     1     -10.816   9.753  19.378  0.00  0.00    +0.028 A 
ATOM     26  C   UNL     1     -10.712   8.269  17.018  0.00  0.00    +0.002 A 
ATOM     27  C   UNL     1     -10.173  10.273  18.255  0.00  0.00    +0.002 A 
ATOM     29  C   UNL     1     -10.121   9.531  17.075  0.00  0.00    +0.000 A 
ENDBRANCH   1  18
ENDBRANCH  10   1
ENDBRANCH  15  10
ENDBRANCH  13  15
TORSDOF 9
ENDMDL
MODEL 6
REMARK VINA RESULT:      -6.3      3.162      5.165
REMARK  Name = 75536688
REMARK  10 active torsions:
REMARK  status: ('A' for Active; 'I' for Inactive)
REMARK    1  A    between atoms: S_1  and  N_10
REMARK    2  A    between atoms: S_1  and  C_18
REMARK    3  A    between atoms: S_2  and  C_21
REMARK    4  A    between atoms: S_2  and  C_28
REMARK    5  A    between atoms: O_4  and  C_12
REMARK    6  A    between atoms: N_9  and  C_11
REMARK    7  A    between atoms: N_9  and  C_16
REMARK    8  A    between atoms: N_10  and  C_15
REMARK    9  A    between atoms: C_13  and  C_15
REMARK   10  A    between atoms: C_16  and  C_17
REMARK                            x       y       z     vdW  Elec       q    Type
REMARK                         _______ _______ _______ _____ _____    ______ ____
ROOT
ATOM      3  O   UNL     1      16.632   8.755  21.770  0.00  0.00    -0.371 OA
ATOM     11  C   UNL     1      17.835   7.268  20.362  0.00  0.00    +0.111 C 
ATOM     12  C   UNL     1      16.473   6.670  20.664  0.00  0.00    +0.164 C 
ATOM     13  C   UNL     1      15.694   7.911  21.080  0.00  0.00    +0.164 C 
ATOM     14  C   UNL     1      17.963   8.300  21.470  0.00  0.00    +0.181 C 
ENDROOT
BRANCH  12   4
ATOM      4  O   UNL     1      15.894   6.037  19.540  0.00  0.00    -0.388 OA
ATOM     31  H   UNL     1      16.589   5.542  19.075  0.00  0.00    +0.210 HD
ENDBRANCH  12   4
BRANCH  11   9
ATOM      9  N   UNL     1      18.913   6.293  20.369  0.00  0.00    -0.305 NA
ATOM     30  H   UNL     1      19.087   5.981  19.413  0.00  0.00    +0.123 HD
BRANCH   9  16
ATOM     16  C   UNL     1      20.140   6.872  20.906  0.00  0.00    +0.116 C 
BRANCH  16  17
ATOM     17  C   UNL     1      21.296   5.911  20.822  0.00  0.00    -0.033 A 
ATOM     19  C   UNL     1      21.074   4.540  20.955  0.00  0.00    +0.007 A 
ATOM     20  C   UNL     1      22.589   6.391  20.612  0.00  0.00    +0.007 A 
ATOM     21  C   UNL     1      23.437   4.130  20.667  0.00  0.00    +0.088 A 
ATOM     22  C   UNL     1      22.145   3.650  20.877  0.00  0.00    +0.027 A 
ATOM     23  C   UNL     1      23.659   5.500  20.534  0.00  0.00    +0.027 A 
BRANCH  21   2
ATOM      2  S   UNL     1      24.779   3.015  20.573  0.00  0.00    -0.006 S 
ATOM      7  O   UNL     1      25.147   2.837  19.175  0.00  0.00    -0.170 OA
ATOM      8  O   UNL     1      25.784   3.442  21.537  0.00  0.00    -0.170 OA
ATOM     28  C   UNL     1      24.108   1.466  21.132  0.00  0.00    +0.200 C 
ENDBRANCH  21   2
ENDBRANCH  16  17
ENDBRANCH   9  16
ENDBRANCH  11   9
BRANCH  13  15
ATOM     15  C   UNL     1      14.517   7.604  21.987  0.00  0.00    +0.140 C 
BRANCH  15  10
ATOM     10  N   UNL     1      13.693   6.536  21.386  0.00  0.00    -0.187 NA
ATOM     32  H   UNL     1      14.174   5.644  21.215  0.00  0.00    +0.148 HD
BRANCH  10   1
ATOM      1  S   UNL     1      12.359   6.937  20.410  0.00  0.00    +0.058 S 
ATOM      5  O   UNL     1      11.260   6.037  20.703  0.00  0.00    -0.153 OA
ATOM      6  O   UNL     1      12.811   7.114  19.043  0.00  0.00    -0.153 OA
BRANCH   1  18
ATOM     18  C   UNL     1      11.931   8.539  21.023  0.00  0.00    +0.105 A 
ATOM     24  C   UNL     1      12.418   9.681  20.386  0.00  0.00    +0.028 A 
ATOM     25  C   UNL     1      11.106   8.662  22.140  0.00  0.00    +0.028 A 
ATOM     26  C   UNL     1      12.081  10.946  20.870  0.00  0.00    +0.002 A 
ATOM     27  C   UNL     1      10.769   9.926  22.623  0.00  0.00    +0.002 A 
ATOM     29  C   UNL     1      11.256  11.068  21.987  0.00  0.00    +0.000 A 
ENDBRANCH   1  18
ENDBRANCH  10   1
ENDBRANCH  15  10
ENDBRANCH  13  15
TORSDOF 9
ENDMDL
MODEL 7
REMARK VINA RESULT:      -6.1      2.144      2.889
REMARK  Name = 75536688
REMARK  10 active torsions:
REMARK  status: ('A' for Active; 'I' for Inactive)
REMARK    1  A    between atoms: S_1  and  N_10
REMARK    2  A    between atoms: S_1  and  C_18
REMARK    3  A    between atoms: S_2  and  C_21
REMARK    4  A    between atoms: S_2  and  C_28
REMARK    5  A    between atoms: O_4  and  C_12
REMARK    6  A    between atoms: N_9  and  C_11
REMARK    7  A    between atoms: N_9  and  C_16
REMARK    8  A    between atoms: N_10  and  C_15
REMARK    9  A    between atoms: C_13  and  C_15
REMARK   10  A    between atoms: C_16  and  C_17
REMARK                            x       y       z     vdW  Elec       q    Type
REMARK                         _______ _______ _______ _____ _____    ______ ____
ROOT
ATOM      3  O   UNL     1      12.079   8.704  18.980  0.00  0.00    -0.371 OA
ATOM     11  C   UNL     1      13.156   7.120  20.385  0.00  0.00    +0.111 C 
ATOM     12  C   UNL     1      13.317   8.504  20.986  0.00  0.00    +0.164 C 
ATOM     13  C   UNL     1      12.179   9.253  20.305  0.00  0.00    +0.164 C 
ATOM     14  C   UNL     1      12.796   7.456  18.948  0.00  0.00    +0.181 C 
ENDROOT
BRANCH  12   4
ATOM      4  O   UNL     1      13.181   8.506  22.394  0.00  0.00    -0.388 OA
ATOM     31  H   UNL     1      13.783   7.837  22.761  0.00  0.00    +0.210 HD
ENDBRANCH  12   4
BRANCH  11   9
ATOM      9  N   UNL     1      14.351   6.297  20.490  0.00  0.00    -0.305 NA
ATOM     30  H   UNL     1      14.095   5.319  20.349  0.00  0.00    +0.123 HD
BRANCH   9  16
ATOM     16  C   UNL     1      15.339   6.675  19.486  0.00  0.00    +0.116 C 
BRANCH  16  17
ATOM     17  C   UNL     1      16.744   6.567  20.014  0.00  0.00    -0.033 A 
ATOM     19  C   UNL     1      17.133   7.324  21.119  0.00  0.00    +0.007 A 
ATOM     20  C   UNL     1      17.657   5.711  19.398  0.00  0.00    +0.007 A 
ATOM     21  C   UNL     1      19.348   6.368  20.994  0.00  0.00    +0.088 A 
ATOM     22  C   UNL     1      18.436   7.224  21.609  0.00  0.00    +0.027 A 
ATOM     23  C   UNL     1      18.959   5.611  19.889  0.00  0.00    +0.027 A 
BRANCH  21   2
ATOM      2  S   UNL     1      20.980   6.245  21.605  0.00  0.00    -0.006 S 
ATOM      7  O   UNL     1      21.616   7.553  21.518  0.00  0.00    -0.170 OA
ATOM      8  O   UNL     1      20.928   5.550  22.884  0.00  0.00    -0.170 OA
ATOM     28  C   UNL     1      21.810   5.188  20.441  0.00  0.00    +0.200 C 
ENDBRANCH  21   2
ENDBRANCH  16  17
ENDBRANCH   9  16
ENDBRANCH  11   9
BRANCH  13  15
ATOM     15  C   UNL     1      12.411  10.751  20.223  0.00  0.00    +0.140 C 
BRANCH  15  10
ATOM     10  N   UNL     1      12.715  11.279  21.568  0.00  0.00    -0.187 NA
ATOM     32  H   UNL     1      13.625  11.007  21.959  0.00  0.00    +0.148 HD
BRANCH  10   1
ATOM      1  S   UNL     1      11.450  11.652  22.642  0.00  0.00    +0.058 S 
ATOM      5  O   UNL     1      10.753  10.434  23.007  0.00  0.00    -0.153 OA
ATOM      6  O   UNL     1      10.709  12.787  22.123  0.00  0.00    -0.153 OA
BRANCH   1  18
ATOM     18  C   UNL     1      12.336  12.222  24.061  0.00  0.00    +0.105 A 
ATOM     24  C   UNL     1      13.607  11.716  24.338  0.00  0.00    +0.028 A 
ATOM     25  C   UNL     1      11.766  13.175  24.904  0.00  0.00    +0.028 A 
ATOM     26  C   UNL     1      14.306  12.165  25.459  0.00  0.00    +0.002 A 
ATOM     27  C   UNL     1      12.465  13.624  26.024  0.00  0.00    +0.002 A 
ATOM     29  C   UNL     1      13.735  13.119  26.301  0.00  0.00    +0.000 A 
ENDBRANCH   1  18
ENDBRANCH  10   1
ENDBRANCH  15  10
ENDBRANCH  13  15
TORSDOF 9
ENDMDL
MODEL 8
REMARK VINA RESULT:      -5.9     27.616     30.236
REMARK  Name = 75536688
REMARK  10 active torsions:
REMARK  status: ('A' for Active; 'I' for Inactive)
REMARK    1  A    between atoms: S_1  and  N_10
REMARK    2  A    between atoms: S_1  and  C_18
REMARK    3  A    between atoms: S_2  and  C_21
REMARK    4  A    between atoms: S_2  and  C_28
REMARK    5  A    between atoms: O_4  and  C_12
REMARK    6  A    between atoms: N_9  and  C_11
REMARK    7  A    between atoms: N_9  and  C_16
REMARK    8  A    between atoms: N_10  and  C_15
REMARK    9  A    between atoms: C_13  and  C_15
REMARK   10  A    between atoms: C_16  and  C_17
REMARK                            x       y       z     vdW  Elec       q    Type
REMARK                         _______ _______ _______ _____ _____    ______ ____
ROOT
ATOM      3  O   UNL     1      -9.484 -13.526  19.287  0.00  0.00    -0.371 OA
ATOM     11  C   UNL     1      -8.149 -11.708  20.033  0.00  0.00    +0.111 C 
ATOM     12  C   UNL     1      -9.537 -11.197  19.694  0.00  0.00    +0.164 C 
ATOM     13  C   UNL     1     -10.349 -12.483  19.766  0.00  0.00    +0.164 C 
ATOM     14  C   UNL     1      -8.131 -13.038  19.296  0.00  0.00    +0.181 C 
ENDROOT
BRANCH  12   4
ATOM      4  O   UNL     1     -10.001 -10.228  20.614  0.00  0.00    -0.388 OA
ATOM     31  H   UNL     1      -9.712  -9.351  20.308  0.00  0.00    +0.210 HD
ENDBRANCH  12   4
BRANCH  11   9
ATOM      9  N   UNL     1      -7.081 -10.815  19.615  0.00  0.00    -0.305 NA
ATOM     30  H   UNL     1      -6.196 -11.323  19.634  0.00  0.00    +0.123 HD
BRANCH   9  16
ATOM     16  C   UNL     1      -7.310 -10.320  18.262  0.00  0.00    +0.116 C 
BRANCH  16  17
ATOM     17  C   UNL     1      -6.097 -10.494  17.388  0.00  0.00    -0.033 A 
ATOM     19  C   UNL     1      -6.149 -10.130  16.042  0.00  0.00    +0.007 A 
ATOM     20  C   UNL     1      -4.921 -11.021  17.923  0.00  0.00    +0.007 A 
ATOM     21  C   UNL     1      -3.850 -10.818  15.768  0.00  0.00    +0.088 A 
ATOM     22  C   UNL     1      -5.025 -10.292  15.232  0.00  0.00    +0.027 A 
ATOM     23  C   UNL     1      -3.798 -11.182  17.113  0.00  0.00    +0.027 A 
BRANCH  21   2
ATOM      2  S   UNL     1      -2.443 -11.023  14.753  0.00  0.00    -0.006 S 
ATOM      7  O   UNL     1      -2.143 -12.445  14.645  0.00  0.00    -0.170 OA
ATOM      8  O   UNL     1      -2.642 -10.232  13.546  0.00  0.00    -0.170 OA
ATOM     28  C   UNL     1      -1.117 -10.284  15.679  0.00  0.00    +0.200 C 
ENDBRANCH  21   2
ENDBRANCH  16  17
ENDBRANCH   9  16
ENDBRANCH  11   9
BRANCH  13  15
ATOM     15  C   UNL     1     -11.614 -12.441  18.928  0.00  0.00    +0.140 C 
BRANCH  15  10
ATOM     10  N   UNL     1     -11.567 -11.280  18.017  0.00  0.00    -0.187 NA
ATOM     32  H   UNL     1     -10.644 -11.061  17.621  0.00  0.00    +0.148 HD
BRANCH  10   1
ATOM      1  S   UNL     1     -12.698 -10.021  18.184  0.00  0.00    +0.058 S 
ATOM      5  O   UNL     1     -12.743  -9.594  19.569  0.00  0.00    -0.153 OA
ATOM      6  O   UNL     1     -13.921 -10.391  17.495  0.00  0.00    -0.153 OA
BRANCH   1  18
ATOM     18  C   UNL     1     -11.946  -8.730  17.239  0.00  0.00    +0.105 A 
ATOM     24  C   UNL     1     -10.568  -8.522  17.318  0.00  0.00    +0.028 A 
ATOM     25  C   UNL     1     -12.727  -7.921  16.415  0.00  0.00    +0.028 A 
ATOM     26  C   UNL     1      -9.974  -7.503  16.572  0.00  0.00    +0.002 A 
ATOM     27  C   UNL     1     -12.133  -6.903  15.670  0.00  0.00    +0.002 A 
ATOM     29  C   UNL     1     -10.756  -6.694  15.749  0.00  0.00    +0.000 A 
ENDBRANCH   1  18
ENDBRANCH  10   1
ENDBRANCH  15  10
ENDBRANCH  13  15
TORSDOF 9
ENDMDL
MODEL 9
REMARK VINA RESULT:      -5.9     26.479     30.233
REMARK  Name = 75536688
REMARK  10 active torsions:
REMARK  status: ('A' for Active; 'I' for Inactive)
REMARK    1  A    between atoms: S_1  and  N_10
REMARK    2  A    between atoms: S_1  and  C_18
REMARK    3  A    between atoms: S_2  and  C_21
REMARK    4  A    between atoms: S_2  and  C_28
REMARK    5  A    between atoms: O_4  and  C_12
REMARK    6  A    between atoms: N_9  and  C_11
REMARK    7  A    between atoms: N_9  and  C_16
REMARK    8  A    between atoms: N_10  and  C_15
REMARK    9  A    between atoms: C_13  and  C_15
REMARK   10  A    between atoms: C_16  and  C_17
REMARK                            x       y       z     vdW  Elec       q    Type
REMARK                         _______ _______ _______ _____ _____    ______ ____
ROOT
ATOM      3  O   UNL     1     -16.454   7.052  23.391  0.00  0.00    -0.371 OA
ATOM     11  C   UNL     1     -14.915   5.959  21.949  0.00  0.00    +0.111 C 
ATOM     12  C   UNL     1     -15.235   5.044  23.117  0.00  0.00    +0.164 C 
ATOM     13  C   UNL     1     -16.554   5.633  23.598  0.00  0.00    +0.164 C 
ATOM     14  C   UNL     1     -15.358   7.307  22.494  0.00  0.00    +0.181 C 
ENDROOT
BRANCH  12   4
ATOM      4  O   UNL     1     -15.373   3.691  22.728  0.00  0.00    -0.388 OA
ATOM     31  H   UNL     1     -16.079   3.289  23.261  0.00  0.00    +0.210 HD
ENDBRANCH  12   4
BRANCH  11   9
ATOM      9  N   UNL     1     -13.514   5.940  21.561  0.00  0.00    -0.305 NA
ATOM     30  H   UNL     1     -13.425   5.475  20.657  0.00  0.00    +0.123 HD
BRANCH   9  16
ATOM     16  C   UNL     1     -12.981   7.293  21.448  0.00  0.00    +0.116 C 
BRANCH  16  17
ATOM     17  C   UNL     1     -12.616   7.635  20.028  0.00  0.00    -0.033 A 
ATOM     19  C   UNL     1     -11.277   7.641  19.636  0.00  0.00    +0.007 A 
ATOM     20  C   UNL     1     -13.615   7.946  19.106  0.00  0.00    +0.007 A 
ATOM     21  C   UNL     1     -11.938   8.268  17.398  0.00  0.00    +0.088 A 
ATOM     22  C   UNL     1     -10.939   7.958  18.320  0.00  0.00    +0.027 A 
ATOM     23  C   UNL     1     -13.276   8.263  17.791  0.00  0.00    +0.027 A 
BRANCH  21   2
ATOM      2  S   UNL     1     -11.514   8.668  15.751  0.00  0.00    -0.006 S 
ATOM      7  O   UNL     1     -10.455   7.772  15.306  0.00  0.00    -0.170 OA
ATOM      8  O   UNL     1     -12.747   8.768  14.983  0.00  0.00    -0.170 OA
ATOM     28  C   UNL     1     -10.803  10.294  15.860  0.00  0.00    +0.200 C 
ENDBRANCH  21   2
ENDBRANCH  16  17
ENDBRANCH   9  16
ENDBRANCH  11   9
BRANCH  13  15
ATOM     15  C   UNL     1     -16.841   5.347  25.061  0.00  0.00    +0.140 C 
BRANCH  15  10
ATOM     10  N   UNL     1     -16.022   4.205  25.513  0.00  0.00    -0.187 NA
ATOM     32  H   UNL     1     -15.034   4.223  25.227  0.00  0.00    +0.148 HD
BRANCH  10   1
ATOM      1  S   UNL     1     -16.752   2.697  25.807  0.00  0.00    +0.058 S 
ATOM      5  O   UNL     1     -16.132   1.690  24.969  0.00  0.00    -0.153 OA
ATOM      6  O   UNL     1     -18.194   2.863  25.802  0.00  0.00    -0.153 OA
BRANCH   1  18
ATOM     18  C   UNL     1     -16.276   2.385  27.480  0.00  0.00    +0.105 A 
ATOM     24  C   UNL     1     -15.786   3.425  28.271  0.00  0.00    +0.028 A 
ATOM     25  C   UNL     1     -16.388   1.100  28.010  0.00  0.00    +0.028 A 
ATOM     26  C   UNL     1     -15.409   3.178  29.592  0.00  0.00    +0.002 A 
ATOM     27  C   UNL     1     -16.012   0.853  29.330  0.00  0.00    +0.002 A 
ATOM     29  C   UNL     1     -15.522   1.893  30.121  0.00  0.00    +0.000 A 
ENDBRANCH   1  18
ENDBRANCH  10   1
ENDBRANCH  15  10
ENDBRANCH  13  15
TORSDOF 9
ENDMDL
MODEL 10
REMARK VINA RESULT:      -5.7      4.000     10.234
REMARK  Name = 75536688
REMARK  10 active torsions:
REMARK  status: ('A' for Active; 'I' for Inactive)
REMARK    1  A    between atoms: S_1  and  N_10
REMARK    2  A    between atoms: S_1  and  C_18
REMARK    3  A    between atoms: S_2  and  C_21
REMARK    4  A    between atoms: S_2  and  C_28
REMARK    5  A    between atoms: O_4  and  C_12
REMARK    6  A    between atoms: N_9  and  C_11
REMARK    7  A    between atoms: N_9  and  C_16
REMARK    8  A    between atoms: N_10  and  C_15
REMARK    9  A    between atoms: C_13  and  C_15
REMARK   10  A    between atoms: C_16  and  C_17
REMARK                            x       y       z     vdW  Elec       q    Type
REMARK                         _______ _______ _______ _____ _____    ______ ____
ROOT
ATOM      3  O   UNL     1      21.950   8.739  21.704  0.00  0.00    -0.371 OA
ATOM     11  C   UNL     1      19.877   8.057  22.643  0.00  0.00    +0.111 C 
ATOM     12  C   UNL     1      20.779   6.845  22.500  0.00  0.00    +0.164 C 
ATOM     13  C   UNL     1      22.148   7.506  22.416  0.00  0.00    +0.164 C 
ATOM     14  C   UNL     1      20.543   9.040  21.693  0.00  0.00    +0.181 C 
ENDROOT
BRANCH  12   4
ATOM      4  O   UNL     1      20.687   5.964  23.603  0.00  0.00    -0.388 OA
ATOM     31  H   UNL     1      20.621   5.055  23.264  0.00  0.00    +0.210 HD
ENDBRANCH  12   4
BRANCH  11   9
ATOM      9  N   UNL     1      18.489   7.794  22.301  0.00  0.00    -0.305 NA
ATOM     30  H   UNL     1      18.022   8.678  22.101  0.00  0.00    +0.123 HD
BRANCH   9  16
ATOM     16  C   UNL     1      18.391   6.933  21.127  0.00  0.00    +0.116 C 
BRANCH  16  17
ATOM     17  C   UNL     1      17.134   7.198  20.342  0.00  0.00    -0.033 A 
ATOM     19  C   UNL     1      16.441   8.396  20.519  0.00  0.00    +0.007 A 
ATOM     20  C   UNL     1      16.662   6.245  19.439  0.00  0.00    +0.007 A 
ATOM     21  C   UNL     1      14.805   7.689  18.888  0.00  0.00    +0.088 A 
ATOM     22  C   UNL     1      15.277   8.641  19.791  0.00  0.00    +0.027 A 
ATOM     23  C   UNL     1      15.498   6.491  18.712  0.00  0.00    +0.027 A 
BRANCH  21   2
ATOM      2  S   UNL     1      13.345   7.995  17.979  0.00  0.00    -0.006 S 
ATOM      7  O   UNL     1      13.646   7.898  16.557  0.00  0.00    -0.170 OA
ATOM      8  O   UNL     1      12.283   7.179  18.551  0.00  0.00    -0.170 OA
ATOM     28  C   UNL     1      12.965   9.699  18.312  0.00  0.00    +0.200 C 
ENDBRANCH  21   2
ENDBRANCH  16  17
ENDBRANCH   9  16
ENDBRANCH  11   9
BRANCH  13  15
ATOM     15  C   UNL     1      23.181   6.658  21.695  0.00  0.00    +0.140 C 
BRANCH  15  10
ATOM     10  N   UNL     1      23.125   5.272  22.202  0.00  0.00    -0.187 NA
ATOM     32  H   UNL     1      23.616   5.102  23.089  0.00  0.00    +0.148 HD
BRANCH  10   1
ATOM      1  S   UNL     1      22.938   3.976  21.117  0.00  0.00    +0.058 S 
ATOM      5  O   UNL     1      23.782   4.193  19.958  0.00  0.00    -0.153 OA
ATOM      6  O   UNL     1      21.523   3.704  20.946  0.00  0.00    -0.153 OA
BRANCH   1  18
ATOM     18  C   UNL     1      23.614   2.630  22.041  0.00  0.00    +0.105 A 
ATOM     24  C   UNL     1      24.466   1.716  21.418  0.00  0.00    +0.028 A 
ATOM     25  C   UNL     1      23.298   2.480  23.390  0.00  0.00    +0.028 A 
ATOM     26  C   UNL     1      24.999   0.652  22.148  0.00  0.00    +0.002 A 
ATOM     27  C   UNL     1      23.831   1.417  24.119  0.00  0.00    +0.002 A 
ATOM     29  C   UNL     1      24.682   0.504  23.498  0.00  0.00    +0.000 A 
ENDBRANCH   1  18
ENDBRANCH  10   1
ENDBRANCH  15  10
ENDBRANCH  13  15
TORSDOF 9
ENDMDL
