MODEL 1
REMARK VINA RESULT:      -8.0      0.000      0.000
REMARK  Name = 11941657
REMARK  7 active torsions:
REMARK  status: ('A' for Active; 'I' for Inactive)
REMARK    1  A    between atoms: O_4  and  C_32
REMARK    2  A    between atoms: O_4  and  C_34
REMARK    3  A    between atoms: N_5  and  C_12
REMARK    4  A    between atoms: N_6  and  C_13
REMARK    5  A    between atoms: N_7  and  C_18
REMARK    6  A    between atoms: C_18  and  C_22
REMARK    7  A    between atoms: C_19  and  C_23
REMARK                            x       y       z     vdW  Elec       q    Type
REMARK                         _______ _______ _______ _____ _____    ______ ____
ROOT
ATOM      1  O   UNL     1      12.655   5.540  -0.440  0.00  0.00    -0.370 OA
ATOM      2  O   UNL     1      12.446   4.022   2.278  0.00  0.00    -0.370 OA
ATOM     10  C   UNL     1      12.000   5.315   1.836  0.00  0.00    +0.171 C 
ATOM     11  C   UNL     1      13.060   5.862   0.901  0.00  0.00    +0.171 C 
ATOM     12  C   UNL     1      10.774   5.177   0.964  0.00  0.00    +0.130 C 
ATOM     13  C   UNL     1      14.309   5.093   1.271  0.00  0.00    +0.131 C 
ATOM     14  C   UNL     1      11.368   4.905  -0.406  0.00  0.00    +0.185 C 
ATOM     15  C   UNL     1      13.745   3.760   1.728  0.00  0.00    +0.185 C 
ENDROOT
BRANCH  12   5
ATOM      5  N   UNL     1      10.033   6.419   0.950  0.00  0.00    -0.306 N 
ATOM      8  N   UNL     1       9.668   6.337   3.241  0.00  0.00    -0.214 NA
ATOM      9  N   UNL     1       8.825   8.158   1.905  0.00  0.00    -0.223 NA
ATOM     16  C   UNL     1       9.485   6.997   2.081  0.00  0.00    +0.216 A 
ATOM     19  C   UNL     1       9.120   6.928   4.324  0.00  0.00    +0.076 A 
ATOM     20  C   UNL     1       8.304   8.692   3.029  0.00  0.00    +0.116 A 
ATOM     21  C   UNL     1       8.420   8.117   4.277  0.00  0.00    +0.048 A 
ATOM     35  H   UNL     1       9.945   6.937   0.083  0.00  0.00    +0.149 HD
BRANCH  19  23
ATOM     23  C   UNL     1       9.315   6.224   5.569  0.00  0.00    +0.001 A 
ATOM     26  C   UNL     1       9.092   6.880   6.781  0.00  0.00    +0.013 A 
ATOM     27  C   UNL     1       9.728   4.892   5.562  0.00  0.00    +0.013 A 
ATOM     30  C   UNL     1       9.282   6.202   7.985  0.00  0.00    +0.046 A 
ATOM     31  C   UNL     1       9.916   4.214   6.767  0.00  0.00    +0.046 A 
ATOM     32  C   UNL     1       9.694   4.870   7.978  0.00  0.00    +0.120 A 
BRANCH  32   4
ATOM      4  O   UNL     1       9.877   4.208   9.153  0.00  0.00    -0.495 OA
ATOM     34  C   UNL     1       9.040   4.583  10.247  0.00  0.00    +0.277 C 
ENDBRANCH  32   4
ENDBRANCH  19  23
ENDBRANCH  12   5
BRANCH  13   6
ATOM      3  O   UNL     1      15.953   7.455   1.059  0.00  0.00    -0.253 OA
ATOM      6  N   UNL     1      15.029   5.749   2.335  0.00  0.00    -0.292 N 
ATOM      7  N   UNL     1      16.388   7.314   3.335  0.00  0.00    -0.295 N 
ATOM     17  C   UNL     1      15.803   6.892   2.143  0.00  0.00    +0.300 C 
ATOM     36  H   UNL     1      14.916   5.400   3.283  0.00  0.00    +0.151 HD
ATOM     37  H   UNL     1      16.188   6.798   4.186  0.00  0.00    +0.151 HD
BRANCH   7  18
ATOM     18  C   UNL     1      17.241   8.476   3.419  0.00  0.00    +0.141 C 
BRANCH  18  22
ATOM     22  C   UNL     1      18.348   8.288   4.416  0.00  0.00    -0.030 A 
ATOM     24  C   UNL     1      18.194   8.747   5.725  0.00  0.00    +0.005 A 
ATOM     25  C   UNL     1      19.531   7.657   4.035  0.00  0.00    +0.005 A 
ATOM     28  C   UNL     1      19.222   8.574   6.650  0.00  0.00    +0.000 A 
ATOM     29  C   UNL     1      20.559   7.483   4.961  0.00  0.00    +0.000 A 
ATOM     33  C   UNL     1      20.405   7.942   6.269  0.00  0.00    +0.000 A 
ENDBRANCH  18  22
ENDBRANCH   7  18
ENDBRANCH  13   6
TORSDOF 6
ENDMDL
MODEL 2
REMARK VINA RESULT:      -7.8     24.788     26.660
REMARK  Name = 11941657
REMARK  7 active torsions:
REMARK  status: ('A' for Active; 'I' for Inactive)
REMARK    1  A    between atoms: O_4  and  C_32
REMARK    2  A    between atoms: O_4  and  C_34
REMARK    3  A    between atoms: N_5  and  C_12
REMARK    4  A    between atoms: N_6  and  C_13
REMARK    5  A    between atoms: N_7  and  C_18
REMARK    6  A    between atoms: C_18  and  C_22
REMARK    7  A    between atoms: C_19  and  C_23
REMARK                            x       y       z     vdW  Elec       q    Type
REMARK                         _______ _______ _______ _____ _____    ______ ____
ROOT
ATOM      1  O   UNL     1      -4.751  -8.908  10.405  0.00  0.00    -0.370 OA
ATOM      2  O   UNL     1      -6.006 -11.765  10.444  0.00  0.00    -0.370 OA
ATOM     10  C   UNL     1      -4.679 -11.269  10.690  0.00  0.00    +0.171 C 
ATOM     11  C   UNL     1      -4.437 -10.131   9.718  0.00  0.00    +0.171 C 
ATOM     12  C   UNL     1      -4.607 -10.616  12.050  0.00  0.00    +0.130 C 
ATOM     13  C   UNL     1      -5.430 -10.379   8.606  0.00  0.00    +0.131 C 
ATOM     14  C   UNL     1      -5.090  -9.205  11.768  0.00  0.00    +0.185 C 
ATOM     15  C   UNL     1      -6.578 -11.050   9.339  0.00  0.00    +0.185 C 
ENDROOT
BRANCH  12   5
ATOM      5  N   UNL     1      -3.238 -10.592  12.516  0.00  0.00    -0.306 N 
ATOM      8  N   UNL     1      -3.894 -10.650  14.741  0.00  0.00    -0.214 NA
ATOM      9  N   UNL     1      -1.565 -10.586  14.126  0.00  0.00    -0.223 NA
ATOM     16  C   UNL     1      -2.883 -10.610  13.853  0.00  0.00    +0.216 A 
ATOM     19  C   UNL     1      -3.513 -10.666  16.036  0.00  0.00    +0.076 A 
ATOM     20  C   UNL     1      -1.256 -10.605  15.440  0.00  0.00    +0.116 A 
ATOM     21  C   UNL     1      -2.196 -10.645  16.448  0.00  0.00    +0.048 A 
ATOM     35  H   UNL     1      -2.481 -10.616  11.841  0.00  0.00    +0.149 HD
BRANCH  19  23
ATOM     23  C   UNL     1      -4.594 -10.709  16.992  0.00  0.00    +0.001 A 
ATOM     26  C   UNL     1      -5.794 -10.053  16.716  0.00  0.00    +0.013 A 
ATOM     27  C   UNL     1      -4.438 -11.404  18.192  0.00  0.00    +0.013 A 
ATOM     30  C   UNL     1      -6.839 -10.093  17.640  0.00  0.00    +0.046 A 
ATOM     31  C   UNL     1      -5.483 -11.444  19.115  0.00  0.00    +0.046 A 
ATOM     32  C   UNL     1      -6.683 -10.788  18.839  0.00  0.00    +0.120 A 
BRANCH  32   4
ATOM      4  O   UNL     1      -7.703 -10.828  19.739  0.00  0.00    -0.495 OA
ATOM     34  C   UNL     1      -8.923 -11.437  19.313  0.00  0.00    +0.277 C 
ENDBRANCH  32   4
ENDBRANCH  19  23
ENDBRANCH  12   5
BRANCH  13   6
ATOM      3  O   UNL     1      -5.917 -10.271   5.763  0.00  0.00    -0.253 OA
ATOM      6  N   UNL     1      -4.877 -11.247   7.595  0.00  0.00    -0.292 N 
ATOM      7  N   UNL     1      -4.500 -12.088   5.486  0.00  0.00    -0.295 N 
ATOM     17  C   UNL     1      -5.167 -11.123   6.238  0.00  0.00    +0.300 C 
ATOM     36  H   UNL     1      -4.192 -11.943   7.877  0.00  0.00    +0.151 HD
ATOM     37  H   UNL     1      -3.883 -12.737   5.964  0.00  0.00    +0.151 HD
BRANCH   7  18
ATOM     18  C   UNL     1      -4.625 -12.186   4.051  0.00  0.00    +0.141 C 
BRANCH  18  22
ATOM     22  C   UNL     1      -3.443 -12.874   3.431  0.00  0.00    -0.030 A 
ATOM     24  C   UNL     1      -2.439 -13.405   4.242  0.00  0.00    +0.005 A 
ATOM     25  C   UNL     1      -3.348 -12.983   2.044  0.00  0.00    +0.005 A 
ATOM     28  C   UNL     1      -1.342 -14.043   3.666  0.00  0.00    +0.000 A 
ATOM     29  C   UNL     1      -2.250 -13.623   1.468  0.00  0.00    +0.000 A 
ATOM     33  C   UNL     1      -1.247 -14.152   2.279  0.00  0.00    +0.000 A 
ENDBRANCH  18  22
ENDBRANCH   7  18
ENDBRANCH  13   6
TORSDOF 6
ENDMDL
MODEL 3
REMARK VINA RESULT:      -7.7     12.508     16.371
REMARK  Name = 11941657
REMARK  7 active torsions:
REMARK  status: ('A' for Active; 'I' for Inactive)
REMARK    1  A    between atoms: O_4  and  C_32
REMARK    2  A    between atoms: O_4  and  C_34
REMARK    3  A    between atoms: N_5  and  C_12
REMARK    4  A    between atoms: N_6  and  C_13
REMARK    5  A    between atoms: N_7  and  C_18
REMARK    6  A    between atoms: C_18  and  C_22
REMARK    7  A    between atoms: C_19  and  C_23
REMARK                            x       y       z     vdW  Elec       q    Type
REMARK                         _______ _______ _______ _____ _____    ______ ____
ROOT
ATOM      1  O   UNL     1      14.298   7.758  16.791  0.00  0.00    -0.370 OA
ATOM      2  O   UNL     1      14.181  10.662  17.926  0.00  0.00    -0.370 OA
ATOM     10  C   UNL     1      13.285   9.540  17.997  0.00  0.00    +0.171 C 
ATOM     11  C   UNL     1      13.348   8.828  16.661  0.00  0.00    +0.171 C 
ATOM     12  C   UNL     1      13.799   8.520  18.985  0.00  0.00    +0.130 C 
ATOM     13  C   UNL     1      13.869   9.880  15.708  0.00  0.00    +0.131 C 
ATOM     14  C   UNL     1      14.766   7.703  18.148  0.00  0.00    +0.185 C 
ATOM     15  C   UNL     1      14.748  10.728  16.609  0.00  0.00    +0.185 C 
ENDROOT
BRANCH  12   5
ATOM      5  N   UNL     1      12.711   7.686  19.448  0.00  0.00    -0.306 N 
ATOM      8  N   UNL     1      12.284   9.081  21.253  0.00  0.00    -0.214 NA
ATOM      9  N   UNL     1      10.976   7.093  20.873  0.00  0.00    -0.223 NA
ATOM     16  C   UNL     1      11.958   7.965  20.574  0.00  0.00    +0.216 A 
ATOM     19  C   UNL     1      11.530   9.323  22.345  0.00  0.00    +0.076 A 
ATOM     20  C   UNL     1      10.262   7.397  21.977  0.00  0.00    +0.116 A 
ATOM     21  C   UNL     1      10.496   8.508  22.759  0.00  0.00    +0.048 A 
ATOM     35  H   UNL     1      12.437   6.877  18.902  0.00  0.00    +0.149 HD
BRANCH  19  23
ATOM     23  C   UNL     1      11.876  10.519  23.076  0.00  0.00    +0.001 A 
ATOM     26  C   UNL     1      13.119  11.120  22.878  0.00  0.00    +0.013 A 
ATOM     27  C   UNL     1      10.970  11.071  23.982  0.00  0.00    +0.013 A 
ATOM     30  C   UNL     1      13.455  12.275  23.585  0.00  0.00    +0.046 A 
ATOM     31  C   UNL     1      11.306  12.226  24.688  0.00  0.00    +0.046 A 
ATOM     32  C   UNL     1      12.549  12.827  24.489  0.00  0.00    +0.120 A 
BRANCH  32   4
ATOM      4  O   UNL     1      12.877  13.955  25.177  0.00  0.00    -0.495 OA
ATOM     34  C   UNL     1      11.836  14.591  25.918  0.00  0.00    +0.277 C 
ENDBRANCH  32   4
ENDBRANCH  19  23
ENDBRANCH  12   5
BRANCH  13   6
ATOM      3  O   UNL     1      13.952  11.501  13.321  0.00  0.00    -0.253 OA
ATOM      6  N   UNL     1      12.791  10.656  15.147  0.00  0.00    -0.292 N 
ATOM      7  N   UNL     1      11.727  12.063  13.668  0.00  0.00    -0.295 N 
ATOM     17  C   UNL     1      12.918  11.414  13.984  0.00  0.00    +0.300 C 
ATOM     36  H   UNL     1      11.875  10.598  15.583  0.00  0.00    +0.151 HD
ATOM     37  H   UNL     1      10.918  11.914  14.263  0.00  0.00    +0.151 HD
BRANCH   7  18
ATOM     18  C   UNL     1      11.582  12.915  12.512  0.00  0.00    +0.141 C 
BRANCH  18  22
ATOM     22  C   UNL     1      10.864  12.222  11.390  0.00  0.00    -0.030 A 
ATOM     24  C   UNL     1       9.483  12.037  11.454  0.00  0.00    +0.005 A 
ATOM     25  C   UNL     1      11.578  11.762  10.284  0.00  0.00    +0.005 A 
ATOM     28  C   UNL     1       8.817  11.392  10.413  0.00  0.00    +0.000 A 
ATOM     29  C   UNL     1      10.911  11.118   9.242  0.00  0.00    +0.000 A 
ATOM     33  C   UNL     1       9.531  10.932   9.306  0.00  0.00    +0.000 A 
ENDBRANCH  18  22
ENDBRANCH   7  18
ENDBRANCH  13   6
TORSDOF 6
ENDMDL
MODEL 4
REMARK VINA RESULT:      -7.7     18.342     22.804
REMARK  Name = 11941657
REMARK  7 active torsions:
REMARK  status: ('A' for Active; 'I' for Inactive)
REMARK    1  A    between atoms: O_4  and  C_32
REMARK    2  A    between atoms: O_4  and  C_34
REMARK    3  A    between atoms: N_5  and  C_12
REMARK    4  A    between atoms: N_6  and  C_13
REMARK    5  A    between atoms: N_7  and  C_18
REMARK    6  A    between atoms: C_18  and  C_22
REMARK    7  A    between atoms: C_19  and  C_23
REMARK                            x       y       z     vdW  Elec       q    Type
REMARK                         _______ _______ _______ _____ _____    ______ ____
ROOT
ATOM      1  O   UNL     1      11.221  13.557  24.154  0.00  0.00    -0.370 OA
ATOM      2  O   UNL     1      14.133  12.494  23.798  0.00  0.00    -0.370 OA
ATOM     10  C   UNL     1      12.862  11.844  23.968  0.00  0.00    +0.171 C 
ATOM     11  C   UNL     1      12.053  12.684  24.937  0.00  0.00    +0.171 C 
ATOM     12  C   UNL     1      12.070  11.896  22.683  0.00  0.00    +0.130 C 
ATOM     13  C   UNL     1      13.094  13.485  25.687  0.00  0.00    +0.131 C 
ATOM     14  C   UNL     1      11.396  13.253  22.762  0.00  0.00    +0.185 C 
ATOM     15  C   UNL     1      14.188  13.649  24.649  0.00  0.00    +0.185 C 
ENDROOT
BRANCH  12   5
ATOM      5  N   UNL     1      11.078  10.844  22.670  0.00  0.00    -0.306 N 
ATOM      8  N   UNL     1      12.619   9.269  21.941  0.00  0.00    -0.214 NA
ATOM      9  N   UNL     1      10.319   8.674  22.345  0.00  0.00    -0.223 NA
ATOM     16  C   UNL     1      11.350   9.539  22.302  0.00  0.00    +0.216 A 
ATOM     19  C   UNL     1      12.849   7.987  21.588  0.00  0.00    +0.076 A 
ATOM     20  C   UNL     1      10.621   7.410  21.980  0.00  0.00    +0.116 A 
ATOM     21  C   UNL     1      11.879   7.005  21.588  0.00  0.00    +0.048 A 
ATOM     35  H   UNL     1      10.138  11.042  22.994  0.00  0.00    +0.149 HD
BRANCH  19  23
ATOM     23  C   UNL     1      14.209   7.693  21.200  0.00  0.00    +0.001 A 
ATOM     26  C   UNL     1      15.246   8.528  21.615  0.00  0.00    +0.013 A 
ATOM     27  C   UNL     1      14.484   6.578  20.409  0.00  0.00    +0.013 A 
ATOM     30  C   UNL     1      16.561   8.247  21.240  0.00  0.00    +0.046 A 
ATOM     31  C   UNL     1      15.798   6.297  20.034  0.00  0.00    +0.046 A 
ATOM     32  C   UNL     1      16.836   7.131  20.450  0.00  0.00    +0.120 A 
BRANCH  32   4
ATOM      4  O   UNL     1      18.118   6.856  20.085  0.00  0.00    -0.495 OA
ATOM     34  C   UNL     1      19.038   6.542  21.131  0.00  0.00    +0.277 C 
ENDBRANCH  32   4
ENDBRANCH  19  23
ENDBRANCH  12   5
BRANCH  13   6
ATOM      3  O   UNL     1      13.735  14.585  28.277  0.00  0.00    -0.253 OA
ATOM      6  N   UNL     1      13.572  12.766  26.843  0.00  0.00    -0.292 N 
ATOM      7  N   UNL     1      14.302  12.455  29.003  0.00  0.00    -0.295 N 
ATOM     17  C   UNL     1      13.858  13.380  28.061  0.00  0.00    +0.300 C 
ATOM     36  H   UNL     1      13.642  11.754  26.788  0.00  0.00    +0.151 HD
ATOM     37  H   UNL     1      14.350  11.476  28.740  0.00  0.00    +0.151 HD
BRANCH   7  18
ATOM     18  C   UNL     1      14.669  12.824  30.350  0.00  0.00    +0.141 C 
BRANCH  18  22
ATOM     22  C   UNL     1      13.616  12.430  31.346  0.00  0.00    -0.030 A 
ATOM     24  C   UNL     1      13.624  11.150  31.900  0.00  0.00    +0.005 A 
ATOM     25  C   UNL     1      12.629  13.343  31.716  0.00  0.00    +0.005 A 
ATOM     28  C   UNL     1      12.646  10.784  32.824  0.00  0.00    +0.000 A 
ATOM     29  C   UNL     1      11.651  12.977  32.641  0.00  0.00    +0.000 A 
ATOM     33  C   UNL     1      11.660  11.697  33.194  0.00  0.00    +0.000 A 
ENDBRANCH  18  22
ENDBRANCH   7  18
ENDBRANCH  13   6
TORSDOF 6
ENDMDL
MODEL 5
REMARK VINA RESULT:      -7.6     27.559     33.813
REMARK  Name = 11941657
REMARK  7 active torsions:
REMARK  status: ('A' for Active; 'I' for Inactive)
REMARK    1  A    between atoms: O_4  and  C_32
REMARK    2  A    between atoms: O_4  and  C_34
REMARK    3  A    between atoms: N_5  and  C_12
REMARK    4  A    between atoms: N_6  and  C_13
REMARK    5  A    between atoms: N_7  and  C_18
REMARK    6  A    between atoms: C_18  and  C_22
REMARK    7  A    between atoms: C_19  and  C_23
REMARK                            x       y       z     vdW  Elec       q    Type
REMARK                         _______ _______ _______ _____ _____    ______ ____
ROOT
ATOM      1  O   UNL     1     -13.455   5.380  22.295  0.00  0.00    -0.370 OA
ATOM      2  O   UNL     1     -16.552   5.759  22.358  0.00  0.00    -0.370 OA
ATOM     10  C   UNL     1     -15.452   6.558  22.827  0.00  0.00    +0.171 C 
ATOM     11  C   UNL     1     -14.397   5.607  23.356  0.00  0.00    +0.171 C 
ATOM     12  C   UNL     1     -14.777   7.252  21.668  0.00  0.00    +0.130 C 
ATOM     13  C   UNL     1     -15.164   4.338  23.658  0.00  0.00    +0.131 C 
ATOM     14  C   UNL     1     -13.807   6.197  21.168  0.00  0.00    +0.185 C 
ATOM     15  C   UNL     1     -16.273   4.376  22.623  0.00  0.00    +0.185 C 
ENDROOT
BRANCH  12   5
ATOM      5  N   UNL     1     -14.054   8.413  22.138  0.00  0.00    -0.306 N 
ATOM      8  N   UNL     1     -13.082   8.767  20.060  0.00  0.00    -0.214 NA
ATOM      9  N   UNL     1     -12.613  10.221  21.924  0.00  0.00    -0.223 NA
ATOM     16  C   UNL     1     -13.213   9.167  21.339  0.00  0.00    +0.216 A 
ATOM     19  C   UNL     1     -12.255   9.525  19.309  0.00  0.00    +0.076 A 
ATOM     20  C   UNL     1     -11.801  10.934  21.115  0.00  0.00    +0.116 A 
ATOM     21  C   UNL     1     -11.581  10.630  19.788  0.00  0.00    +0.048 A 
ATOM     35  H   UNL     1     -14.198   8.739  23.087  0.00  0.00    +0.149 HD
BRANCH  19  23
ATOM     23  C   UNL     1     -12.113   9.100  17.937  0.00  0.00    +0.001 A 
ATOM     26  C   UNL     1     -13.247   8.888  17.153  0.00  0.00    +0.013 A 
ATOM     27  C   UNL     1     -10.843   8.900  17.395  0.00  0.00    +0.013 A 
ATOM     30  C   UNL     1     -13.111   8.477  15.827  0.00  0.00    +0.046 A 
ATOM     31  C   UNL     1     -10.707   8.489  16.069  0.00  0.00    +0.046 A 
ATOM     32  C   UNL     1     -11.842   8.277  15.286  0.00  0.00    +0.120 A 
BRANCH  32   4
ATOM      4  O   UNL     1     -11.709   7.877  13.991  0.00  0.00    -0.495 OA
ATOM     34  C   UNL     1     -10.390   7.587  13.532  0.00  0.00    +0.277 C 
ENDBRANCH  32   4
ENDBRANCH  19  23
ENDBRANCH  12   5
BRANCH  13   6
ATOM      3  O   UNL     1     -15.999   2.066  25.229  0.00  0.00    -0.253 OA
ATOM      6  N   UNL     1     -15.697   4.357  24.998  0.00  0.00    -0.292 N 
ATOM      7  N   UNL     1     -16.558   3.511  26.957  0.00  0.00    -0.295 N 
ATOM     17  C   UNL     1     -16.077   3.206  25.686  0.00  0.00    +0.300 C 
ATOM     36  H   UNL     1     -15.739   5.245  25.490  0.00  0.00    +0.151 HD
ATOM     37  H   UNL     1     -16.564   4.481  27.257  0.00  0.00    +0.151 HD
BRANCH   7  18
ATOM     18  C   UNL     1     -17.020   2.502  27.881  0.00  0.00    +0.141 C 
BRANCH  18  22
ATOM     22  C   UNL     1     -15.963   2.131  28.881  0.00  0.00    -0.030 A 
ATOM     24  C   UNL     1     -15.881   0.821  29.355  0.00  0.00    +0.005 A 
ATOM     25  C   UNL     1     -15.064   3.094  29.337  0.00  0.00    +0.005 A 
ATOM     28  C   UNL     1     -14.900   0.476  30.284  0.00  0.00    +0.000 A 
ATOM     29  C   UNL     1     -14.083   2.749  30.266  0.00  0.00    +0.000 A 
ATOM     33  C   UNL     1     -14.001   1.440  30.740  0.00  0.00    +0.000 A 
ENDBRANCH  18  22
ENDBRANCH   7  18
ENDBRANCH  13   6
TORSDOF 6
ENDMDL
MODEL 6
REMARK VINA RESULT:      -7.4     24.449     26.689
REMARK  Name = 11941657
REMARK  7 active torsions:
REMARK  status: ('A' for Active; 'I' for Inactive)
REMARK    1  A    between atoms: O_4  and  C_32
REMARK    2  A    between atoms: O_4  and  C_34
REMARK    3  A    between atoms: N_5  and  C_12
REMARK    4  A    between atoms: N_6  and  C_13
REMARK    5  A    between atoms: N_7  and  C_18
REMARK    6  A    between atoms: C_18  and  C_22
REMARK    7  A    between atoms: C_19  and  C_23
REMARK                            x       y       z     vdW  Elec       q    Type
REMARK                         _______ _______ _______ _____ _____    ______ ____
ROOT
ATOM      1  O   UNL     1      -3.676  -9.048   9.804  0.00  0.00    -0.370 OA
ATOM      2  O   UNL     1      -5.072 -11.835   9.958  0.00  0.00    -0.370 OA
ATOM     10  C   UNL     1      -5.504 -10.499  10.267  0.00  0.00    +0.171 C 
ATOM     11  C   UNL     1      -4.319  -9.770  10.868  0.00  0.00    +0.171 C 
ATOM     12  C   UNL     1      -5.802  -9.737   8.997  0.00  0.00    +0.130 C 
ATOM     13  C   UNL     1      -3.420 -10.879  11.368  0.00  0.00    +0.131 C 
ATOM     14  C   UNL     1      -4.436  -9.210   8.597  0.00  0.00    +0.185 C 
ATOM     15  C   UNL     1      -3.713 -12.000  10.388  0.00  0.00    +0.185 C 
ENDROOT
BRANCH  12   5
ATOM      5  N   UNL     1      -6.699  -8.637   9.278  0.00  0.00    -0.306 N 
ATOM      8  N   UNL     1      -7.466  -8.579   7.088  0.00  0.00    -0.214 NA
ATOM      9  N   UNL     1      -8.306  -7.048   8.748  0.00  0.00    -0.223 NA
ATOM     16  C   UNL     1      -7.526  -8.063   8.330  0.00  0.00    +0.216 A 
ATOM     19  C   UNL     1      -8.285  -7.995   6.189  0.00  0.00    +0.076 A 
ATOM     20  C   UNL     1      -9.100  -6.512   7.797  0.00  0.00    +0.116 A 
ATOM     21  C   UNL     1      -9.132  -6.948   6.489  0.00  0.00    +0.048 A 
ATOM     35  H   UNL     1      -6.778  -8.289  10.227  0.00  0.00    +0.149 HD
BRANCH  19  23
ATOM     23  C   UNL     1      -8.224  -8.547   4.855  0.00  0.00    +0.001 A 
ATOM     26  C   UNL     1      -8.444  -7.723   3.751  0.00  0.00    +0.013 A 
ATOM     27  C   UNL     1      -7.947  -9.901   4.672  0.00  0.00    +0.013 A 
ATOM     30  C   UNL     1      -8.386  -8.255   2.462  0.00  0.00    +0.046 A 
ATOM     31  C   UNL     1      -7.889 -10.433   3.383  0.00  0.00    +0.046 A 
ATOM     32  C   UNL     1      -8.109  -9.609   2.279  0.00  0.00    +0.120 A 
BRANCH  32   4
ATOM      4  O   UNL     1      -8.052 -10.127   1.022  0.00  0.00    -0.495 OA
ATOM     34  C   UNL     1      -8.801  -9.458   0.008  0.00  0.00    +0.277 C 
ENDBRANCH  32   4
ENDBRANCH  19  23
ENDBRANCH  12   5
BRANCH  13   6
ATOM      3  O   UNL     1      -2.096 -10.054  13.796  0.00  0.00    -0.253 OA
ATOM      6  N   UNL     1      -3.761 -11.260  12.716  0.00  0.00    -0.292 N 
ATOM      7  N   UNL     1      -3.604 -11.332  15.011  0.00  0.00    -0.295 N 
ATOM     17  C   UNL     1      -3.065 -10.811  13.837  0.00  0.00    +0.300 C 
ATOM     36  H   UNL     1      -4.589 -11.830  12.863  0.00  0.00    +0.151 HD
ATOM     37  H   UNL     1      -4.420 -11.933  14.949  0.00  0.00    +0.151 HD
BRANCH   7  18
ATOM     18  C   UNL     1      -3.072 -11.029  16.319  0.00  0.00    +0.141 C 
BRANCH  18  22
ATOM     22  C   UNL     1      -4.141 -11.024  17.373  0.00  0.00    -0.030 A 
ATOM     24  C   UNL     1      -3.970 -11.763  18.544  0.00  0.00    +0.005 A 
ATOM     25  C   UNL     1      -5.307 -10.284  17.181  0.00  0.00    +0.005 A 
ATOM     28  C   UNL     1      -4.963 -11.759  19.522  0.00  0.00    +0.000 A 
ATOM     29  C   UNL     1      -6.300 -10.279  18.160  0.00  0.00    +0.000 A 
ATOM     33  C   UNL     1      -6.129 -11.018  19.330  0.00  0.00    +0.000 A 
ENDBRANCH  18  22
ENDBRANCH   7  18
ENDBRANCH  13   6
TORSDOF 6
ENDMDL
MODEL 7
REMARK VINA RESULT:      -7.4     25.031     30.120
REMARK  Name = 11941657
REMARK  7 active torsions:
REMARK  status: ('A' for Active; 'I' for Inactive)
REMARK    1  A    between atoms: O_4  and  C_32
REMARK    2  A    between atoms: O_4  and  C_34
REMARK    3  A    between atoms: N_5  and  C_12
REMARK    4  A    between atoms: N_6  and  C_13
REMARK    5  A    between atoms: N_7  and  C_18
REMARK    6  A    between atoms: C_18  and  C_22
REMARK    7  A    between atoms: C_19  and  C_23
REMARK                            x       y       z     vdW  Elec       q    Type
REMARK                         _______ _______ _______ _____ _____    ______ ____
ROOT
ATOM      1  O   UNL     1      -7.219 -12.318  17.228  0.00  0.00    -0.370 OA
ATOM      2  O   UNL     1      -4.993 -10.896  18.889  0.00  0.00    -0.370 OA
ATOM     10  C   UNL     1      -5.818 -10.479  17.788  0.00  0.00    +0.171 C 
ATOM     11  C   UNL     1      -5.985 -11.675  16.871  0.00  0.00    +0.171 C 
ATOM     12  C   UNL     1      -7.220 -10.182  18.266  0.00  0.00    +0.130 C 
ATOM     13  C   UNL     1      -4.811 -12.565  17.212  0.00  0.00    +0.131 C 
ATOM     14  C   UNL     1      -7.875 -11.550  18.249  0.00  0.00    +0.185 C 
ATOM     15  C   UNL     1      -4.584 -12.256  18.680  0.00  0.00    +0.185 C 
ENDROOT
BRANCH  12   5
ATOM      5  N   UNL     1      -7.884  -9.297  17.335  0.00  0.00    -0.306 N 
ATOM      8  N   UNL     1      -9.960  -9.687  18.299  0.00  0.00    -0.214 NA
ATOM      9  N   UNL     1      -9.713  -8.199  16.419  0.00  0.00    -0.223 NA
ATOM     16  C   UNL     1      -9.245  -9.050  17.351  0.00  0.00    +0.216 A 
ATOM     19  C   UNL     1     -11.283  -9.423  18.286  0.00  0.00    +0.076 A 
ATOM     20  C   UNL     1     -11.045  -7.981  16.464  0.00  0.00    +0.116 A 
ATOM     21  C   UNL     1     -11.887  -8.571  17.383  0.00  0.00    +0.048 A 
ATOM     35  H   UNL     1      -7.333  -8.781  16.658  0.00  0.00    +0.149 HD
BRANCH  19  23
ATOM     23  C   UNL     1     -12.053 -10.103  19.300  0.00  0.00    +0.001 A 
ATOM     26  C   UNL     1     -13.232  -9.531  19.780  0.00  0.00    +0.013 A 
ATOM     27  C   UNL     1     -11.618 -11.329  19.803  0.00  0.00    +0.013 A 
ATOM     30  C   UNL     1     -13.976 -10.186  20.762  0.00  0.00    +0.046 A 
ATOM     31  C   UNL     1     -12.362 -11.984  20.784  0.00  0.00    +0.046 A 
ATOM     32  C   UNL     1     -13.541 -11.412  21.263  0.00  0.00    +0.120 A 
BRANCH  32   4
ATOM      4  O   UNL     1     -14.268 -12.052  22.220  0.00  0.00    -0.495 OA
ATOM     34  C   UNL     1     -13.544 -12.656  23.291  0.00  0.00    +0.277 C 
ENDBRANCH  32   4
ENDBRANCH  19  23
ENDBRANCH  12   5
BRANCH  13   6
ATOM      3  O   UNL     1      -4.142 -13.569  14.590  0.00  0.00    -0.253 OA
ATOM      6  N   UNL     1      -3.653 -12.228  16.421  0.00  0.00    -0.292 N 
ATOM      7  N   UNL     1      -2.222 -12.267  14.619  0.00  0.00    -0.295 N 
ATOM     17  C   UNL     1      -3.407 -12.762  15.158  0.00  0.00    +0.300 C 
ATOM     36  H   UNL     1      -3.017 -11.517  16.772  0.00  0.00    +0.151 HD
ATOM     37  H   UNL     1      -1.691 -11.585  15.153  0.00  0.00    +0.151 HD
BRANCH   7  18
ATOM     18  C   UNL     1      -1.729 -12.657  13.319  0.00  0.00    +0.141 C 
BRANCH  18  22
ATOM     22  C   UNL     1      -2.313 -11.815  12.222  0.00  0.00    -0.030 A 
ATOM     24  C   UNL     1      -3.274 -12.352  11.365  0.00  0.00    +0.005 A 
ATOM     25  C   UNL     1      -1.894 -10.495  12.057  0.00  0.00    +0.005 A 
ATOM     28  C   UNL     1      -3.815 -11.571  10.346  0.00  0.00    +0.000 A 
ATOM     29  C   UNL     1      -2.436  -9.713  11.037  0.00  0.00    +0.000 A 
ATOM     33  C   UNL     1      -3.397 -10.251  10.182  0.00  0.00    +0.000 A 
ENDBRANCH  18  22
ENDBRANCH   7  18
ENDBRANCH  13   6
TORSDOF 6
ENDMDL
MODEL 8
REMARK VINA RESULT:      -7.4     29.611     35.365
REMARK  Name = 11941657
REMARK  7 active torsions:
REMARK  status: ('A' for Active; 'I' for Inactive)
REMARK    1  A    between atoms: O_4  and  C_32
REMARK    2  A    between atoms: O_4  and  C_34
REMARK    3  A    between atoms: N_5  and  C_12
REMARK    4  A    between atoms: N_6  and  C_13
REMARK    5  A    between atoms: N_7  and  C_18
REMARK    6  A    between atoms: C_18  and  C_22
REMARK    7  A    between atoms: C_19  and  C_23
REMARK                            x       y       z     vdW  Elec       q    Type
REMARK                         _______ _______ _______ _____ _____    ______ ____
ROOT
ATOM      1  O   UNL     1     -18.253   5.988  23.468  0.00  0.00    -0.370 OA
ATOM      2  O   UNL     1     -15.930   3.970  23.986  0.00  0.00    -0.370 OA
ATOM     10  C   UNL     1     -16.372   5.158  24.665  0.00  0.00    +0.171 C 
ATOM     11  C   UNL     1     -16.830   6.138  23.604  0.00  0.00    +0.171 C 
ATOM     12  C   UNL     1     -17.620   4.871  25.466  0.00  0.00    +0.130 C 
ATOM     13  C   UNL     1     -16.130   5.673  22.346  0.00  0.00    +0.131 C 
ATOM     14  C   UNL     1     -18.722   5.038  24.437  0.00  0.00    +0.185 C 
ATOM     15  C   UNL     1     -16.024   4.176  22.569  0.00  0.00    +0.185 C 
ENDROOT
BRANCH  12   5
ATOM      5  N   UNL     1     -17.767   5.849  26.521  0.00  0.00    -0.306 N 
ATOM      8  N   UNL     1     -16.630   4.517  28.045  0.00  0.00    -0.214 NA
ATOM      9  N   UNL     1     -17.490   6.679  28.672  0.00  0.00    -0.223 NA
ATOM     16  C   UNL     1     -17.274   5.674  27.802  0.00  0.00    +0.216 A 
ATOM     19  C   UNL     1     -16.163   4.379  29.303  0.00  0.00    +0.076 A 
ATOM     20  C   UNL     1     -16.996   6.474  29.912  0.00  0.00    +0.116 A 
ATOM     21  C   UNL     1     -16.318   5.334  30.288  0.00  0.00    +0.048 A 
ATOM     35  H   UNL     1     -18.207   6.739  26.317  0.00  0.00    +0.149 HD
BRANCH  19  23
ATOM     23  C   UNL     1     -15.470   3.140  29.567  0.00  0.00    +0.001 A 
ATOM     26  C   UNL     1     -16.001   1.934  29.108  0.00  0.00    +0.013 A 
ATOM     27  C   UNL     1     -14.273   3.148  30.283  0.00  0.00    +0.013 A 
ATOM     30  C   UNL     1     -15.333   0.736  29.364  0.00  0.00    +0.046 A 
ATOM     31  C   UNL     1     -13.606   1.950  30.539  0.00  0.00    +0.046 A 
ATOM     32  C   UNL     1     -14.137   0.744  30.079  0.00  0.00    +0.120 A 
BRANCH  32   4
ATOM      4  O   UNL     1     -13.485  -0.425  30.327  0.00  0.00    -0.495 OA
ATOM     34  C   UNL     1     -13.098  -1.206  29.197  0.00  0.00    +0.277 C 
ENDBRANCH  32   4
ENDBRANCH  19  23
ENDBRANCH  12   5
BRANCH  13   6
ATOM      3  O   UNL     1     -15.519   8.281  21.272  0.00  0.00    -0.253 OA
ATOM      6  N   UNL     1     -14.827   6.277  22.220  0.00  0.00    -0.292 N 
ATOM      7  N   UNL     1     -13.269   7.884  21.684  0.00  0.00    -0.295 N 
ATOM     17  C   UNL     1     -14.621   7.549  21.688  0.00  0.00    +0.300 C 
ATOM     36  H   UNL     1     -14.025   5.781  22.598  0.00  0.00    +0.151 HD
ATOM     37  H   UNL     1     -12.601   7.224  22.068  0.00  0.00    +0.151 HD
BRANCH   7  18
ATOM     18  C   UNL     1     -12.778   9.147  21.184  0.00  0.00    +0.141 C 
BRANCH  18  22
ATOM     22  C   UNL     1     -12.003   8.983  19.909  0.00  0.00    -0.030 A 
ATOM     24  C   UNL     1     -12.552   8.266  18.845  0.00  0.00    +0.005 A 
ATOM     25  C   UNL     1     -10.732   9.544  19.788  0.00  0.00    +0.005 A 
ATOM     28  C   UNL     1     -11.832   8.113  17.662  0.00  0.00    +0.000 A 
ATOM     29  C   UNL     1     -10.012   9.391  18.603  0.00  0.00    +0.000 A 
ATOM     33  C   UNL     1     -10.561   8.675  17.540  0.00  0.00    +0.000 A 
ENDBRANCH  18  22
ENDBRANCH   7  18
ENDBRANCH  13   6
TORSDOF 6
ENDMDL
MODEL 9
REMARK VINA RESULT:      -7.3     22.974     24.643
REMARK  Name = 11941657
REMARK  7 active torsions:
REMARK  status: ('A' for Active; 'I' for Inactive)
REMARK    1  A    between atoms: O_4  and  C_32
REMARK    2  A    between atoms: O_4  and  C_34
REMARK    3  A    between atoms: N_5  and  C_12
REMARK    4  A    between atoms: N_6  and  C_13
REMARK    5  A    between atoms: N_7  and  C_18
REMARK    6  A    between atoms: C_18  and  C_22
REMARK    7  A    between atoms: C_19  and  C_23
REMARK                            x       y       z     vdW  Elec       q    Type
REMARK                         _______ _______ _______ _____ _____    ______ ____
ROOT
ATOM      1  O   UNL     1      -4.150 -14.878   2.897  0.00  0.00    -0.370 OA
ATOM      2  O   UNL     1      -1.565 -13.532   4.013  0.00  0.00    -0.370 OA
ATOM     10  C   UNL     1      -2.809 -13.012   3.512  0.00  0.00    +0.171 C 
ATOM     11  C   UNL     1      -3.240 -13.902   2.364  0.00  0.00    +0.171 C 
ATOM     12  C   UNL     1      -3.901 -13.183   4.542  0.00  0.00    +0.130 C 
ATOM     13  C   UNL     1      -1.959 -14.569   1.915  0.00  0.00    +0.131 C 
ATOM     14  C   UNL     1      -4.381 -14.599   4.286  0.00  0.00    +0.185 C 
ATOM     15  C   UNL     1      -1.165 -14.649   3.206  0.00  0.00    +0.185 C 
ENDROOT
BRANCH  12   5
ATOM      5  N   UNL     1      -4.969 -12.240   4.292  0.00  0.00    -0.306 N 
ATOM      8  N   UNL     1      -4.768 -11.307   6.408  0.00  0.00    -0.214 NA
ATOM      9  N   UNL     1      -6.404 -10.496   4.835  0.00  0.00    -0.223 NA
ATOM     16  C   UNL     1      -5.399 -11.307   5.219  0.00  0.00    +0.216 A 
ATOM     19  C   UNL     1      -5.212 -10.385   7.288  0.00  0.00    +0.076 A 
ATOM     20  C   UNL     1      -6.797  -9.599   5.764  0.00  0.00    +0.116 A 
ATOM     21  C   UNL     1      -6.233  -9.497   7.018  0.00  0.00    +0.048 A 
ATOM     35  H   UNL     1      -5.404 -12.210   3.377  0.00  0.00    +0.149 HD
BRANCH  19  23
ATOM     23  C   UNL     1      -4.537 -10.381   8.565  0.00  0.00    +0.001 A 
ATOM     26  C   UNL     1      -4.082  -9.179   9.107  0.00  0.00    +0.013 A 
ATOM     27  C   UNL     1      -4.337 -11.577   9.253  0.00  0.00    +0.013 A 
ATOM     30  C   UNL     1      -3.428  -9.174  10.340  0.00  0.00    +0.046 A 
ATOM     31  C   UNL     1      -3.684 -11.572  10.486  0.00  0.00    +0.046 A 
ATOM     32  C   UNL     1      -3.229 -10.370  11.028  0.00  0.00    +0.120 A 
BRANCH  32   4
ATOM      4  O   UNL     1      -2.593 -10.364  12.231  0.00  0.00    -0.495 OA
ATOM     34  C   UNL     1      -1.868 -11.540  12.589  0.00  0.00    +0.277 C 
ENDBRANCH  32   4
ENDBRANCH  19  23
ENDBRANCH  12   5
BRANCH  13   6
ATOM      3  O   UNL     1      -0.355 -15.525  -0.286  0.00  0.00    -0.253 OA
ATOM      6  N   UNL     1      -1.273 -13.771   0.928  0.00  0.00    -0.292 N 
ATOM      7  N   UNL     1       0.034 -13.325  -0.913  0.00  0.00    -0.295 N 
ATOM     17  C   UNL     1      -0.517 -14.318  -0.107  0.00  0.00    +0.300 C 
ATOM     36  H   UNL     1      -1.399 -12.763   0.948  0.00  0.00    +0.151 HD
ATOM     37  H   UNL     1      -0.173 -12.354  -0.701  0.00  0.00    +0.151 HD
BRANCH   7  18
ATOM     18  C   UNL     1       0.863 -13.616  -2.058  0.00  0.00    +0.141 C 
BRANCH  18  22
ATOM     22  C   UNL     1       2.251 -14.026  -1.657  0.00  0.00    -0.030 A 
ATOM     24  C   UNL     1       2.915 -13.339  -0.640  0.00  0.00    +0.005 A 
ATOM     25  C   UNL     1       2.878 -15.092  -2.302  0.00  0.00    +0.005 A 
ATOM     28  C   UNL     1       4.204 -13.719  -0.269  0.00  0.00    +0.000 A 
ATOM     29  C   UNL     1       4.167 -15.472  -1.929  0.00  0.00    +0.000 A 
ATOM     33  C   UNL     1       4.830 -14.785  -0.913  0.00  0.00    +0.000 A 
ENDBRANCH  18  22
ENDBRANCH   7  18
ENDBRANCH  13   6
TORSDOF 6
ENDMDL
MODEL 10
REMARK VINA RESULT:      -7.3     24.680     29.225
REMARK  Name = 11941657
REMARK  7 active torsions:
REMARK  status: ('A' for Active; 'I' for Inactive)
REMARK    1  A    between atoms: O_4  and  C_32
REMARK    2  A    between atoms: O_4  and  C_34
REMARK    3  A    between atoms: N_5  and  C_12
REMARK    4  A    between atoms: N_6  and  C_13
REMARK    5  A    between atoms: N_7  and  C_18
REMARK    6  A    between atoms: C_18  and  C_22
REMARK    7  A    between atoms: C_19  and  C_23
REMARK                            x       y       z     vdW  Elec       q    Type
REMARK                         _______ _______ _______ _____ _____    ______ ____
ROOT
ATOM      1  O   UNL     1      -5.580 -11.968  19.110  0.00  0.00    -0.370 OA
ATOM      2  O   UNL     1      -5.940  -9.874  16.824  0.00  0.00    -0.370 OA
ATOM     10  C   UNL     1      -6.710 -11.013  17.247  0.00  0.00    +0.171 C 
ATOM     11  C   UNL     1      -5.729 -12.082  17.685  0.00  0.00    +0.171 C 
ATOM     12  C   UNL     1      -7.485 -10.685  18.501  0.00  0.00    +0.130 C 
ATOM     13  C   UNL     1      -4.440 -11.706  16.991  0.00  0.00    +0.131 C 
ATOM     14  C   UNL     1      -6.471 -10.953  19.598  0.00  0.00    +0.185 C 
ATOM     15  C   UNL     1      -4.543 -10.194  16.911  0.00  0.00    +0.185 C 
ENDROOT
BRANCH  12   5
ATOM      5  N   UNL     1      -8.614 -11.579  18.634  0.00  0.00    -0.306 N 
ATOM      8  N   UNL     1     -10.004 -10.152  17.442  0.00  0.00    -0.214 NA
ATOM      9  N   UNL     1     -10.814 -12.248  18.313  0.00  0.00    -0.223 NA
ATOM     16  C   UNL     1      -9.866 -11.315  18.107  0.00  0.00    +0.216 A 
ATOM     19  C   UNL     1     -11.237  -9.927  16.942  0.00  0.00    +0.076 A 
ATOM     20  C   UNL     1     -12.022 -11.958  17.785  0.00  0.00    +0.116 A 
ATOM     21  C   UNL     1     -12.295 -10.802  17.084  0.00  0.00    +0.048 A 
ATOM     35  H   UNL     1      -8.488 -12.476  19.090  0.00  0.00    +0.149 HD
BRANCH  19  23
ATOM     23  C   UNL     1     -11.390  -8.681  16.228  0.00  0.00    +0.001 A 
ATOM     26  C   UNL     1     -11.000  -7.483  16.827  0.00  0.00    +0.013 A 
ATOM     27  C   UNL     1     -11.929  -8.675  14.941  0.00  0.00    +0.013 A 
ATOM     30  C   UNL     1     -11.149  -6.279  16.138  0.00  0.00    +0.046 A 
ATOM     31  C   UNL     1     -12.076  -7.471  14.253  0.00  0.00    +0.046 A 
ATOM     32  C   UNL     1     -11.687  -6.273  14.852  0.00  0.00    +0.120 A 
BRANCH  32   4
ATOM      4  O   UNL     1     -11.830  -5.098  14.180  0.00  0.00    -0.495 OA
ATOM     34  C   UNL     1     -13.111  -4.825  13.614  0.00  0.00    +0.277 C 
ENDBRANCH  32   4
ENDBRANCH  19  23
ENDBRANCH  12   5
BRANCH  13   6
ATOM      3  O   UNL     1      -2.359 -11.318  15.029  0.00  0.00    -0.253 OA
ATOM      6  N   UNL     1      -4.364 -12.295  15.676  0.00  0.00    -0.292 N 
ATOM      7  N   UNL     1      -3.494 -12.745  13.593  0.00  0.00    -0.295 N 
ATOM     17  C   UNL     1      -3.317 -12.052  14.789  0.00  0.00    +0.300 C 
ATOM     36  H   UNL     1      -5.073 -12.970  15.407  0.00  0.00    +0.151 HD
ATOM     37  H   UNL     1      -4.306 -13.346  13.494  0.00  0.00    +0.151 HD
BRANCH   7  18
ATOM     18  C   UNL     1      -2.555 -12.671  12.499  0.00  0.00    +0.141 C 
BRANCH  18  22
ATOM     22  C   UNL     1      -2.959 -11.643  11.482  0.00  0.00    -0.030 A 
ATOM     24  C   UNL     1      -2.409 -10.362  11.528  0.00  0.00    +0.005 A 
ATOM     25  C   UNL     1      -3.885 -11.968  10.491  0.00  0.00    +0.005 A 
ATOM     28  C   UNL     1      -2.784  -9.407  10.585  0.00  0.00    +0.000 A 
ATOM     29  C   UNL     1      -4.260 -11.013   9.546  0.00  0.00    +0.000 A 
ATOM     33  C   UNL     1      -3.710  -9.732   9.593  0.00  0.00    +0.000 A 
ENDBRANCH  18  22
ENDBRANCH   7  18
ENDBRANCH  13   6
TORSDOF 6
ENDMDL
