MODEL 1
REMARK VINA RESULT:      -8.3      0.000      0.000
REMARK  Name = 26743320
REMARK  9 active torsions:
REMARK  status: ('A' for Active; 'I' for Inactive)
REMARK    1  A    between atoms: C_6  and  C_10
REMARK    2  A    between atoms: C_7  and  C_12
REMARK    3  A    between atoms: C_10  and  C_13
REMARK    4  A    between atoms: C_12  and  C_14
REMARK    5  A    between atoms: C_21  and  C_24
REMARK    6  A    between atoms: C_25  and  C_28
REMARK    7  A    between atoms: C_25  and  C_33
REMARK    8  A    between atoms: C_25  and  C_34
REMARK    9  A    between atoms: C_25  and  C_35
REMARK                            x       y       z     vdW  Elec       q    Type
REMARK                         _______ _______ _______ _____ _____    ______ ____
ROOT
ATOM      3  N   UNL     1     -18.071  -0.130  24.903  0.00  0.00    -0.316 NA
ATOM      6  C   UNL     1     -18.227   2.584  26.051  0.00  0.00    +0.004 C 
ATOM      7  C   UNL     1     -17.125   2.161  25.051  0.00  0.00    +0.012 C 
ATOM      8  C   UNL     1     -19.457   1.680  25.854  0.00  0.00    +0.019 C 
ATOM      9  C   UNL     1     -16.851   0.649  25.113  0.00  0.00    +0.085 C 
ATOM     11  C   UNL     1     -19.101   0.195  25.889  0.00  0.00    +0.081 C 
ATOM     36  H   UNL     1     -17.852  -1.124  24.960  0.00  0.00    +0.122 HD
ENDROOT
BRANCH   6  10
ATOM     10  C   UNL     1     -17.775   2.580  27.516  0.00  0.00    +0.100 C 
BRANCH  10  13
ATOM      1  O   UNL     1     -18.900   4.644  27.839  0.00  0.00    -0.276 OA
ATOM      4  N   UNL     1     -16.850   4.394  28.912  0.00  0.00    -0.297 N 
ATOM     13  C   UNL     1     -17.900   3.967  28.096  0.00  0.00    +0.216 C 
ATOM     15  C   UNL     1     -16.816   5.780  29.379  0.00  0.00    +0.113 C 
ATOM     16  C   UNL     1     -15.662   3.582  29.215  0.00  0.00    +0.143 C 
ATOM     17  C   UNL     1     -16.600   5.832  30.886  0.00  0.00    +0.054 C 
ATOM     18  C   UNL     1     -14.960   3.952  30.499  0.00  0.00    -0.027 A 
ATOM     20  C   UNL     1     -15.392   5.030  31.290  0.00  0.00    -0.041 A 
ATOM     22  C   UNL     1     -13.844   3.206  30.905  0.00  0.00    +0.005 A 
ATOM     23  C   UNL     1     -14.723   5.326  32.486  0.00  0.00    +0.004 A 
ATOM     26  C   UNL     1     -13.177   3.516  32.090  0.00  0.00    +0.000 A 
ATOM     27  C   UNL     1     -13.618   4.574  32.881  0.00  0.00    +0.000 A 
ENDBRANCH  10  13
ENDBRANCH   6  10
BRANCH   7  12
ATOM     12  C   UNL     1     -15.826   2.950  25.221  0.00  0.00    +0.064 C 
BRANCH  12  14
ATOM      2  O   UNL     1     -15.706   4.489  21.968  0.00  0.00    -0.354 OA
ATOM      5  N   UNL     1     -16.299   3.665  22.918  0.00  0.00    -0.083 NA
ATOM     14  C   UNL     1     -15.493   3.729  23.981  0.00  0.00    +0.085 A 
ATOM     19  C   UNL     1     -14.387   4.568  23.763  0.00  0.00    +0.076 A 
ATOM     21  C   UNL     1     -14.569   5.020  22.483  0.00  0.00    +0.167 A 
BRANCH  21  24
ATOM     24  C   UNL     1     -13.841   5.897  21.611  0.00  0.00    +0.020 A 
ATOM     28  C   UNL     1     -12.428   7.602  19.915  0.00  0.00    -0.042 A 
ATOM     29  C   UNL     1     -12.448   5.858  21.588  0.00  0.00    +0.012 A 
ATOM     30  C   UNL     1     -14.529   6.788  20.788  0.00  0.00    +0.012 A 
ATOM     31  C   UNL     1     -11.740   6.711  20.739  0.00  0.00    +0.005 A 
ATOM     32  C   UNL     1     -13.822   7.640  19.940  0.00  0.00    +0.005 A 
BRANCH  28  25
ATOM     25  C   UNL     1     -11.671   8.514  19.009  0.00  0.00    -0.013 C 
ATOM     33  C   UNL     1     -12.630   9.477  18.245  0.00  0.00    +0.015 C 
ATOM     34  C   UNL     1     -10.865   7.710  17.943  0.00  0.00    +0.015 C 
ATOM     35  C   UNL     1     -10.624   9.440  19.712  0.00  0.00    +0.015 C 
ENDBRANCH  28  25
ENDBRANCH  21  24
ENDBRANCH  12  14
ENDBRANCH   7  12
TORSDOF 6
ENDMDL
MODEL 2
REMARK VINA RESULT:      -7.7     16.986     21.443
REMARK  Name = 26743320
REMARK  9 active torsions:
REMARK  status: ('A' for Active; 'I' for Inactive)
REMARK    1  A    between atoms: C_6  and  C_10
REMARK    2  A    between atoms: C_7  and  C_12
REMARK    3  A    between atoms: C_10  and  C_13
REMARK    4  A    between atoms: C_12  and  C_14
REMARK    5  A    between atoms: C_21  and  C_24
REMARK    6  A    between atoms: C_25  and  C_28
REMARK    7  A    between atoms: C_25  and  C_33
REMARK    8  A    between atoms: C_25  and  C_34
REMARK    9  A    between atoms: C_25  and  C_35
REMARK                            x       y       z     vdW  Elec       q    Type
REMARK                         _______ _______ _______ _____ _____    ______ ____
ROOT
ATOM      3  N   UNL     1      -3.693 -11.904  18.653  0.00  0.00    -0.316 NA
ATOM      6  C   UNL     1      -6.101 -11.104  17.145  0.00  0.00    +0.004 C 
ATOM      7  C   UNL     1      -6.168 -11.927  18.453  0.00  0.00    +0.012 C 
ATOM      8  C   UNL     1      -4.788 -10.302  17.124  0.00  0.00    +0.019 C 
ATOM      9  C   UNL     1      -4.888 -12.749  18.675  0.00  0.00    +0.085 C 
ATOM     11  C   UNL     1      -3.564 -11.178  17.391  0.00  0.00    +0.081 C 
ATOM     36  H   UNL     1      -2.867 -12.484  18.794  0.00  0.00    +0.122 HD
ENDROOT
BRANCH   6  10
ATOM     10  C   UNL     1      -6.246 -11.946  15.871  0.00  0.00    +0.100 C 
BRANCH  10  13
ATOM      1  O   UNL     1      -8.309 -10.963  15.233  0.00  0.00    -0.276 OA
ATOM      4  N   UNL     1      -6.611 -10.948  13.642  0.00  0.00    -0.297 N 
ATOM     13  C   UNL     1      -7.156 -11.244  14.893  0.00  0.00    +0.216 C 
ATOM     15  C   UNL     1      -7.473 -10.417  12.586  0.00  0.00    +0.113 C 
ATOM     16  C   UNL     1      -5.236 -11.284  13.244  0.00  0.00    +0.143 C 
ATOM     17  C   UNL     1      -6.858  -9.169  11.968  0.00  0.00    +0.054 C 
ATOM     18  C   UNL     1      -4.672 -10.421  12.142  0.00  0.00    -0.027 A 
ATOM     20  C   UNL     1      -5.443  -9.423  11.521  0.00  0.00    -0.041 A 
ATOM     22  C   UNL     1      -3.350 -10.627  11.723  0.00  0.00    +0.005 A 
ATOM     23  C   UNL     1      -4.873  -8.629  10.515  0.00  0.00    +0.004 A 
ATOM     26  C   UNL     1      -2.795  -9.842  10.712  0.00  0.00    +0.000 A 
ATOM     27  C   UNL     1      -3.556  -8.842  10.111  0.00  0.00    +0.000 A 
ENDBRANCH  10  13
ENDBRANCH   6  10
BRANCH   7  12
ATOM     12  C   UNL     1      -7.404 -12.824  18.534  0.00  0.00    +0.064 C 
BRANCH  12  14
ATOM      2  O   UNL     1      -9.584 -10.629  20.375  0.00  0.00    -0.354 OA
ATOM      5  N   UNL     1      -8.330 -11.021  19.923  0.00  0.00    -0.083 NA
ATOM     14  C   UNL     1      -8.553 -12.116  19.192  0.00  0.00    +0.085 A 
ATOM     19  C   UNL     1      -9.914 -12.460  19.149  0.00  0.00    +0.076 A 
ATOM     21  C   UNL     1     -10.519 -11.494  19.908  0.00  0.00    +0.167 A 
BRANCH  21  24
ATOM     24  C   UNL     1     -11.872 -11.217  20.297  0.00  0.00    +0.020 A 
ATOM     28  C   UNL     1     -14.502 -10.677  21.052  0.00  0.00    -0.042 A 
ATOM     29  C   UNL     1     -12.684 -12.245  20.775  0.00  0.00    +0.012 A 
ATOM     30  C   UNL     1     -12.374  -9.920  20.195  0.00  0.00    +0.012 A 
ATOM     31  C   UNL     1     -14.000 -11.975  21.153  0.00  0.00    +0.005 A 
ATOM     32  C   UNL     1     -13.689  -9.651  20.573  0.00  0.00    +0.005 A 
BRANCH  28  25
ATOM     25  C   UNL     1     -15.909 -10.390  21.456  0.00  0.00    -0.013 C 
ATOM     33  C   UNL     1     -16.216 -10.954  22.877  0.00  0.00    +0.015 C 
ATOM     34  C   UNL     1     -16.926 -11.035  20.463  0.00  0.00    +0.015 C 
ATOM     35  C   UNL     1     -16.292  -8.874  21.518  0.00  0.00    +0.015 C 
ENDBRANCH  28  25
ENDBRANCH  21  24
ENDBRANCH  12  14
ENDBRANCH   7  12
TORSDOF 6
ENDMDL
MODEL 3
REMARK VINA RESULT:      -7.7     17.109     20.112
REMARK  Name = 26743320
REMARK  9 active torsions:
REMARK  status: ('A' for Active; 'I' for Inactive)
REMARK    1  A    between atoms: C_6  and  C_10
REMARK    2  A    between atoms: C_7  and  C_12
REMARK    3  A    between atoms: C_10  and  C_13
REMARK    4  A    between atoms: C_12  and  C_14
REMARK    5  A    between atoms: C_21  and  C_24
REMARK    6  A    between atoms: C_25  and  C_28
REMARK    7  A    between atoms: C_25  and  C_33
REMARK    8  A    between atoms: C_25  and  C_34
REMARK    9  A    between atoms: C_25  and  C_35
REMARK                            x       y       z     vdW  Elec       q    Type
REMARK                         _______ _______ _______ _____ _____    ______ ____
ROOT
ATOM      3  N   UNL     1      -8.910 -11.887  19.459  0.00  0.00    -0.316 NA
ATOM      6  C   UNL     1      -6.310 -10.825  18.553  0.00  0.00    +0.004 C 
ATOM      7  C   UNL     1      -7.662 -10.255  18.064  0.00  0.00    +0.012 C 
ATOM      8  C   UNL     1      -6.515 -11.498  19.921  0.00  0.00    +0.019 C 
ATOM      9  C   UNL     1      -8.779 -11.311  18.120  0.00  0.00    +0.085 C 
ATOM     11  C   UNL     1      -7.664 -12.505  19.910  0.00  0.00    +0.081 C 
ATOM     36  H   UNL     1      -9.651 -12.586  19.455  0.00  0.00    +0.122 HD
ENDROOT
BRANCH   6  10
ATOM     10  C   UNL     1      -5.645 -11.790  17.564  0.00  0.00    +0.100 C 
BRANCH  10  13
ATOM      1  O   UNL     1      -3.445 -11.767  18.449  0.00  0.00    -0.276 OA
ATOM      4  N   UNL     1      -3.705 -10.957  16.283  0.00  0.00    -0.297 N 
ATOM     13  C   UNL     1      -4.166 -11.505  17.483  0.00  0.00    +0.216 C 
ATOM     15  C   UNL     1      -2.319 -10.503  16.183  0.00  0.00    +0.113 C 
ATOM     16  C   UNL     1      -4.570 -10.649  15.135  0.00  0.00    +0.143 C 
ATOM     17  C   UNL     1      -1.653 -11.082  14.942  0.00  0.00    +0.054 C 
ATOM     18  C   UNL     1      -3.858 -10.615  13.804  0.00  0.00    -0.027 A 
ATOM     20  C   UNL     1      -2.469 -10.805  13.707  0.00  0.00    -0.041 A 
ATOM     22  C   UNL     1      -4.601 -10.379  12.639  0.00  0.00    +0.005 A 
ATOM     23  C   UNL     1      -1.851 -10.787  12.449  0.00  0.00    +0.004 A 
ATOM     26  C   UNL     1      -3.976 -10.348  11.392  0.00  0.00    +0.000 A 
ATOM     27  C   UNL     1      -2.602 -10.555  11.298  0.00  0.00    +0.000 A 
ENDBRANCH  10  13
ENDBRANCH   6  10
BRANCH   7  12
ATOM     12  C   UNL     1      -7.582  -9.632  16.669  0.00  0.00    +0.064 C 
BRANCH  12  14
ATOM      2  O   UNL     1     -10.407  -7.401  16.740  0.00  0.00    -0.354 OA
ATOM      5  N   UNL     1      -9.329  -8.041  17.342  0.00  0.00    -0.083 NA
ATOM     14  C   UNL     1      -8.788  -8.789  16.375  0.00  0.00    +0.085 A 
ATOM     19  C   UNL     1      -9.476  -8.664  15.157  0.00  0.00    +0.076 A 
ATOM     21  C   UNL     1     -10.484  -7.781  15.440  0.00  0.00    +0.167 A 
BRANCH  21  24
ATOM     24  C   UNL     1     -11.556  -7.200  14.685  0.00  0.00    +0.020 A 
ATOM     28  C   UNL     1     -13.642  -6.070  13.217  0.00  0.00    -0.042 A 
ATOM     29  C   UNL     1     -11.953  -5.886  14.935  0.00  0.00    +0.012 A 
ATOM     30  C   UNL     1     -12.203  -7.949  13.702  0.00  0.00    +0.012 A 
ATOM     31  C   UNL     1     -12.996  -5.320  14.201  0.00  0.00    +0.005 A 
ATOM     32  C   UNL     1     -13.245  -7.383  12.968  0.00  0.00    +0.005 A 
BRANCH  28  25
ATOM     25  C   UNL     1     -14.757  -5.465  12.433  0.00  0.00    -0.013 C 
ATOM     33  C   UNL     1     -14.501  -5.585  10.899  0.00  0.00    +0.015 C 
ATOM     34  C   UNL     1     -14.925  -3.950  12.765  0.00  0.00    +0.015 C 
ATOM     35  C   UNL     1     -16.167  -6.102  12.671  0.00  0.00    +0.015 C 
ENDBRANCH  28  25
ENDBRANCH  21  24
ENDBRANCH  12  14
ENDBRANCH   7  12
TORSDOF 6
ENDMDL
MODEL 4
REMARK VINA RESULT:      -7.6     17.959     21.338
REMARK  Name = 26743320
REMARK  9 active torsions:
REMARK  status: ('A' for Active; 'I' for Inactive)
REMARK    1  A    between atoms: C_6  and  C_10
REMARK    2  A    between atoms: C_7  and  C_12
REMARK    3  A    between atoms: C_10  and  C_13
REMARK    4  A    between atoms: C_12  and  C_14
REMARK    5  A    between atoms: C_21  and  C_24
REMARK    6  A    between atoms: C_25  and  C_28
REMARK    7  A    between atoms: C_25  and  C_33
REMARK    8  A    between atoms: C_25  and  C_34
REMARK    9  A    between atoms: C_25  and  C_35
REMARK                            x       y       z     vdW  Elec       q    Type
REMARK                         _______ _______ _______ _____ _____    ______ ____
ROOT
ATOM      3  N   UNL     1      -5.507 -13.682  35.502  0.00  0.00    -0.316 NA
ATOM      6  C   UNL     1      -8.023 -12.264  36.110  0.00  0.00    +0.004 C 
ATOM      7  C   UNL     1      -6.754 -12.129  36.985  0.00  0.00    +0.012 C 
ATOM      8  C   UNL     1      -7.608 -12.672  34.686  0.00  0.00    +0.019 C 
ATOM      9  C   UNL     1      -5.861 -13.377  36.889  0.00  0.00    +0.085 C 
ATOM     11  C   UNL     1      -6.691 -13.895  34.673  0.00  0.00    +0.081 C 
ATOM     36  H   UNL     1      -4.924 -14.518  35.478  0.00  0.00    +0.122 HD
ENDROOT
BRANCH   6  10
ATOM     10  C   UNL     1      -9.068 -13.234  36.674  0.00  0.00    +0.100 C 
BRANCH  10  13
ATOM      1  O   UNL     1     -10.404 -11.657  37.838  0.00  0.00    -0.276 OA
ATOM      4  N   UNL     1     -11.440 -12.831  36.117  0.00  0.00    -0.297 N 
ATOM     13  C   UNL     1     -10.360 -12.499  36.938  0.00  0.00    +0.216 C 
ATOM     15  C   UNL     1     -12.765 -12.285  36.412  0.00  0.00    +0.113 C 
ATOM     16  C   UNL     1     -11.380 -13.835  35.044  0.00  0.00    +0.143 C 
ATOM     17  C   UNL     1     -13.377 -11.660  35.166  0.00  0.00    +0.054 C 
ATOM     18  C   UNL     1     -12.404 -13.649  33.952  0.00  0.00    -0.027 A 
ATOM     20  C   UNL     1     -13.366 -12.626  34.010  0.00  0.00    -0.041 A 
ATOM     22  C   UNL     1     -12.400 -14.525  32.857  0.00  0.00    +0.005 A 
ATOM     23  C   UNL     1     -14.286 -12.476  32.963  0.00  0.00    +0.004 A 
ATOM     26  C   UNL     1     -13.328 -14.377  31.826  0.00  0.00    +0.000 A 
ATOM     27  C   UNL     1     -14.268 -13.350  31.878  0.00  0.00    +0.000 A 
ENDBRANCH  10  13
ENDBRANCH   6  10
BRANCH   7  12
ATOM     12  C   UNL     1      -7.065 -11.803  38.447  0.00  0.00    +0.064 C 
BRANCH  12  14
ATOM      2  O   UNL     1      -6.304  -8.311  38.881  0.00  0.00    -0.354 OA
ATOM      5  N   UNL     1      -5.940  -9.624  38.610  0.00  0.00    -0.083 NA
ATOM     14  C   UNL     1      -7.078 -10.321  38.687  0.00  0.00    +0.085 A 
ATOM     19  C   UNL     1      -8.180  -9.508  39.000  0.00  0.00    +0.076 A 
ATOM     21  C   UNL     1      -7.640  -8.255  39.112  0.00  0.00    +0.167 A 
BRANCH  21  24
ATOM     24  C   UNL     1      -8.166  -6.953  39.409  0.00  0.00    +0.020 A 
ATOM     28  C   UNL     1      -9.187  -4.423  39.985  0.00  0.00    -0.042 A 
ATOM     29  C   UNL     1      -9.533  -6.787  39.625  0.00  0.00    +0.012 A 
ATOM     30  C   UNL     1      -7.308  -5.855  39.479  0.00  0.00    +0.012 A 
ATOM     31  C   UNL     1     -10.045  -5.521  39.915  0.00  0.00    +0.005 A 
ATOM     32  C   UNL     1      -7.820  -4.590  39.767  0.00  0.00    +0.005 A 
BRANCH  28  25
ATOM     25  C   UNL     1      -9.734  -3.070  40.294  0.00  0.00    -0.013 C 
ATOM     33  C   UNL     1      -9.238  -2.010  39.263  0.00  0.00    +0.015 C 
ATOM     34  C   UNL     1      -9.294  -2.591  41.712  0.00  0.00    +0.015 C 
ATOM     35  C   UNL     1     -11.296  -2.961  40.284  0.00  0.00    +0.015 C 
ENDBRANCH  28  25
ENDBRANCH  21  24
ENDBRANCH  12  14
ENDBRANCH   7  12
TORSDOF 6
ENDMDL
MODEL 5
REMARK VINA RESULT:      -7.5     15.617     17.725
REMARK  Name = 26743320
REMARK  9 active torsions:
REMARK  status: ('A' for Active; 'I' for Inactive)
REMARK    1  A    between atoms: C_6  and  C_10
REMARK    2  A    between atoms: C_7  and  C_12
REMARK    3  A    between atoms: C_10  and  C_13
REMARK    4  A    between atoms: C_12  and  C_14
REMARK    5  A    between atoms: C_21  and  C_24
REMARK    6  A    between atoms: C_25  and  C_28
REMARK    7  A    between atoms: C_25  and  C_33
REMARK    8  A    between atoms: C_25  and  C_34
REMARK    9  A    between atoms: C_25  and  C_35
REMARK                            x       y       z     vdW  Elec       q    Type
REMARK                         _______ _______ _______ _____ _____    ______ ____
ROOT
ATOM      3  N   UNL     1     -13.785 -10.030  18.181  0.00  0.00    -0.316 NA
ATOM      6  C   UNL     1     -10.927  -9.528  18.715  0.00  0.00    +0.004 C 
ATOM      7  C   UNL     1     -11.681  -8.884  17.527  0.00  0.00    +0.012 C 
ATOM      8  C   UNL     1     -11.939  -9.889  19.816  0.00  0.00    +0.019 C 
ATOM      9  C   UNL     1     -12.870  -9.748  17.074  0.00  0.00    +0.085 C 
ATOM     11  C   UNL     1     -13.111 -10.712  19.284  0.00  0.00    +0.081 C 
ATOM     36  H   UNL     1     -14.554 -10.609  17.845  0.00  0.00    +0.122 HD
ENDROOT
BRANCH   6  10
ATOM     10  C   UNL     1     -10.081 -10.748  18.330  0.00  0.00    +0.100 C 
BRANCH  10  13
ATOM      1  O   UNL     1      -9.047 -11.200  20.416  0.00  0.00    -0.276 OA
ATOM      4  N   UNL     1      -7.645 -10.548  18.678  0.00  0.00    -0.297 N 
ATOM     13  C   UNL     1      -8.885 -10.853  19.244  0.00  0.00    +0.216 C 
ATOM     15  C   UNL     1      -6.461 -10.468  19.534  0.00  0.00    +0.113 C 
ATOM     16  C   UNL     1      -7.459 -10.136  17.279  0.00  0.00    +0.143 C 
ATOM     17  C   UNL     1      -5.326 -11.305  18.958  0.00  0.00    +0.054 C 
ATOM     18  C   UNL     1      -6.080 -10.401  16.724  0.00  0.00    -0.027 A 
ATOM     20  C   UNL     1      -5.057 -10.943  17.522  0.00  0.00    -0.041 A 
ATOM     22  C   UNL     1      -5.813 -10.090  15.384  0.00  0.00    +0.005 A 
ATOM     23  C   UNL     1      -3.797 -11.193  16.961  0.00  0.00    +0.004 A 
ATOM     26  C   UNL     1      -4.552 -10.329  14.837  0.00  0.00    +0.000 A 
ATOM     27  C   UNL     1      -3.546 -10.883  15.625  0.00  0.00    +0.000 A 
ENDBRANCH  10  13
ENDBRANCH   6  10
BRANCH   7  12
ATOM     12  C   UNL     1     -10.770  -8.561  16.343  0.00  0.00    +0.064 C 
BRANCH  12  14
ATOM      2  O   UNL     1     -11.749  -5.344  15.057  0.00  0.00    -0.354 OA
ATOM      5  N   UNL     1     -11.168  -6.158  16.023  0.00  0.00    -0.083 NA
ATOM     14  C   UNL     1     -11.295  -7.400  15.548  0.00  0.00    +0.085 A 
ATOM     19  C   UNL     1     -11.941  -7.432  14.301  0.00  0.00    +0.076 A 
ATOM     21  C   UNL     1     -12.205  -6.114  14.037  0.00  0.00    +0.167 A 
BRANCH  21  24
ATOM     24  C   UNL     1     -12.835  -5.409  12.959  0.00  0.00    +0.020 A 
ATOM     28  C   UNL     1     -14.060  -4.037  10.862  0.00  0.00    -0.042 A 
ATOM     29  C   UNL     1     -13.884  -6.002  12.257  0.00  0.00    +0.012 A 
ATOM     30  C   UNL     1     -12.397  -4.131  12.612  0.00  0.00    +0.012 A 
ATOM     31  C   UNL     1     -14.498  -5.316  11.208  0.00  0.00    +0.005 A 
ATOM     32  C   UNL     1     -13.010  -3.446  11.563  0.00  0.00    +0.005 A 
BRANCH  28  25
ATOM     25  C   UNL     1     -14.715  -3.305   9.740  0.00  0.00    -0.013 C 
ATOM     33  C   UNL     1     -15.800  -4.185   9.046  0.00  0.00    +0.015 C 
ATOM     34  C   UNL     1     -13.678  -2.891   8.651  0.00  0.00    +0.015 C 
ATOM     35  C   UNL     1     -15.448  -1.981  10.141  0.00  0.00    +0.015 C 
ENDBRANCH  28  25
ENDBRANCH  21  24
ENDBRANCH  12  14
ENDBRANCH   7  12
TORSDOF 6
ENDMDL
MODEL 6
REMARK VINA RESULT:      -7.3     18.235     21.737
REMARK  Name = 26743320
REMARK  9 active torsions:
REMARK  status: ('A' for Active; 'I' for Inactive)
REMARK    1  A    between atoms: C_6  and  C_10
REMARK    2  A    between atoms: C_7  and  C_12
REMARK    3  A    between atoms: C_10  and  C_13
REMARK    4  A    between atoms: C_12  and  C_14
REMARK    5  A    between atoms: C_21  and  C_24
REMARK    6  A    between atoms: C_25  and  C_28
REMARK    7  A    between atoms: C_25  and  C_33
REMARK    8  A    between atoms: C_25  and  C_34
REMARK    9  A    between atoms: C_25  and  C_35
REMARK                            x       y       z     vdW  Elec       q    Type
REMARK                         _______ _______ _______ _____ _____    ______ ____
ROOT
ATOM      3  N   UNL     1      -6.707 -14.782  17.179  0.00  0.00    -0.316 NA
ATOM      6  C   UNL     1      -4.279 -13.399  16.229  0.00  0.00    +0.004 C 
ATOM      7  C   UNL     1      -5.026 -12.986  17.519  0.00  0.00    +0.012 C 
ATOM      8  C   UNL     1      -4.580 -14.877  15.927  0.00  0.00    +0.019 C 
ATOM      9  C   UNL     1      -6.517 -13.357  17.457  0.00  0.00    +0.085 C 
ATOM     11  C   UNL     1      -6.078 -15.179  15.920  0.00  0.00    +0.081 C 
ATOM     36  H   UNL     1      -7.705 -14.988  17.137  0.00  0.00    +0.122 HD
ENDROOT
BRANCH   6  10
ATOM     10  C   UNL     1      -4.598 -12.518  15.014  0.00  0.00    +0.100 C 
BRANCH  10  13
ATOM      1  O   UNL     1      -2.248 -12.569  14.694  0.00  0.00    -0.276 OA
ATOM      4  N   UNL     1      -3.438 -11.014  13.437  0.00  0.00    -0.297 N 
ATOM     13  C   UNL     1      -3.317 -12.042  14.375  0.00  0.00    +0.216 C 
ATOM     15  C   UNL     1      -2.233 -10.387  12.894  0.00  0.00    +0.113 C 
ATOM     16  C   UNL     1      -4.715 -10.391  13.060  0.00  0.00    +0.143 C 
ATOM     17  C   UNL     1      -2.289 -10.344  11.373  0.00  0.00    +0.054 C 
ATOM     18  C   UNL     1      -4.722  -9.749  11.694  0.00  0.00    -0.027 A 
ATOM     20  C   UNL     1      -3.568  -9.710  10.893  0.00  0.00    -0.041 A 
ATOM     22  C   UNL     1      -5.907  -9.170  11.219  0.00  0.00    +0.005 A 
ATOM     23  C   UNL     1      -3.624  -9.122   9.621  0.00  0.00    +0.004 A 
ATOM     26  C   UNL     1      -5.950  -8.575   9.958  0.00  0.00    +0.000 A 
ATOM     27  C   UNL     1      -4.809  -8.554   9.159  0.00  0.00    +0.000 A 
ENDBRANCH  10  13
ENDBRANCH   6  10
BRANCH   7  12
ATOM     12  C   UNL     1      -4.856 -11.505  17.862  0.00  0.00    +0.064 C 
BRANCH  12  14
ATOM      2  O   UNL     1      -8.004  -9.874  18.487  0.00  0.00    -0.354 OA
ATOM      5  N   UNL     1      -6.874 -10.568  18.904  0.00  0.00    -0.083 NA
ATOM     14  C   UNL     1      -6.164 -10.772  17.791  0.00  0.00    +0.085 A 
ATOM     19  C   UNL     1      -6.790 -10.237  16.653  0.00  0.00    +0.076 A 
ATOM     21  C   UNL     1      -7.943  -9.684  17.145  0.00  0.00    +0.167 A 
BRANCH  21  24
ATOM     24  C   UNL     1      -9.049  -8.978  16.566  0.00  0.00    +0.020 A 
ATOM     28  C   UNL     1     -11.201  -7.607  15.440  0.00  0.00    -0.042 A 
ATOM     29  C   UNL     1      -9.745  -8.034  17.320  0.00  0.00    +0.012 A 
ATOM     30  C   UNL     1      -9.429  -9.239  15.249  0.00  0.00    +0.012 A 
ATOM     31  C   UNL     1     -10.821  -7.347  16.757  0.00  0.00    +0.005 A 
ATOM     32  C   UNL     1     -10.505  -8.552  14.687  0.00  0.00    +0.005 A 
BRANCH  28  25
ATOM     25  C   UNL     1     -12.352  -6.873  14.839  0.00  0.00    -0.013 C 
ATOM     33  C   UNL     1     -12.998  -7.687  13.677  0.00  0.00    +0.015 C 
ATOM     34  C   UNL     1     -11.904  -5.496  14.257  0.00  0.00    +0.015 C 
ATOM     35  C   UNL     1     -13.526  -6.547  15.822  0.00  0.00    +0.015 C 
ENDBRANCH  28  25
ENDBRANCH  21  24
ENDBRANCH  12  14
ENDBRANCH   7  12
TORSDOF 6
ENDMDL
MODEL 7
REMARK VINA RESULT:      -7.2     37.151     39.925
REMARK  Name = 26743320
REMARK  9 active torsions:
REMARK  status: ('A' for Active; 'I' for Inactive)
REMARK    1  A    between atoms: C_6  and  C_10
REMARK    2  A    between atoms: C_7  and  C_12
REMARK    3  A    between atoms: C_10  and  C_13
REMARK    4  A    between atoms: C_12  and  C_14
REMARK    5  A    between atoms: C_21  and  C_24
REMARK    6  A    between atoms: C_25  and  C_28
REMARK    7  A    between atoms: C_25  and  C_33
REMARK    8  A    between atoms: C_25  and  C_34
REMARK    9  A    between atoms: C_25  and  C_35
REMARK                            x       y       z     vdW  Elec       q    Type
REMARK                         _______ _______ _______ _____ _____    ______ ____
ROOT
ATOM      3  N   UNL     1      26.991  -9.968  23.172  0.00  0.00    -0.316 NA
ATOM      6  C   UNL     1      24.841  -9.420  21.227  0.00  0.00    +0.004 C 
ATOM      7  C   UNL     1      24.672  -9.190  22.747  0.00  0.00    +0.012 C 
ATOM      8  C   UNL     1      26.336  -9.349  20.873  0.00  0.00    +0.019 C 
ATOM      9  C   UNL     1      25.590 -10.112  23.568  0.00  0.00    +0.085 C 
ATOM     11  C   UNL     1      27.189 -10.260  21.754  0.00  0.00    +0.081 C 
ATOM     36  H   UNL     1      27.566 -10.598  23.730  0.00  0.00    +0.122 HD
ENDROOT
BRANCH   6  10
ATOM     10  C   UNL     1      24.222 -10.729  20.721  0.00  0.00    +0.100 C 
BRANCH  10  13
ATOM      1  O   UNL     1      23.678  -9.663  18.672  0.00  0.00    -0.276 OA
ATOM      4  N   UNL     1      22.087 -11.120  19.545  0.00  0.00    -0.297 N 
ATOM     13  C   UNL     1      23.311 -10.448  19.552  0.00  0.00    +0.216 C 
ATOM     15  C   UNL     1      21.083 -10.782  18.536  0.00  0.00    +0.113 C 
ATOM     16  C   UNL     1      21.657 -12.055  20.595  0.00  0.00    +0.143 C 
ATOM     17  C   UNL     1      20.571 -12.039  17.846  0.00  0.00    +0.054 C 
ATOM     18  C   UNL     1      20.628 -13.068  20.152  0.00  0.00    -0.027 A 
ATOM     20  C   UNL     1      20.097 -13.056  18.851  0.00  0.00    -0.041 A 
ATOM     22  C   UNL     1      20.188 -14.036  21.065  0.00  0.00    +0.005 A 
ATOM     23  C   UNL     1      19.160 -14.028  18.474  0.00  0.00    +0.004 A 
ATOM     26  C   UNL     1      19.244 -14.991  20.686  0.00  0.00    +0.000 A 
ATOM     27  C   UNL     1      18.733 -14.989  19.390  0.00  0.00    +0.000 A 
ENDBRANCH  10  13
ENDBRANCH   6  10
BRANCH   7  12
ATOM     12  C   UNL     1      23.222  -9.322  23.216  0.00  0.00    +0.064 C 
BRANCH  12  14
ATOM      2  O   UNL     1      22.445  -5.884  23.948  0.00  0.00    -0.354 OA
ATOM      5  N   UNL     1      23.325  -6.957  23.874  0.00  0.00    -0.083 NA
ATOM     14  C   UNL     1      22.588  -7.976  23.423  0.00  0.00    +0.085 A 
ATOM     19  C   UNL     1      21.251  -7.611  23.198  0.00  0.00    +0.076 A 
ATOM     21  C   UNL     1      21.213  -6.286  23.543  0.00  0.00    +0.167 A 
BRANCH  21  24
ATOM     24  C   UNL     1      20.192  -5.279  23.567  0.00  0.00    +0.020 A 
ATOM     28  C   UNL     1      18.205  -3.322  23.613  0.00  0.00    -0.042 A 
ATOM     29  C   UNL     1      20.316  -4.180  24.416  0.00  0.00    +0.012 A 
ATOM     30  C   UNL     1      19.074  -5.401  22.741  0.00  0.00    +0.012 A 
ATOM     31  C   UNL     1      19.322  -3.200  24.439  0.00  0.00    +0.005 A 
ATOM     32  C   UNL     1      18.081  -4.421  22.765  0.00  0.00    +0.005 A 
BRANCH  28  25
ATOM     25  C   UNL     1      17.143  -2.274  23.638  0.00  0.00    -0.013 C 
ATOM     33  C   UNL     1      17.339  -1.241  22.487  0.00  0.00    +0.015 C 
ATOM     34  C   UNL     1      17.157  -1.487  24.985  0.00  0.00    +0.015 C 
ATOM     35  C   UNL     1      15.678  -2.801  23.479  0.00  0.00    +0.015 C 
ENDBRANCH  28  25
ENDBRANCH  21  24
ENDBRANCH  12  14
ENDBRANCH   7  12
TORSDOF 6
ENDMDL
MODEL 8
REMARK VINA RESULT:      -7.2      6.003     11.390
REMARK  Name = 26743320
REMARK  9 active torsions:
REMARK  status: ('A' for Active; 'I' for Inactive)
REMARK    1  A    between atoms: C_6  and  C_10
REMARK    2  A    between atoms: C_7  and  C_12
REMARK    3  A    between atoms: C_10  and  C_13
REMARK    4  A    between atoms: C_12  and  C_14
REMARK    5  A    between atoms: C_21  and  C_24
REMARK    6  A    between atoms: C_25  and  C_28
REMARK    7  A    between atoms: C_25  and  C_33
REMARK    8  A    between atoms: C_25  and  C_34
REMARK    9  A    between atoms: C_25  and  C_35
REMARK                            x       y       z     vdW  Elec       q    Type
REMARK                         _______ _______ _______ _____ _____    ______ ____
ROOT
ATOM      3  N   UNL     1     -16.319  11.834  32.655  0.00  0.00    -0.316 NA
ATOM      6  C   UNL     1     -14.253  10.155  31.381  0.00  0.00    +0.004 C 
ATOM      7  C   UNL     1     -14.785   9.887  32.809  0.00  0.00    +0.012 C 
ATOM      8  C   UNL     1     -15.319  10.929  30.586  0.00  0.00    +0.019 C 
ATOM      9  C   UNL     1     -15.302  11.173  33.474  0.00  0.00    +0.085 C 
ATOM     11  C   UNL     1     -15.812  12.172  31.326  0.00  0.00    +0.081 C 
ATOM     36  H   UNL     1     -16.630  12.684  33.123  0.00  0.00    +0.122 HD
ENDROOT
BRANCH   6  10
ATOM     10  C   UNL     1     -12.906  10.888  31.345  0.00  0.00    +0.100 C 
BRANCH  10  13
ATOM      1  O   UNL     1     -11.436   9.066  30.961  0.00  0.00    -0.276 OA
ATOM      4  N   UNL     1     -11.622  10.634  29.251  0.00  0.00    -0.297 N 
ATOM     13  C   UNL     1     -11.920  10.109  30.511  0.00  0.00    +0.216 C 
ATOM     15  C   UNL     1     -10.558  10.029  28.450  0.00  0.00    +0.113 C 
ATOM     16  C   UNL     1     -12.204  11.876  28.720  0.00  0.00    +0.143 C 
ATOM     17  C   UNL     1     -11.050   9.737  27.039  0.00  0.00    +0.054 C 
ATOM     18  C   UNL     1     -12.217  11.969  27.214  0.00  0.00    -0.027 A 
ATOM     20  C   UNL     1     -11.657  10.962  26.409  0.00  0.00    -0.041 A 
ATOM     22  C   UNL     1     -12.796  13.092  26.606  0.00  0.00    +0.005 A 
ATOM     23  C   UNL     1     -11.710  11.079  25.013  0.00  0.00    +0.004 A 
ATOM     26  C   UNL     1     -12.832  13.206  25.216  0.00  0.00    +0.000 A 
ATOM     27  C   UNL     1     -12.292  12.198  24.420  0.00  0.00    +0.000 A 
ENDBRANCH  10  13
ENDBRANCH   6  10
BRANCH   7  12
ATOM     12  C   UNL     1     -13.764   9.190  33.708  0.00  0.00    +0.064 C 
BRANCH  12  14
ATOM      2  O   UNL     1     -13.833   5.625  34.211  0.00  0.00    -0.354 OA
ATOM      5  N   UNL     1     -13.683   6.929  34.668  0.00  0.00    -0.083 NA
ATOM     14  C   UNL     1     -13.857   7.696  33.588  0.00  0.00    +0.085 A 
ATOM     19  C   UNL     1     -14.116   6.940  32.433  0.00  0.00    +0.076 A 
ATOM     21  C   UNL     1     -14.090   5.645  32.878  0.00  0.00    +0.167 A 
BRANCH  21  24
ATOM     24  C   UNL     1     -14.269   4.363  32.261  0.00  0.00    +0.020 A 
ATOM     28  C   UNL     1     -14.616   1.870  31.060  0.00  0.00    -0.042 A 
ATOM     29  C   UNL     1     -13.163   3.550  32.011  0.00  0.00    +0.012 A 
ATOM     30  C   UNL     1     -15.547   3.930  31.910  0.00  0.00    +0.012 A 
ATOM     31  C   UNL     1     -13.337   2.302  31.410  0.00  0.00    +0.005 A 
ATOM     32  C   UNL     1     -15.720   2.683  31.310  0.00  0.00    +0.005 A 
BRANCH  28  25
ATOM     25  C   UNL     1     -14.801   0.536  30.417  0.00  0.00    -0.013 C 
ATOM     33  C   UNL     1     -13.457  -0.005  29.839  0.00  0.00    +0.015 C 
ATOM     34  C   UNL     1     -15.824   0.611  29.241  0.00  0.00    +0.015 C 
ATOM     35  C   UNL     1     -15.332  -0.594  31.360  0.00  0.00    +0.015 C 
ENDBRANCH  28  25
ENDBRANCH  21  24
ENDBRANCH  12  14
ENDBRANCH   7  12
TORSDOF 6
ENDMDL
MODEL 9
REMARK VINA RESULT:      -7.2     27.505     31.845
REMARK  Name = 26743320
REMARK  9 active torsions:
REMARK  status: ('A' for Active; 'I' for Inactive)
REMARK    1  A    between atoms: C_6  and  C_10
REMARK    2  A    between atoms: C_7  and  C_12
REMARK    3  A    between atoms: C_10  and  C_13
REMARK    4  A    between atoms: C_12  and  C_14
REMARK    5  A    between atoms: C_21  and  C_24
REMARK    6  A    between atoms: C_25  and  C_28
REMARK    7  A    between atoms: C_25  and  C_33
REMARK    8  A    between atoms: C_25  and  C_34
REMARK    9  A    between atoms: C_25  and  C_35
REMARK                            x       y       z     vdW  Elec       q    Type
REMARK                         _______ _______ _______ _____ _____    ______ ____
ROOT
ATOM      3  N   UNL     1      11.538  13.884  25.173  0.00  0.00    -0.316 NA
ATOM      6  C   UNL     1      12.189  11.564  23.469  0.00  0.00    +0.004 C 
ATOM      7  C   UNL     1      13.105  12.806  23.577  0.00  0.00    +0.012 C 
ATOM      8  C   UNL     1      11.334  11.460  24.744  0.00  0.00    +0.019 C 
ATOM      9  C   UNL     1      12.309  14.070  23.943  0.00  0.00    +0.085 C 
ATOM     11  C   UNL     1      10.605  12.764  25.066  0.00  0.00    +0.081 C 
ATOM     36  H   UNL     1      11.019  14.737  25.379  0.00  0.00    +0.122 HD
ENDROOT
BRANCH   6  10
ATOM     10  C   UNL     1      11.305  11.548  22.216  0.00  0.00    +0.100 C 
BRANCH  10  13
ATOM      1  O   UNL     1      10.422   9.346  22.267  0.00  0.00    -0.276 OA
ATOM      4  N   UNL     1      11.941   9.822  20.569  0.00  0.00    -0.297 N 
ATOM     13  C   UNL     1      11.178  10.137  21.696  0.00  0.00    +0.216 C 
ATOM     15  C   UNL     1      11.999   8.437  20.101  0.00  0.00    +0.113 C 
ATOM     16  C   UNL     1      12.838  10.769  19.892  0.00  0.00    +0.143 C 
ATOM     17  C   UNL     1      11.702   8.361  18.610  0.00  0.00    +0.054 C 
ATOM     18  C   UNL     1      13.111  10.450  18.442  0.00  0.00    -0.027 A 
ATOM     20  C   UNL     1      12.586   9.299  17.830  0.00  0.00    -0.041 A 
ATOM     22  C   UNL     1      13.915  11.319  17.692  0.00  0.00    +0.005 A 
ATOM     23  C   UNL     1      12.847   9.051  16.475  0.00  0.00    +0.004 A 
ATOM     26  C   UNL     1      14.181  11.058  16.348  0.00  0.00    +0.000 A 
ATOM     27  C   UNL     1      13.644   9.926  15.740  0.00  0.00    +0.000 A 
ENDBRANCH  10  13
ENDBRANCH   6  10
BRANCH   7  12
ATOM     12  C   UNL     1      13.942  13.045  22.319  0.00  0.00    +0.064 C 
BRANCH  12  14
ATOM      2  O   UNL     1      17.288  11.830  22.853  0.00  0.00    -0.354 OA
ATOM      5  N   UNL     1      16.287  12.781  23.004  0.00  0.00    -0.083 NA
ATOM     14  C   UNL     1      15.229  12.274  22.363  0.00  0.00    +0.085 A 
ATOM     19  C   UNL     1      15.502  11.020  21.793  0.00  0.00    +0.076 A 
ATOM     21  C   UNL     1      16.809  10.786  22.129  0.00  0.00    +0.167 A 
BRANCH  21  24
ATOM     24  C   UNL     1      17.737   9.719  21.888  0.00  0.00    +0.020 A 
ATOM     28  C   UNL     1      19.541   7.644  21.421  0.00  0.00    -0.042 A 
ATOM     29  C   UNL     1      17.278   8.489  21.417  0.00  0.00    +0.012 A 
ATOM     30  C   UNL     1      19.098   9.911  22.127  0.00  0.00    +0.012 A 
ATOM     31  C   UNL     1      18.180   7.451  21.182  0.00  0.00    +0.005 A 
ATOM     32  C   UNL     1      19.999   8.873  21.893  0.00  0.00    +0.005 A 
BRANCH  28  25
ATOM     25  C   UNL     1      20.505   6.533  21.170  0.00  0.00    -0.013 C 
ATOM     33  C   UNL     1      21.756   7.035  20.387  0.00  0.00    +0.015 C 
ATOM     34  C   UNL     1      19.849   5.394  20.330  0.00  0.00    +0.015 C 
ATOM     35  C   UNL     1      21.070   5.834  22.451  0.00  0.00    +0.015 C 
ENDBRANCH  28  25
ENDBRANCH  21  24
ENDBRANCH  12  14
ENDBRANCH   7  12
TORSDOF 6
ENDMDL
MODEL 10
REMARK VINA RESULT:      -7.1     31.698     37.826
REMARK  Name = 26743320
REMARK  9 active torsions:
REMARK  status: ('A' for Active; 'I' for Inactive)
REMARK    1  A    between atoms: C_6  and  C_10
REMARK    2  A    between atoms: C_7  and  C_12
REMARK    3  A    between atoms: C_10  and  C_13
REMARK    4  A    between atoms: C_12  and  C_14
REMARK    5  A    between atoms: C_21  and  C_24
REMARK    6  A    between atoms: C_25  and  C_28
REMARK    7  A    between atoms: C_25  and  C_33
REMARK    8  A    between atoms: C_25  and  C_34
REMARK    9  A    between atoms: C_25  and  C_35
REMARK                            x       y       z     vdW  Elec       q    Type
REMARK                         _______ _______ _______ _____ _____    ______ ____
ROOT
ATOM      3  N   UNL     1       9.049   7.244   6.414  0.00  0.00    -0.316 NA
ATOM      6  C   UNL     1      11.229   6.133   4.765  0.00  0.00    +0.004 C 
ATOM      7  C   UNL     1      11.309   7.529   5.425  0.00  0.00    +0.012 C 
ATOM      8  C   UNL     1      10.243   5.259   5.558  0.00  0.00    +0.019 C 
ATOM      9  C   UNL     1       9.913   8.137   5.641  0.00  0.00    +0.085 C 
ATOM     11  C   UNL     1       8.893   5.943   5.766  0.00  0.00    +0.081 C 
ATOM     36  H   UNL     1       8.133   7.676   6.529  0.00  0.00    +0.122 HD
ENDROOT
BRANCH   6  10
ATOM     10  C   UNL     1      10.855   6.166   3.278  0.00  0.00    +0.100 C 
BRANCH  10  13
ATOM      1  O   UNL     1      10.409   3.958   2.533  0.00  0.00    -0.276 OA
ATOM      4  N   UNL     1      12.551   4.779   2.140  0.00  0.00    -0.297 N 
ATOM     13  C   UNL     1      11.243   4.865   2.621  0.00  0.00    +0.216 C 
ATOM     15  C   UNL     1      13.053   3.500   1.638  0.00  0.00    +0.113 C 
ATOM     16  C   UNL     1      13.539   5.863   2.246  0.00  0.00    +0.143 C 
ATOM     17  C   UNL     1      13.690   3.675   0.266  0.00  0.00    +0.054 C 
ATOM     18  C   UNL     1      14.641   5.812   1.217  0.00  0.00    -0.027 A 
ATOM     20  C   UNL     1      14.727   4.767   0.282  0.00  0.00    -0.041 A 
ATOM     22  C   UNL     1      15.607   6.829   1.201  0.00  0.00    +0.005 A 
ATOM     23  C   UNL     1      15.756   4.769  -0.671  0.00  0.00    +0.004 A 
ATOM     26  C   UNL     1      16.635   6.816   0.258  0.00  0.00    +0.000 A 
ATOM     27  C   UNL     1      16.707   5.788  -0.679  0.00  0.00    +0.000 A 
ENDBRANCH  10  13
ENDBRANCH   6  10
BRANCH   7  12
ATOM     12  C   UNL     1      12.207   8.503   4.662  0.00  0.00    +0.064 C 
BRANCH  12  14
ATOM      2  O   UNL     1      15.335   7.924   6.348  0.00  0.00    -0.354 OA
ATOM      5  N   UNL     1      13.946   7.941   6.305  0.00  0.00    -0.083 NA
ATOM     14  C   UNL     1      13.644   8.361   5.073  0.00  0.00    +0.085 A 
ATOM     19  C   UNL     1      14.790   8.623   4.303  0.00  0.00    +0.076 A 
ATOM     21  C   UNL     1      15.826   8.332   5.151  0.00  0.00    +0.167 A 
BRANCH  21  24
ATOM     24  C   UNL     1      17.256   8.367   5.044  0.00  0.00    +0.020 A 
ATOM     28  C   UNL     1      20.036   8.436   4.837  0.00  0.00    -0.042 A 
ATOM     29  C   UNL     1      18.029   8.712   6.152  0.00  0.00    +0.012 A 
ATOM     30  C   UNL     1      17.872   8.057   3.832  0.00  0.00    +0.012 A 
ATOM     31  C   UNL     1      19.420   8.746   6.049  0.00  0.00    +0.005 A 
ATOM     32  C   UNL     1      19.263   8.091   3.729  0.00  0.00    +0.005 A 
BRANCH  28  25
ATOM     25  C   UNL     1      21.524   8.473   4.727  0.00  0.00    -0.013 C 
ATOM     33  C   UNL     1      22.169   9.111   5.995  0.00  0.00    +0.015 C 
ATOM     34  C   UNL     1      21.979   9.312   3.494  0.00  0.00    +0.015 C 
ATOM     35  C   UNL     1      22.218   7.080   4.563  0.00  0.00    +0.015 C 
ENDBRANCH  28  25
ENDBRANCH  21  24
ENDBRANCH  12  14
ENDBRANCH   7  12
TORSDOF 6
ENDMDL
