MODEL 1
REMARK VINA RESULT:      -6.4      0.000      0.000
REMARK  Name = 45783984
REMARK  16 active torsions:
REMARK  status: ('A' for Active; 'I' for Inactive)
REMARK    1  A    between atoms: O_2  and  C_26
REMARK    2  A    between atoms: O_2  and  C_29
REMARK    3  A    between atoms: N_3  and  C_13
REMARK    4  A    between atoms: N_4  and  C_25
REMARK    5  A    between atoms: N_7  and  C_34
REMARK    6  A    between atoms: N_7  and  C_35
REMARK    7  A    between atoms: N_7  and  C_36
REMARK    8  A    between atoms: C_8  and  C_12
REMARK    9  A    between atoms: C_9  and  C_13
REMARK   10  A    between atoms: C_11  and  C_16
REMARK   11  A    between atoms: C_12  and  C_17
REMARK   12  A    between atoms: C_12  and  C_18
REMARK   13  A    between atoms: C_15  and  C_21
REMARK   14  A    between atoms: C_16  and  C_24
REMARK   15  A    between atoms: C_25  and  C_26
REMARK   16  A    between atoms: C_27  and  C_28
REMARK                            x       y       z     vdW  Elec       q    Type
REMARK                         _______ _______ _______ _____ _____    ______ ____
ROOT
ATOM      8  C   UNL     1      -3.866 -10.608  15.356  0.00  0.00    +0.000 C 
ATOM      9  C   UNL     1      -4.871 -10.911  14.221  0.00  0.00    +0.029 C 
ATOM     10  C   UNL     1      -4.331 -11.250  16.671  0.00  0.00    +0.012 C 
ATOM     11  C   UNL     1      -4.542 -12.776  16.565  0.00  0.00    +0.024 C 
ATOM     14  C   UNL     1      -5.327 -12.348  14.220  0.00  0.00    -0.023 C 
ATOM     15  C   UNL     1      -5.178 -13.199  15.250  0.00  0.00    -0.073 C 
ATOM     21  C   UNL     1      -5.592 -14.639  15.111  0.00  0.00    +0.039 C 
ENDROOT
BRANCH   8  12
ATOM     12  C   UNL     1      -2.449 -11.065  14.986  0.00  0.00    -0.013 C 
ATOM     17  C   UNL     1      -2.068 -10.550  13.601  0.00  0.00    +0.007 C 
ATOM     18  C   UNL     1      -1.446 -10.592  16.034  0.00  0.00    +0.007 C 
ENDBRANCH   8  12
BRANCH   9  13
ATOM     13  C   UNL     1      -6.096  -9.994  14.289  0.00  0.00    +0.092 C 
BRANCH  13   3
ATOM      3  N   UNL     1      -6.370  -9.400  12.983  0.00  0.00    -0.299 NA
ATOM      4  N   UNL     1      -6.758  -9.540  10.120  0.00  0.00    -0.298 NA
ATOM     19  C   UNL     1      -5.239  -9.606  12.069  0.00  0.00    +0.100 C 
ATOM     20  C   UNL     1      -7.602  -9.953  12.406  0.00  0.00    +0.100 C 
ATOM     22  C   UNL     1      -5.526  -8.987  10.696  0.00  0.00    +0.100 C 
ATOM     23  C   UNL     1      -7.889  -9.332  11.034  0.00  0.00    +0.100 C 
BRANCH   4  25
ATOM     25  C   UNL     1      -7.031  -8.947   8.813  0.00  0.00    +0.112 C 
BRANCH  25  26
ATOM     26  C   UNL     1      -8.243  -8.032   8.882  0.00  0.00    +0.174 C 
BRANCH  26   2
ATOM      2  O   UNL     1      -7.960  -6.843   8.157  0.00  0.00    -0.382 OA
ATOM     29  C   UNL     1      -8.431  -6.922   6.819  0.00  0.00    +0.194 C 
ENDBRANCH  26   2
ENDBRANCH  25  26
ENDBRANCH   4  25
ENDBRANCH  13   3
ENDBRANCH   9  13
BRANCH  11  16
ATOM     16  C   UNL     1      -5.335 -13.246  17.791  0.00  0.00    +0.105 C 
BRANCH  16  24
ATOM      1  O   UNL     1      -7.111 -11.581  17.626  0.00  0.00    -0.420 OA
ATOM      5  N   UNL     1      -6.022 -11.568  19.580  0.00  0.00    -0.112 NA
ATOM      6  N   UNL     1      -6.992 -10.583  19.624  0.00  0.00    -0.107 NA
ATOM     24  C   UNL     1      -6.128 -12.124  18.395  0.00  0.00    +0.218 A 
ATOM     27  C   UNL     1      -7.602 -10.627  18.463  0.00  0.00    +0.248 A 
BRANCH  27  28
ATOM     28  C   UNL     1      -8.687  -9.840  17.952  0.00  0.00    +0.039 A 
ATOM     30  C   UNL     1      -9.981 -10.041  18.432  0.00  0.00    +0.015 A 
ATOM     31  C   UNL     1      -8.447  -8.874  16.976  0.00  0.00    +0.015 A 
ATOM     32  C   UNL     1     -11.035  -9.276  17.935  0.00  0.00    +0.024 A 
ATOM     33  C   UNL     1      -9.502  -8.108  16.478  0.00  0.00    +0.024 A 
ATOM     34  C   UNL     1     -10.796  -8.309  16.958  0.00  0.00    +0.029 A 
BRANCH  34   7
ATOM      7  N   UNL     1     -11.863  -7.536  16.454  0.00  0.00    -0.336 N 
ATOM     35  C   UNL     1     -11.650  -6.155  16.069  0.00  0.00    +0.129 C 
ATOM     36  C   UNL     1     -13.187  -8.110  16.322  0.00  0.00    +0.129 C 
ENDBRANCH  34   7
ENDBRANCH  27  28
ENDBRANCH  16  24
ENDBRANCH  11  16
TORSDOF 10
ENDMDL
MODEL 2
REMARK VINA RESULT:      -6.2      2.619      7.351
REMARK  Name = 45783984
REMARK  16 active torsions:
REMARK  status: ('A' for Active; 'I' for Inactive)
REMARK    1  A    between atoms: O_2  and  C_26
REMARK    2  A    between atoms: O_2  and  C_29
REMARK    3  A    between atoms: N_3  and  C_13
REMARK    4  A    between atoms: N_4  and  C_25
REMARK    5  A    between atoms: N_7  and  C_34
REMARK    6  A    between atoms: N_7  and  C_35
REMARK    7  A    between atoms: N_7  and  C_36
REMARK    8  A    between atoms: C_8  and  C_12
REMARK    9  A    between atoms: C_9  and  C_13
REMARK   10  A    between atoms: C_11  and  C_16
REMARK   11  A    between atoms: C_12  and  C_17
REMARK   12  A    between atoms: C_12  and  C_18
REMARK   13  A    between atoms: C_15  and  C_21
REMARK   14  A    between atoms: C_16  and  C_24
REMARK   15  A    between atoms: C_25  and  C_26
REMARK   16  A    between atoms: C_27  and  C_28
REMARK                            x       y       z     vdW  Elec       q    Type
REMARK                         _______ _______ _______ _____ _____    ______ ____
ROOT
ATOM      8  C   UNL     1      -7.233 -11.935  16.913  0.00  0.00    +0.000 C 
ATOM      9  C   UNL     1      -7.326 -11.773  18.448  0.00  0.00    +0.029 C 
ATOM     10  C   UNL     1      -6.004 -11.193  16.368  0.00  0.00    +0.012 C 
ATOM     11  C   UNL     1      -4.678 -11.649  17.015  0.00  0.00    +0.024 C 
ATOM     14  C   UNL     1      -5.995 -11.952  19.131  0.00  0.00    -0.023 C 
ATOM     15  C   UNL     1      -4.803 -11.912  18.508  0.00  0.00    -0.073 C 
ATOM     21  C   UNL     1      -3.537 -12.189  19.273  0.00  0.00    +0.039 C 
ENDROOT
BRANCH   8  12
ATOM     12  C   UNL     1      -7.213 -13.414  16.505  0.00  0.00    -0.013 C 
ATOM     17  C   UNL     1      -8.299 -14.186  17.249  0.00  0.00    +0.007 C 
ATOM     18  C   UNL     1      -7.387 -13.553  14.996  0.00  0.00    +0.007 C 
ENDBRANCH   8  12
BRANCH   9  13
ATOM     13  C   UNL     1      -7.916 -10.416  18.839  0.00  0.00    +0.092 C 
BRANCH  13   3
ATOM      3  N   UNL     1      -8.901  -9.976  17.854  0.00  0.00    -0.299 NA
ATOM      4  N   UNL     1     -10.937  -8.170  16.876  0.00  0.00    -0.298 NA
ATOM     19  C   UNL     1     -10.249  -9.958  18.437  0.00  0.00    +0.100 C 
ATOM     20  C   UNL     1      -8.555  -8.652  17.323  0.00  0.00    +0.100 C 
ATOM     22  C   UNL     1     -11.284  -9.494  17.406  0.00  0.00    +0.100 C 
ATOM     23  C   UNL     1      -9.590  -8.190  16.291  0.00  0.00    +0.100 C 
BRANCH   4  25
ATOM     25  C   UNL     1     -11.923  -7.730  15.891  0.00  0.00    +0.112 C 
BRANCH  25  26
ATOM     26  C   UNL     1     -12.060  -6.216  15.909  0.00  0.00    +0.174 C 
BRANCH  26   2
ATOM      2  O   UNL     1     -11.601  -5.701  14.666  0.00  0.00    -0.382 OA
ATOM     29  C   UNL     1     -12.676  -5.226  13.868  0.00  0.00    +0.194 C 
ENDBRANCH  26   2
ENDBRANCH  25  26
ENDBRANCH   4  25
ENDBRANCH  13   3
ENDBRANCH   9  13
BRANCH  11  16
ATOM     16  C   UNL     1      -3.591 -10.621  16.679  0.00  0.00    +0.105 C 
BRANCH  16  24
ATOM      1  O   UNL     1      -3.825 -10.642  14.250  0.00  0.00    -0.420 OA
ATOM      5  N   UNL     1      -1.805 -11.265  14.980  0.00  0.00    -0.112 NA
ATOM      6  N   UNL     1      -1.797 -11.322  13.599  0.00  0.00    -0.107 NA
ATOM     24  C   UNL     1      -3.009 -10.863  15.316  0.00  0.00    +0.218 A 
ATOM     27  C   UNL     1      -2.996 -10.951  13.217  0.00  0.00    +0.248 A 
BRANCH  27  28
ATOM     28  C   UNL     1      -3.556 -10.821  11.902  0.00  0.00    +0.039 A 
ATOM     30  C   UNL     1      -4.554 -11.699  11.480  0.00  0.00    +0.015 A 
ATOM     31  C   UNL     1      -3.102  -9.818  11.047  0.00  0.00    +0.015 A 
ATOM     32  C   UNL     1      -5.099 -11.573  10.202  0.00  0.00    +0.024 A 
ATOM     33  C   UNL     1      -3.647  -9.691   9.769  0.00  0.00    +0.024 A 
ATOM     34  C   UNL     1      -4.645 -10.569   9.347  0.00  0.00    +0.029 A 
BRANCH  34   7
ATOM      7  N   UNL     1      -5.195 -10.442   8.054  0.00  0.00    -0.336 N 
ATOM     35  C   UNL     1      -4.709 -11.267   6.966  0.00  0.00    +0.129 C 
ATOM     36  C   UNL     1      -6.246  -9.480   7.795  0.00  0.00    +0.129 C 
ENDBRANCH  34   7
ENDBRANCH  27  28
ENDBRANCH  16  24
ENDBRANCH  11  16
TORSDOF 10
ENDMDL
MODEL 3
REMARK VINA RESULT:      -6.2      4.114      6.170
REMARK  Name = 45783984
REMARK  16 active torsions:
REMARK  status: ('A' for Active; 'I' for Inactive)
REMARK    1  A    between atoms: O_2  and  C_26
REMARK    2  A    between atoms: O_2  and  C_29
REMARK    3  A    between atoms: N_3  and  C_13
REMARK    4  A    between atoms: N_4  and  C_25
REMARK    5  A    between atoms: N_7  and  C_34
REMARK    6  A    between atoms: N_7  and  C_35
REMARK    7  A    between atoms: N_7  and  C_36
REMARK    8  A    between atoms: C_8  and  C_12
REMARK    9  A    between atoms: C_9  and  C_13
REMARK   10  A    between atoms: C_11  and  C_16
REMARK   11  A    between atoms: C_12  and  C_17
REMARK   12  A    between atoms: C_12  and  C_18
REMARK   13  A    between atoms: C_15  and  C_21
REMARK   14  A    between atoms: C_16  and  C_24
REMARK   15  A    between atoms: C_25  and  C_26
REMARK   16  A    between atoms: C_27  and  C_28
REMARK                            x       y       z     vdW  Elec       q    Type
REMARK                         _______ _______ _______ _____ _____    ______ ____
ROOT
ATOM      8  C   UNL     1      -5.435 -10.851  11.281  0.00  0.00    +0.000 C 
ATOM      9  C   UNL     1      -4.771 -10.754   9.889  0.00  0.00    +0.029 C 
ATOM     10  C   UNL     1      -4.411 -11.294  12.336  0.00  0.00    +0.012 C 
ATOM     11  C   UNL     1      -3.178 -10.369  12.418  0.00  0.00    +0.024 C 
ATOM     14  C   UNL     1      -3.423 -10.082   9.936  0.00  0.00    -0.023 C 
ATOM     15  C   UNL     1      -2.702  -9.890  11.055  0.00  0.00    -0.073 C 
ATOM     21  C   UNL     1      -1.405  -9.129  11.001  0.00  0.00    +0.039 C 
ENDROOT
BRANCH   8  12
ATOM     12  C   UNL     1      -6.101  -9.526  11.678  0.00  0.00    -0.013 C 
ATOM     17  C   UNL     1      -7.085  -9.082  10.600  0.00  0.00    +0.007 C 
ATOM     18  C   UNL     1      -6.800  -9.664  13.027  0.00  0.00    +0.007 C 
ENDBRANCH   8  12
BRANCH   9  13
ATOM     13  C   UNL     1      -4.625 -12.131   9.234  0.00  0.00    +0.092 C 
BRANCH  13   3
ATOM      3  N   UNL     1      -4.315 -11.997   7.812  0.00  0.00    -0.299 NA
ATOM      4  N   UNL     1      -4.754 -12.585   5.015  0.00  0.00    -0.298 NA
ATOM     19  C   UNL     1      -3.937 -13.294   7.237  0.00  0.00    +0.100 C 
ATOM     20  C   UNL     1      -5.453 -11.425   7.082  0.00  0.00    +0.100 C 
ATOM     22  C   UNL     1      -3.616 -13.157   5.745  0.00  0.00    +0.100 C 
ATOM     23  C   UNL     1      -5.130 -11.287   5.590  0.00  0.00    +0.100 C 
BRANCH   4  25
ATOM     25  C   UNL     1      -4.445 -12.452   3.593  0.00  0.00    +0.112 C 
BRANCH  25  26
ATOM     26  C   UNL     1      -2.942 -12.399   3.373  0.00  0.00    +0.174 C 
BRANCH  26   2
ATOM      2  O   UNL     1      -2.588 -13.366   2.394  0.00  0.00    -0.382 OA
ATOM     29  C   UNL     1      -3.214 -13.101   1.148  0.00  0.00    +0.194 C 
ENDBRANCH  26   2
ENDBRANCH  25  26
ENDBRANCH   4  25
ENDBRANCH  13   3
ENDBRANCH   9  13
BRANCH  11  16
ATOM     16  C   UNL     1      -2.081 -11.085  13.215  0.00  0.00    +0.105 C 
BRANCH  16  24
ATOM      1  O   UNL     1      -3.623 -11.288  15.097  0.00  0.00    -0.420 OA
ATOM      5  N   UNL     1      -1.529 -10.757  15.681  0.00  0.00    -0.112 NA
ATOM      6  N   UNL     1      -2.287 -10.839  16.834  0.00  0.00    -0.107 NA
ATOM     24  C   UNL     1      -2.350 -11.027  14.692  0.00  0.00    +0.218 A 
ATOM     27  C   UNL     1      -3.501 -11.150  16.445  0.00  0.00    +0.248 A 
BRANCH  27  28
ATOM     28  C   UNL     1      -4.697 -11.365  17.208  0.00  0.00    +0.039 A 
ATOM     30  C   UNL     1      -4.658 -11.295  18.601  0.00  0.00    +0.015 A 
ATOM     31  C   UNL     1      -5.898 -11.642  16.558  0.00  0.00    +0.015 A 
ATOM     32  C   UNL     1      -5.820 -11.503  19.342  0.00  0.00    +0.024 A 
ATOM     33  C   UNL     1      -7.062 -11.851  17.299  0.00  0.00    +0.024 A 
ATOM     34  C   UNL     1      -7.022 -11.781  18.692  0.00  0.00    +0.029 A 
BRANCH  34   7
ATOM      7  N   UNL     1      -8.198 -11.993  19.442  0.00  0.00    -0.336 N 
ATOM     35  C   UNL     1      -9.162 -10.924  19.614  0.00  0.00    +0.129 C 
ATOM     36  C   UNL     1      -8.454 -13.281  20.056  0.00  0.00    +0.129 C 
ENDBRANCH  34   7
ENDBRANCH  27  28
ENDBRANCH  16  24
ENDBRANCH  11  16
TORSDOF 10
ENDMDL
MODEL 4
REMARK VINA RESULT:      -6.1      2.401      6.946
REMARK  Name = 45783984
REMARK  16 active torsions:
REMARK  status: ('A' for Active; 'I' for Inactive)
REMARK    1  A    between atoms: O_2  and  C_26
REMARK    2  A    between atoms: O_2  and  C_29
REMARK    3  A    between atoms: N_3  and  C_13
REMARK    4  A    between atoms: N_4  and  C_25
REMARK    5  A    between atoms: N_7  and  C_34
REMARK    6  A    between atoms: N_7  and  C_35
REMARK    7  A    between atoms: N_7  and  C_36
REMARK    8  A    between atoms: C_8  and  C_12
REMARK    9  A    between atoms: C_9  and  C_13
REMARK   10  A    between atoms: C_11  and  C_16
REMARK   11  A    between atoms: C_12  and  C_17
REMARK   12  A    between atoms: C_12  and  C_18
REMARK   13  A    between atoms: C_15  and  C_21
REMARK   14  A    between atoms: C_16  and  C_24
REMARK   15  A    between atoms: C_25  and  C_26
REMARK   16  A    between atoms: C_27  and  C_28
REMARK                            x       y       z     vdW  Elec       q    Type
REMARK                         _______ _______ _______ _____ _____    ______ ____
ROOT
ATOM      8  C   UNL     1      -5.033 -12.415  15.428  0.00  0.00    +0.000 C 
ATOM      9  C   UNL     1      -4.958 -10.904  15.750  0.00  0.00    +0.029 C 
ATOM     10  C   UNL     1      -4.014 -12.784  14.341  0.00  0.00    +0.012 C 
ATOM     11  C   UNL     1      -2.562 -12.409  14.711  0.00  0.00    +0.024 C 
ATOM     14  C   UNL     1      -3.540 -10.408  15.869  0.00  0.00    -0.023 C 
ATOM     15  C   UNL     1      -2.457 -11.069  15.423  0.00  0.00    -0.073 C 
ATOM     21  C   UNL     1      -1.078 -10.521  15.671  0.00  0.00    +0.039 C 
ENDROOT
BRANCH   8  12
ATOM     12  C   UNL     1      -4.832 -13.267  16.689  0.00  0.00    -0.013 C 
ATOM     17  C   UNL     1      -5.736 -12.773  17.815  0.00  0.00    +0.007 C 
ATOM     18  C   UNL     1      -5.099 -14.738  16.386  0.00  0.00    +0.007 C 
ENDBRANCH   8  12
BRANCH   9  13
ATOM     13  C   UNL     1      -5.699 -10.066  14.705  0.00  0.00    +0.092 C 
BRANCH  13   3
ATOM      3  N   UNL     1      -6.988  -9.613  15.226  0.00  0.00    -0.299 NA
ATOM      4  N   UNL     1      -9.400  -9.956  16.784  0.00  0.00    -0.298 NA
ATOM     19  C   UNL     1      -8.072 -10.492  14.770  0.00  0.00    +0.100 C 
ATOM     20  C   UNL     1      -6.964  -9.548  16.693  0.00  0.00    +0.100 C 
ATOM     22  C   UNL     1      -9.424 -10.021  15.318  0.00  0.00    +0.100 C 
ATOM     23  C   UNL     1      -8.317  -9.076  17.240  0.00  0.00    +0.100 C 
BRANCH   4  25
ATOM     25  C   UNL     1     -10.688  -9.505  17.305  0.00  0.00    +0.112 C 
BRANCH  25  26
ATOM     26  C   UNL     1     -10.703  -7.993  17.463  0.00  0.00    +0.174 C 
BRANCH  26   2
ATOM      2  O   UNL     1     -11.489  -7.432  16.420  0.00  0.00    -0.382 OA
ATOM     29  C   UNL     1     -10.827  -6.341  15.797  0.00  0.00    +0.194 C 
ENDBRANCH  26   2
ENDBRANCH  25  26
ENDBRANCH   4  25
ENDBRANCH  13   3
ENDBRANCH   9  13
BRANCH  11  16
ATOM     16  C   UNL     1      -1.700 -12.481  13.444  0.00  0.00    +0.105 C 
BRANCH  16  24
ATOM      1  O   UNL     1      -3.224 -11.182  12.047  0.00  0.00    -0.420 OA
ATOM      5  N   UNL     1      -1.140 -10.372  12.129  0.00  0.00    -0.112 NA
ATOM      6  N   UNL     1      -1.888  -9.547  11.310  0.00  0.00    -0.107 NA
ATOM     24  C   UNL     1      -1.960 -11.312  12.536  0.00  0.00    +0.218 A 
ATOM     27  C   UNL     1      -3.097 -10.058  11.292  0.00  0.00    +0.248 A 
BRANCH  27  28
ATOM     28  C   UNL     1      -4.282  -9.621  10.611  0.00  0.00    +0.039 A 
ATOM     30  C   UNL     1      -5.400  -9.223  11.344  0.00  0.00    +0.015 A 
ATOM     31  C   UNL     1      -4.315  -9.594   9.218  0.00  0.00    +0.015 A 
ATOM     32  C   UNL     1      -6.551  -8.798  10.683  0.00  0.00    +0.024 A 
ATOM     33  C   UNL     1      -5.468  -9.169   8.556  0.00  0.00    +0.024 A 
ATOM     34  C   UNL     1      -6.586  -8.771   9.289  0.00  0.00    +0.029 A 
BRANCH  34   7
ATOM      7  N   UNL     1      -7.751  -8.342   8.620  0.00  0.00    -0.336 N 
ATOM     35  C   UNL     1      -7.837  -6.999   8.083  0.00  0.00    +0.129 C 
ATOM     36  C   UNL     1      -8.880  -9.238   8.467  0.00  0.00    +0.129 C 
ENDBRANCH  34   7
ENDBRANCH  27  28
ENDBRANCH  16  24
ENDBRANCH  11  16
TORSDOF 10
ENDMDL
MODEL 5
REMARK VINA RESULT:      -6.0      3.339      5.870
REMARK  Name = 45783984
REMARK  16 active torsions:
REMARK  status: ('A' for Active; 'I' for Inactive)
REMARK    1  A    between atoms: O_2  and  C_26
REMARK    2  A    between atoms: O_2  and  C_29
REMARK    3  A    between atoms: N_3  and  C_13
REMARK    4  A    between atoms: N_4  and  C_25
REMARK    5  A    between atoms: N_7  and  C_34
REMARK    6  A    between atoms: N_7  and  C_35
REMARK    7  A    between atoms: N_7  and  C_36
REMARK    8  A    between atoms: C_8  and  C_12
REMARK    9  A    between atoms: C_9  and  C_13
REMARK   10  A    between atoms: C_11  and  C_16
REMARK   11  A    between atoms: C_12  and  C_17
REMARK   12  A    between atoms: C_12  and  C_18
REMARK   13  A    between atoms: C_15  and  C_21
REMARK   14  A    between atoms: C_16  and  C_24
REMARK   15  A    between atoms: C_25  and  C_26
REMARK   16  A    between atoms: C_27  and  C_28
REMARK                            x       y       z     vdW  Elec       q    Type
REMARK                         _______ _______ _______ _____ _____    ______ ____
ROOT
ATOM      8  C   UNL     1      -5.415 -10.408  10.661  0.00  0.00    +0.000 C 
ATOM      9  C   UNL     1      -4.644 -10.088   9.360  0.00  0.00    +0.029 C 
ATOM     10  C   UNL     1      -4.490 -11.087  11.682  0.00  0.00    +0.012 C 
ATOM     11  C   UNL     1      -3.236 -10.253  12.020  0.00  0.00    +0.024 C 
ATOM     14  C   UNL     1      -3.281  -9.501   9.625  0.00  0.00    -0.023 C 
ATOM     15  C   UNL     1      -2.641  -9.554  10.807  0.00  0.00    -0.073 C 
ATOM     21  C   UNL     1      -1.319  -8.858  10.986  0.00  0.00    +0.039 C 
ENDROOT
BRANCH   8  12
ATOM     12  C   UNL     1      -6.064  -9.149  11.253  0.00  0.00    -0.013 C 
ATOM     17  C   UNL     1      -7.074  -8.561  10.273  0.00  0.00    +0.007 C 
ATOM     18  C   UNL     1      -6.728  -9.469  12.588  0.00  0.00    +0.007 C 
ENDBRANCH   8  12
BRANCH   9  13
ATOM     13  C   UNL     1      -4.495 -11.325   8.471  0.00  0.00    +0.092 C 
BRANCH  13   3
ATOM      3  N   UNL     1      -4.937 -11.038   7.108  0.00  0.00    -0.299 NA
ATOM      4  N   UNL     1      -6.558 -11.540   4.766  0.00  0.00    -0.298 NA
ATOM     19  C   UNL     1      -4.663 -12.175   6.220  0.00  0.00    +0.100 C 
ATOM     20  C   UNL     1      -6.366 -10.701   7.082  0.00  0.00    +0.100 C 
ATOM     22  C   UNL     1      -5.129 -11.877   4.791  0.00  0.00    +0.100 C 
ATOM     23  C   UNL     1      -6.831 -10.402   5.652  0.00  0.00    +0.100 C 
BRANCH   4  25
ATOM     25  C   UNL     1      -7.000 -11.254   3.403  0.00  0.00    +0.112 C 
BRANCH  25  26
ATOM     26  C   UNL     1      -7.714  -9.913   3.341  0.00  0.00    +0.174 C 
BRANCH  26   2
ATOM      2  O   UNL     1      -9.005 -10.107   2.779  0.00  0.00    -0.382 OA
ATOM     29  C   UNL     1      -9.119  -9.487   1.507  0.00  0.00    +0.194 C 
ENDBRANCH  26   2
ENDBRANCH  25  26
ENDBRANCH   4  25
ENDBRANCH  13   3
ENDBRANCH   9  13
BRANCH  11  16
ATOM     16  C   UNL     1      -2.228 -11.155  12.742  0.00  0.00    +0.105 C 
BRANCH  16  24
ATOM      1  O   UNL     1      -3.672 -11.308  14.705  0.00  0.00    -0.420 OA
ATOM      5  N   UNL     1      -1.527 -10.881  15.176  0.00  0.00    -0.112 NA
ATOM      6  N   UNL     1      -2.224 -10.940  16.369  0.00  0.00    -0.107 NA
ATOM     24  C   UNL     1      -2.412 -11.101  14.232  0.00  0.00    +0.218 A 
ATOM     27  C   UNL     1      -3.471 -11.191  16.045  0.00  0.00    +0.248 A 
BRANCH  27  28
ATOM     28  C   UNL     1      -4.631 -11.359  16.871  0.00  0.00    +0.039 A 
ATOM     30  C   UNL     1      -4.524 -11.242  18.257  0.00  0.00    +0.015 A 
ATOM     31  C   UNL     1      -5.867 -11.638  16.289  0.00  0.00    +0.015 A 
ATOM     32  C   UNL     1      -5.652 -11.405  19.060  0.00  0.00    +0.024 A 
ATOM     33  C   UNL     1      -6.996 -11.801  17.092  0.00  0.00    +0.024 A 
ATOM     34  C   UNL     1      -6.889 -11.684  18.478  0.00  0.00    +0.029 A 
BRANCH  34   7
ATOM      7  N   UNL     1      -8.030 -11.850  19.290  0.00  0.00    -0.336 N 
ATOM     35  C   UNL     1      -9.055 -10.826  19.334  0.00  0.00    +0.129 C 
ATOM     36  C   UNL     1      -8.188 -13.044  20.096  0.00  0.00    +0.129 C 
ENDBRANCH  34   7
ENDBRANCH  27  28
ENDBRANCH  16  24
ENDBRANCH  11  16
TORSDOF 10
ENDMDL
MODEL 6
REMARK VINA RESULT:      -5.8     25.447     29.152
REMARK  Name = 45783984
REMARK  16 active torsions:
REMARK  status: ('A' for Active; 'I' for Inactive)
REMARK    1  A    between atoms: O_2  and  C_26
REMARK    2  A    between atoms: O_2  and  C_29
REMARK    3  A    between atoms: N_3  and  C_13
REMARK    4  A    between atoms: N_4  and  C_25
REMARK    5  A    between atoms: N_7  and  C_34
REMARK    6  A    between atoms: N_7  and  C_35
REMARK    7  A    between atoms: N_7  and  C_36
REMARK    8  A    between atoms: C_8  and  C_12
REMARK    9  A    between atoms: C_9  and  C_13
REMARK   10  A    between atoms: C_11  and  C_16
REMARK   11  A    between atoms: C_12  and  C_17
REMARK   12  A    between atoms: C_12  and  C_18
REMARK   13  A    between atoms: C_15  and  C_21
REMARK   14  A    between atoms: C_16  and  C_24
REMARK   15  A    between atoms: C_25  and  C_26
REMARK   16  A    between atoms: C_27  and  C_28
REMARK                            x       y       z     vdW  Elec       q    Type
REMARK                         _______ _______ _______ _____ _____    ______ ____
ROOT
ATOM      8  C   UNL     1      11.652   9.424   5.515  0.00  0.00    +0.000 C 
ATOM      9  C   UNL     1      12.151   8.638   6.749  0.00  0.00    +0.029 C 
ATOM     10  C   UNL     1      10.563   8.633   4.777  0.00  0.00    +0.012 C 
ATOM     11  C   UNL     1       9.361   8.266   5.673  0.00  0.00    +0.024 C 
ATOM     14  C   UNL     1      11.024   8.023   7.538  0.00  0.00    -0.023 C 
ATOM     15  C   UNL     1       9.770   7.859   7.081  0.00  0.00    -0.073 C 
ATOM     21  C   UNL     1       8.698   7.313   7.985  0.00  0.00    +0.039 C 
ENDROOT
BRANCH   8  12
ATOM     12  C   UNL     1      11.154  10.822   5.905  0.00  0.00    -0.013 C 
ATOM     17  C   UNL     1      12.188  11.533   6.773  0.00  0.00    +0.007 C 
ATOM     18  C   UNL     1      10.836  11.642   4.659  0.00  0.00    +0.007 C 
ENDBRANCH   8  12
BRANCH   9  13
ATOM     13  C   UNL     1      13.148   7.543   6.358  0.00  0.00    +0.092 C 
BRANCH  13   3
ATOM      3  N   UNL     1      14.227   8.094   5.541  0.00  0.00    -0.299 NA
ATOM      4  N   UNL     1      16.691   7.877   4.043  0.00  0.00    -0.298 NA
ATOM     19  C   UNL     1      15.522   7.945   6.219  0.00  0.00    +0.100 C 
ATOM     20  C   UNL     1      14.263   7.453   4.221  0.00  0.00    +0.100 C 
ATOM     22  C   UNL     1      16.656   8.520   5.362  0.00  0.00    +0.100 C 
ATOM     23  C   UNL     1      15.397   8.029   3.365  0.00  0.00    +0.100 C 
BRANCH   4  25
ATOM     25  C   UNL     1      17.771   8.428   3.226  0.00  0.00    +0.112 C 
BRANCH  25  26
ATOM     26  C   UNL     1      18.926   8.885   4.102  0.00  0.00    +0.174 C 
BRANCH  26   2
ATOM      2  O   UNL     1      20.109   8.219   3.683  0.00  0.00    -0.382 OA
ATOM     29  C   UNL     1      20.385   7.085   4.494  0.00  0.00    +0.194 C 
ENDBRANCH  26   2
ENDBRANCH  25  26
ENDBRANCH   4  25
ENDBRANCH  13   3
ENDBRANCH   9  13
BRANCH  11  16
ATOM     16  C   UNL     1       8.528   7.193   4.960  0.00  0.00    +0.105 C 
BRANCH  16  24
ATOM      1  O   UNL     1       9.751   5.951   3.252  0.00  0.00    -0.420 OA
ATOM      5  N   UNL     1       9.821   5.022   5.286  0.00  0.00    -0.112 NA
ATOM      6  N   UNL     1      10.548   4.221   4.425  0.00  0.00    -0.107 NA
ATOM     24  C   UNL     1       9.375   6.019   4.558  0.00  0.00    +0.218 A 
ATOM     27  C   UNL     1      10.479   4.801   3.249  0.00  0.00    +0.248 A 
BRANCH  27  28
ATOM     28  C   UNL     1      11.043   4.418   1.987  0.00  0.00    +0.039 A 
ATOM     30  C   UNL     1      12.229   3.685   1.948  0.00  0.00    +0.015 A 
ATOM     31  C   UNL     1      10.406   4.778   0.801  0.00  0.00    +0.015 A 
ATOM     32  C   UNL     1      12.778   3.312   0.721  0.00  0.00    +0.024 A 
ATOM     33  C   UNL     1      10.954   4.405  -0.427  0.00  0.00    +0.024 A 
ATOM     34  C   UNL     1      12.140   3.672  -0.466  0.00  0.00    +0.029 A 
BRANCH  34   7
ATOM      7  N   UNL     1      12.695   3.296  -1.707  0.00  0.00    -0.336 N 
ATOM     35  C   UNL     1      12.126   2.198  -2.464  0.00  0.00    +0.129 C 
ATOM     36  C   UNL     1      13.847   3.998  -2.238  0.00  0.00    +0.129 C 
ENDBRANCH  34   7
ENDBRANCH  27  28
ENDBRANCH  16  24
ENDBRANCH  11  16
TORSDOF 10
ENDMDL
MODEL 7
REMARK VINA RESULT:      -5.8     25.359     29.032
REMARK  Name = 45783984
REMARK  16 active torsions:
REMARK  status: ('A' for Active; 'I' for Inactive)
REMARK    1  A    between atoms: O_2  and  C_26
REMARK    2  A    between atoms: O_2  and  C_29
REMARK    3  A    between atoms: N_3  and  C_13
REMARK    4  A    between atoms: N_4  and  C_25
REMARK    5  A    between atoms: N_7  and  C_34
REMARK    6  A    between atoms: N_7  and  C_35
REMARK    7  A    between atoms: N_7  and  C_36
REMARK    8  A    between atoms: C_8  and  C_12
REMARK    9  A    between atoms: C_9  and  C_13
REMARK   10  A    between atoms: C_11  and  C_16
REMARK   11  A    between atoms: C_12  and  C_17
REMARK   12  A    between atoms: C_12  and  C_18
REMARK   13  A    between atoms: C_15  and  C_21
REMARK   14  A    between atoms: C_16  and  C_24
REMARK   15  A    between atoms: C_25  and  C_26
REMARK   16  A    between atoms: C_27  and  C_28
REMARK                            x       y       z     vdW  Elec       q    Type
REMARK                         _______ _______ _______ _____ _____    ______ ____
ROOT
ATOM      8  C   UNL     1      10.887   9.780   7.026  0.00  0.00    +0.000 C 
ATOM      9  C   UNL     1      12.032   8.746   6.927  0.00  0.00    +0.029 C 
ATOM     10  C   UNL     1       9.585   9.197   6.461  0.00  0.00    +0.012 C 
ATOM     11  C   UNL     1       9.153   7.884   7.151  0.00  0.00    +0.024 C 
ATOM     14  C   UNL     1      11.601   7.364   7.346  0.00  0.00    -0.023 C 
ATOM     15  C   UNL     1      10.322   6.963   7.464  0.00  0.00    -0.073 C 
ATOM     21  C   UNL     1      10.003   5.584   7.974  0.00  0.00    +0.039 C 
ENDROOT
BRANCH   8  12
ATOM     12  C   UNL     1      10.696  10.269   8.468  0.00  0.00    -0.013 C 
ATOM     17  C   UNL     1      11.898  11.098   8.913  0.00  0.00    +0.007 C 
ATOM     18  C   UNL     1       9.407  11.075   8.591  0.00  0.00    +0.007 C 
ENDBRANCH   8  12
BRANCH   9  13
ATOM     13  C   UNL     1      12.619   8.684   5.514  0.00  0.00    +0.092 C 
BRANCH  13   3
ATOM      3  N   UNL     1      14.042   8.354   5.560  0.00  0.00    -0.299 NA
ATOM      4  N   UNL     1      16.810   8.789   4.845  0.00  0.00    -0.298 NA
ATOM     19  C   UNL     1      14.544   8.026   4.220  0.00  0.00    +0.100 C 
ATOM     20  C   UNL     1      14.815   9.459   6.141  0.00  0.00    +0.100 C 
ATOM     22  C   UNL     1      16.038   7.684   4.265  0.00  0.00    +0.100 C 
ATOM     23  C   UNL     1      16.309   9.115   6.186  0.00  0.00    +0.100 C 
BRANCH   4  25
ATOM     25  C   UNL     1      18.233   8.460   4.890  0.00  0.00    +0.112 C 
BRANCH  25  26
ATOM     26  C   UNL     1      18.818   8.794   6.253  0.00  0.00    +0.174 C 
BRANCH  26   2
ATOM      2  O   UNL     1      20.225   8.944   6.122  0.00  0.00    -0.382 OA
ATOM     29  C   UNL     1      20.868   7.693   5.924  0.00  0.00    +0.194 C 
ENDBRANCH  26   2
ENDBRANCH  25  26
ENDBRANCH   4  25
ENDBRANCH  13   3
ENDBRANCH   9  13
BRANCH  11  16
ATOM     16  C   UNL     1       8.076   7.211   6.292  0.00  0.00    +0.105 C 
BRANCH  16  24
ATOM      1  O   UNL     1       9.349   6.402   4.373  0.00  0.00    -0.420 OA
ATOM      5  N   UNL     1       7.944   8.077   3.900  0.00  0.00    -0.112 NA
ATOM      6  N   UNL     1       8.594   7.721   2.733  0.00  0.00    -0.107 NA
ATOM     24  C   UNL     1       8.416   7.281   4.831  0.00  0.00    +0.218 A 
ATOM     27  C   UNL     1       9.404   6.740   3.057  0.00  0.00    +0.248 A 
BRANCH  27  28
ATOM     28  C   UNL     1      10.319   5.984   2.251  0.00  0.00    +0.039 A 
ATOM     30  C   UNL     1      10.272   6.085   0.861  0.00  0.00    +0.015 A 
ATOM     31  C   UNL     1      11.256   5.150   2.859  0.00  0.00    +0.015 A 
ATOM     32  C   UNL     1      11.163   5.351   0.078  0.00  0.00    +0.024 A 
ATOM     33  C   UNL     1      12.147   4.415   2.076  0.00  0.00    +0.024 A 
ATOM     34  C   UNL     1      12.101   4.516   0.686  0.00  0.00    +0.029 A 
BRANCH  34   7
ATOM      7  N   UNL     1      13.000   3.772  -0.106  0.00  0.00    -0.336 N 
ATOM     35  C   UNL     1      14.419   3.781   0.191  0.00  0.00    +0.129 C 
ATOM     36  C   UNL     1      12.518   2.995  -1.230  0.00  0.00    +0.129 C 
ENDBRANCH  34   7
ENDBRANCH  27  28
ENDBRANCH  16  24
ENDBRANCH  11  16
TORSDOF 10
ENDMDL
MODEL 8
REMARK VINA RESULT:      -5.8      2.314      6.370
REMARK  Name = 45783984
REMARK  16 active torsions:
REMARK  status: ('A' for Active; 'I' for Inactive)
REMARK    1  A    between atoms: O_2  and  C_26
REMARK    2  A    between atoms: O_2  and  C_29
REMARK    3  A    between atoms: N_3  and  C_13
REMARK    4  A    between atoms: N_4  and  C_25
REMARK    5  A    between atoms: N_7  and  C_34
REMARK    6  A    between atoms: N_7  and  C_35
REMARK    7  A    between atoms: N_7  and  C_36
REMARK    8  A    between atoms: C_8  and  C_12
REMARK    9  A    between atoms: C_9  and  C_13
REMARK   10  A    between atoms: C_11  and  C_16
REMARK   11  A    between atoms: C_12  and  C_17
REMARK   12  A    between atoms: C_12  and  C_18
REMARK   13  A    between atoms: C_15  and  C_21
REMARK   14  A    between atoms: C_16  and  C_24
REMARK   15  A    between atoms: C_25  and  C_26
REMARK   16  A    between atoms: C_27  and  C_28
REMARK                            x       y       z     vdW  Elec       q    Type
REMARK                         _______ _______ _______ _____ _____    ______ ____
ROOT
ATOM      8  C   UNL     1      -8.161 -11.857  17.922  0.00  0.00    +0.000 C 
ATOM      9  C   UNL     1      -7.498 -10.569  18.464  0.00  0.00    +0.029 C 
ATOM     10  C   UNL     1      -7.174 -12.642  17.046  0.00  0.00    +0.012 C 
ATOM     11  C   UNL     1      -5.864 -13.007  17.777  0.00  0.00    +0.024 C 
ATOM     14  C   UNL     1      -6.096 -10.806  18.963  0.00  0.00    -0.023 C 
ATOM     15  C   UNL     1      -5.355 -11.892  18.679  0.00  0.00    -0.073 C 
ATOM     21  C   UNL     1      -3.997 -12.069  19.302  0.00  0.00    +0.039 C 
ENDROOT
BRANCH   8  12
ATOM     12  C   UNL     1      -8.706 -12.729  19.061  0.00  0.00    -0.013 C 
ATOM     17  C   UNL     1      -9.672 -11.928  19.928  0.00  0.00    +0.007 C 
ATOM     18  C   UNL     1      -9.386 -13.974  18.500  0.00  0.00    +0.007 C 
ENDBRANCH   8  12
BRANCH   9  13
ATOM     13  C   UNL     1      -7.476  -9.457  17.411  0.00  0.00    +0.092 C 
BRANCH  13   3
ATOM      3  N   UNL     1      -8.793  -9.303  16.796  0.00  0.00    -0.299 NA
ATOM      4  N   UNL     1     -10.723  -7.901  15.161  0.00  0.00    -0.298 NA
ATOM     19  C   UNL     1      -9.451  -8.080  17.272  0.00  0.00    +0.100 C 
ATOM     20  C   UNL     1      -8.686  -9.290  15.331  0.00  0.00    +0.100 C 
ATOM     22  C   UNL     1     -10.830  -7.914  16.625  0.00  0.00    +0.100 C 
ATOM     23  C   UNL     1     -10.067  -9.126  14.685  0.00  0.00    +0.100 C 
BRANCH   4  25
ATOM     25  C   UNL     1     -12.039  -7.745  14.545  0.00  0.00    +0.112 C 
BRANCH  25  26
ATOM     26  C   UNL     1     -12.068  -8.393  13.170  0.00  0.00    +0.174 C 
BRANCH  26   2
ATOM      2  O   UNL     1     -12.561  -7.448  12.230  0.00  0.00    -0.382 OA
ATOM     29  C   UNL     1     -12.659  -6.149  12.797  0.00  0.00    +0.194 C 
ENDBRANCH  26   2
ENDBRANCH  25  26
ENDBRANCH   4  25
ENDBRANCH  13   3
ENDBRANCH   9  13
BRANCH  11  16
ATOM     16  C   UNL     1      -4.829 -13.451  16.736  0.00  0.00    +0.105 C 
BRANCH  16  24
ATOM      1  O   UNL     1      -5.189 -12.133  14.714  0.00  0.00    -0.420 OA
ATOM      5  N   UNL     1      -3.457 -11.452  15.956  0.00  0.00    -0.112 NA
ATOM      6  N   UNL     1      -3.544 -10.624  14.852  0.00  0.00    -0.107 NA
ATOM     24  C   UNL     1      -4.437 -12.317  15.833  0.00  0.00    +0.218 A 
ATOM     27  C   UNL     1      -4.568 -11.059  14.155  0.00  0.00    +0.248 A 
BRANCH  27  28
ATOM     28  C   UNL     1      -5.123 -10.584  12.921  0.00  0.00    +0.039 A 
ATOM     30  C   UNL     1      -4.751 -11.177  11.715  0.00  0.00    +0.015 A 
ATOM     31  C   UNL     1      -6.036  -9.531  12.927  0.00  0.00    +0.015 A 
ATOM     32  C   UNL     1      -5.291 -10.716  10.515  0.00  0.00    +0.024 A 
ATOM     33  C   UNL     1      -6.577  -9.069  11.726  0.00  0.00    +0.024 A 
ATOM     34  C   UNL     1      -6.204  -9.662  10.520  0.00  0.00    +0.029 A 
BRANCH  34   7
ATOM      7  N   UNL     1      -6.750  -9.194   9.307  0.00  0.00    -0.336 N 
ATOM     35  C   UNL     1      -6.112  -9.512   8.044  0.00  0.00    +0.129 C 
ATOM     36  C   UNL     1      -7.951  -8.384   9.307  0.00  0.00    +0.129 C 
ENDBRANCH  34   7
ENDBRANCH  27  28
ENDBRANCH  16  24
ENDBRANCH  11  16
TORSDOF 10
ENDMDL
MODEL 9
REMARK VINA RESULT:      -5.7     25.067     28.900
REMARK  Name = 45783984
REMARK  16 active torsions:
REMARK  status: ('A' for Active; 'I' for Inactive)
REMARK    1  A    between atoms: O_2  and  C_26
REMARK    2  A    between atoms: O_2  and  C_29
REMARK    3  A    between atoms: N_3  and  C_13
REMARK    4  A    between atoms: N_4  and  C_25
REMARK    5  A    between atoms: N_7  and  C_34
REMARK    6  A    between atoms: N_7  and  C_35
REMARK    7  A    between atoms: N_7  and  C_36
REMARK    8  A    between atoms: C_8  and  C_12
REMARK    9  A    between atoms: C_9  and  C_13
REMARK   10  A    between atoms: C_11  and  C_16
REMARK   11  A    between atoms: C_12  and  C_17
REMARK   12  A    between atoms: C_12  and  C_18
REMARK   13  A    between atoms: C_15  and  C_21
REMARK   14  A    between atoms: C_16  and  C_24
REMARK   15  A    between atoms: C_25  and  C_26
REMARK   16  A    between atoms: C_27  and  C_28
REMARK                            x       y       z     vdW  Elec       q    Type
REMARK                         _______ _______ _______ _____ _____    ______ ____
ROOT
ATOM      8  C   UNL     1       8.073   9.688   3.963  0.00  0.00    +0.000 C 
ATOM      9  C   UNL     1       9.188  10.306   4.837  0.00  0.00    +0.029 C 
ATOM     10  C   UNL     1       8.134   8.155   4.018  0.00  0.00    +0.012 C 
ATOM     11  C   UNL     1       8.037   7.590   5.452  0.00  0.00    +0.024 C 
ATOM     14  C   UNL     1       9.324   9.621   6.172  0.00  0.00    -0.023 C 
ATOM     15  C   UNL     1       8.808   8.415   6.470  0.00  0.00    -0.073 C 
ATOM     21  C   UNL     1       8.930   7.861   7.864  0.00  0.00    +0.039 C 
ENDROOT
BRANCH   8  12
ATOM     12  C   UNL     1       6.687  10.202   4.377  0.00  0.00    -0.013 C 
ATOM     17  C   UNL     1       6.763  11.673   4.775  0.00  0.00    +0.007 C 
ATOM     18  C   UNL     1       5.684   9.998   3.246  0.00  0.00    +0.007 C 
ENDBRANCH   8  12
BRANCH   9  13
ATOM     13  C   UNL     1      10.542  10.290   4.122  0.00  0.00    +0.092 C 
BRANCH  13   3
ATOM      3  N   UNL     1      11.638  10.344   5.088  0.00  0.00    -0.299 NA
ATOM      4  N   UNL     1      14.381  10.858   5.844  0.00  0.00    -0.298 NA
ATOM     19  C   UNL     1      12.720   9.430   4.701  0.00  0.00    +0.100 C 
ATOM     20  C   UNL     1      12.148  11.714   5.222  0.00  0.00    +0.100 C 
ATOM     22  C   UNL     1      13.871   9.488   5.711  0.00  0.00    +0.100 C 
ATOM     23  C   UNL     1      13.299  11.772   6.233  0.00  0.00    +0.100 C 
BRANCH   4  25
ATOM     25  C   UNL     1      15.477  10.913   6.809  0.00  0.00    +0.112 C 
BRANCH  25  26
ATOM     26  C   UNL     1      16.820  10.875   6.098  0.00  0.00    +0.174 C 
BRANCH  26   2
ATOM      2  O   UNL     1      17.344   9.556   6.178  0.00  0.00    -0.382 OA
ATOM     29  C   UNL     1      17.631   9.029   4.891  0.00  0.00    +0.194 C 
ENDBRANCH  26   2
ENDBRANCH  25  26
ENDBRANCH   4  25
ENDBRANCH  13   3
ENDBRANCH   9  13
BRANCH  11  16
ATOM     16  C   UNL     1       8.467   6.118   5.428  0.00  0.00    +0.105 C 
BRANCH  16  24
ATOM      1  O   UNL     1       9.778   5.375   3.508  0.00  0.00    -0.420 OA
ATOM      5  N   UNL     1      10.996   6.264   5.160  0.00  0.00    -0.112 NA
ATOM      6  N   UNL     1      11.859   5.889   4.147  0.00  0.00    -0.107 NA
ATOM     24  C   UNL     1       9.793   5.944   4.744  0.00  0.00    +0.218 A 
ATOM     27  C   UNL     1      11.104   5.375   3.204  0.00  0.00    +0.248 A 
BRANCH  27  28
ATOM     28  C   UNL     1      11.456   4.826   1.926  0.00  0.00    +0.039 A 
ATOM     30  C   UNL     1      10.558   4.906   0.861  0.00  0.00    +0.015 A 
ATOM     31  C   UNL     1      12.696   4.213   1.749  0.00  0.00    +0.015 A 
ATOM     32  C   UNL     1      10.900   4.372  -0.380  0.00  0.00    +0.024 A 
ATOM     33  C   UNL     1      13.038   3.679   0.506  0.00  0.00    +0.024 A 
ATOM     34  C   UNL     1      12.141   3.759  -0.559  0.00  0.00    +0.029 A 
BRANCH  34   7
ATOM      7  N   UNL     1      12.486   3.218  -1.815  0.00  0.00    -0.336 N 
ATOM     35  C   UNL     1      13.519   3.837  -2.621  0.00  0.00    +0.129 C 
ATOM     36  C   UNL     1      11.808   2.041  -2.318  0.00  0.00    +0.129 C 
ENDBRANCH  34   7
ENDBRANCH  27  28
ENDBRANCH  16  24
ENDBRANCH  11  16
TORSDOF 10
ENDMDL
MODEL 10
REMARK VINA RESULT:      -5.7      2.850      8.083
REMARK  Name = 45783984
REMARK  16 active torsions:
REMARK  status: ('A' for Active; 'I' for Inactive)
REMARK    1  A    between atoms: O_2  and  C_26
REMARK    2  A    between atoms: O_2  and  C_29
REMARK    3  A    between atoms: N_3  and  C_13
REMARK    4  A    between atoms: N_4  and  C_25
REMARK    5  A    between atoms: N_7  and  C_34
REMARK    6  A    between atoms: N_7  and  C_35
REMARK    7  A    between atoms: N_7  and  C_36
REMARK    8  A    between atoms: C_8  and  C_12
REMARK    9  A    between atoms: C_9  and  C_13
REMARK   10  A    between atoms: C_11  and  C_16
REMARK   11  A    between atoms: C_12  and  C_17
REMARK   12  A    between atoms: C_12  and  C_18
REMARK   13  A    between atoms: C_15  and  C_21
REMARK   14  A    between atoms: C_16  and  C_24
REMARK   15  A    between atoms: C_25  and  C_26
REMARK   16  A    between atoms: C_27  and  C_28
REMARK                            x       y       z     vdW  Elec       q    Type
REMARK                         _______ _______ _______ _____ _____    ______ ____
ROOT
ATOM      8  C   UNL     1      -5.055 -12.525  15.396  0.00  0.00    +0.000 C 
ATOM      9  C   UNL     1      -4.962 -11.030  15.778  0.00  0.00    +0.029 C 
ATOM     10  C   UNL     1      -4.031 -12.865  14.303  0.00  0.00    +0.012 C 
ATOM     11  C   UNL     1      -2.578 -12.525  14.700  0.00  0.00    +0.024 C 
ATOM     14  C   UNL     1      -3.538 -10.558  15.929  0.00  0.00    -0.023 C 
ATOM     15  C   UNL     1      -2.460 -11.216  15.466  0.00  0.00    -0.073 C 
ATOM     21  C   UNL     1      -1.076 -10.699  15.748  0.00  0.00    +0.039 C 
ENDROOT
BRANCH   8  12
ATOM     12  C   UNL     1      -4.877 -13.430  16.623  0.00  0.00    -0.013 C 
ATOM     17  C   UNL     1      -5.821 -12.999  17.742  0.00  0.00    +0.007 C 
ATOM     18  C   UNL     1      -5.112 -14.889  16.247  0.00  0.00    +0.007 C 
ENDBRANCH   8  12
BRANCH   9  13
ATOM     13  C   UNL     1      -5.682 -10.139  14.762  0.00  0.00    +0.092 C 
BRANCH  13   3
ATOM      3  N   UNL     1      -6.944  -9.646  15.311  0.00  0.00    -0.299 NA
ATOM      4  N   UNL     1      -9.355  -9.931  16.882  0.00  0.00    -0.298 NA
ATOM     19  C   UNL     1      -8.071 -10.460  14.838  0.00  0.00    +0.100 C 
ATOM     20  C   UNL     1      -6.904  -9.630  16.778  0.00  0.00    +0.100 C 
ATOM     22  C   UNL     1      -9.395  -9.946  15.415  0.00  0.00    +0.100 C 
ATOM     23  C   UNL     1      -8.229  -9.115  17.354  0.00  0.00    +0.100 C 
BRANCH   4  25
ATOM     25  C   UNL     1     -10.617  -9.439  17.431  0.00  0.00    +0.112 C 
BRANCH  25  26
ATOM     26  C   UNL     1     -11.665 -10.540  17.435  0.00  0.00    +0.174 C 
BRANCH  26   2
ATOM      2  O   UNL     1     -11.126 -11.683  18.084  0.00  0.00    -0.382 OA
ATOM     29  C   UNL     1     -11.521 -12.885  17.439  0.00  0.00    +0.194 C 
ENDBRANCH  26   2
ENDBRANCH  25  26
ENDBRANCH   4  25
ENDBRANCH  13   3
ENDBRANCH   9  13
BRANCH  11  16
ATOM     16  C   UNL     1      -1.706 -12.559  13.438  0.00  0.00    +0.105 C 
BRANCH  16  24
ATOM      1  O   UNL     1      -2.942 -11.980  11.414  0.00  0.00    -0.420 OA
ATOM      5  N   UNL     1      -1.904 -10.249  12.381  0.00  0.00    -0.112 NA
ATOM      6  N   UNL     1      -2.558  -9.782  11.256  0.00  0.00    -0.107 NA
ATOM     24  C   UNL     1      -2.156 -11.537  12.433  0.00  0.00    +0.218 A 
ATOM     27  C   UNL     1      -3.149 -10.826  10.723  0.00  0.00    +0.248 A 
BRANCH  27  28
ATOM     28  C   UNL     1      -3.966 -10.935   9.549  0.00  0.00    +0.039 A 
ATOM     30  C   UNL     1      -4.468  -9.786   8.939  0.00  0.00    +0.015 A 
ATOM     31  C   UNL     1      -4.256 -12.190   9.017  0.00  0.00    +0.015 A 
ATOM     32  C   UNL     1      -5.261  -9.892   7.798  0.00  0.00    +0.024 A 
ATOM     33  C   UNL     1      -5.050 -12.297   7.874  0.00  0.00    +0.024 A 
ATOM     34  C   UNL     1      -5.552 -11.148   7.265  0.00  0.00    +0.029 A 
BRANCH  34   7
ATOM      7  N   UNL     1      -6.356 -11.256   6.111  0.00  0.00    -0.336 N 
ATOM     35  C   UNL     1      -5.756 -11.546   4.823  0.00  0.00    +0.129 C 
ATOM     36  C   UNL     1      -7.790 -11.070   6.196  0.00  0.00    +0.129 C 
ENDBRANCH  34   7
ENDBRANCH  27  28
ENDBRANCH  16  24
ENDBRANCH  11  16
TORSDOF 10
ENDMDL
