MODEL 1
REMARK VINA RESULT:      -7.0      0.000      0.000
REMARK  Name = 45783382
REMARK  8 active torsions:
REMARK  status: ('A' for Active; 'I' for Inactive)
REMARK    1  A    between atoms: O_2  and  C_30
REMARK    2  A    between atoms: O_2  and  C_31
REMARK    3  A    between atoms: N_3  and  C_13
REMARK    4  A    between atoms: N_7  and  C_28
REMARK    5  A    between atoms: C_9  and  C_14
REMARK    6  A    between atoms: C_13  and  C_15
REMARK    7  A    between atoms: C_19  and  C_22
REMARK    8  A    between atoms: C_28  and  C_30
REMARK                            x       y       z     vdW  Elec       q    Type
REMARK                         _______ _______ _______ _____ _____    ______ ____
ROOT
ATOM      1  O   UNL     1      15.140  10.528  22.353  0.00  0.00    -0.336 OA
ATOM      4  N   UNL     1      15.647  10.325  20.181  0.00  0.00    -0.190 NA
ATOM      6  N   UNL     1      15.540   9.198  22.170  0.00  0.00    -0.056 NA
ATOM     14  C   UNL     1      15.232  11.120  21.134  0.00  0.00    +0.245 A 
ATOM     19  C   UNL     1      15.822   9.156  20.864  0.00  0.00    +0.205 A 
ENDROOT
BRANCH  19  22
ATOM      7  N   UNL     1      14.444   8.030  18.650  0.00  0.00    -0.326 N 
ATOM      8  N   UNL     1      16.028   6.278  18.496  0.00  0.00    -0.240 NA
ATOM     22  C   UNL     1      16.280   7.963  20.211  0.00  0.00    +0.062 A 
ATOM     25  C   UNL     1      15.621   7.400  19.131  0.00  0.00    +0.130 A 
ATOM     26  C   UNL     1      17.432   7.335  20.671  0.00  0.00    +0.016 A 
ATOM     27  C   UNL     1      17.883   6.178  20.044  0.00  0.00    +0.020 A 
ATOM     29  C   UNL     1      17.152   5.695  18.971  0.00  0.00    +0.113 A 
ATOM     33  H   UNL     1      13.947   8.613  19.315  0.00  0.00    +0.148 HD
BRANCH   7  28
ATOM     28  C   UNL     1      13.698   7.524  17.545  0.00  0.00    +0.131 C 
BRANCH  28  30
ATOM     30  C   UNL     1      12.851   8.631  16.941  0.00  0.00    +0.178 C 
BRANCH  30   2
ATOM      2  O   UNL     1      11.549   8.132  16.662  0.00  0.00    -0.381 OA
ATOM     31  C   UNL     1      10.807   9.034  15.854  0.00  0.00    +0.194 C 
ENDBRANCH  30   2
ENDBRANCH  28  30
ENDBRANCH   7  28
ENDBRANCH  19  22
BRANCH  14   9
ATOM      3  N   UNL     1      13.851  12.960  22.084  0.00  0.00    -0.287 NA
ATOM      9  C   UNL     1      14.851  12.585  21.064  0.00  0.00    +0.146 C 
ATOM     10  C   UNL     1      16.045  13.522  21.323  0.00  0.00    +0.030 C 
ATOM     11  C   UNL     1      14.088  14.370  22.395  0.00  0.00    +0.085 C 
ATOM     12  C   UNL     1      15.600  14.427  22.463  0.00  0.00    +0.017 C 
BRANCH   3  13
ATOM     13  C   UNL     1      12.479  12.715  21.660  0.00  0.00    +0.122 C 
BRANCH  13  15
ATOM      5  N   UNL     1      11.035  10.210  23.936  0.00  0.00    -0.360 N 
ATOM     15  C   UNL     1      11.881  11.522  22.359  0.00  0.00    -0.008 A 
ATOM     16  C   UNL     1      11.565  10.266  21.770  0.00  0.00    +0.004 A 
ATOM     17  C   UNL     1      11.544  11.457  23.691  0.00  0.00    +0.088 A 
ATOM     18  C   UNL     1      11.035   9.461  22.781  0.00  0.00    +0.047 A 
ATOM     20  C   UNL     1      11.680   9.734  20.470  0.00  0.00    +0.010 A 
ATOM     21  C   UNL     1      10.613   8.146  22.557  0.00  0.00    +0.026 A 
ATOM     23  C   UNL     1      11.261   8.420  20.231  0.00  0.00    +0.001 A 
ATOM     24  C   UNL     1      10.736   7.641  21.259  0.00  0.00    +0.002 A 
ATOM     32  H   UNL     1      10.704   9.886  24.835  0.00  0.00    +0.165 HD
ENDBRANCH  13  15
ENDBRANCH   3  13
ENDBRANCH  14   9
TORSDOF 7
ENDMDL
MODEL 2
REMARK VINA RESULT:      -6.6      2.468      4.977
REMARK  Name = 45783382
REMARK  8 active torsions:
REMARK  status: ('A' for Active; 'I' for Inactive)
REMARK    1  A    between atoms: O_2  and  C_30
REMARK    2  A    between atoms: O_2  and  C_31
REMARK    3  A    between atoms: N_3  and  C_13
REMARK    4  A    between atoms: N_7  and  C_28
REMARK    5  A    between atoms: C_9  and  C_14
REMARK    6  A    between atoms: C_13  and  C_15
REMARK    7  A    between atoms: C_19  and  C_22
REMARK    8  A    between atoms: C_28  and  C_30
REMARK                            x       y       z     vdW  Elec       q    Type
REMARK                         _______ _______ _______ _____ _____    ______ ____
ROOT
ATOM      1  O   UNL     1      16.031  11.644  21.722  0.00  0.00    -0.336 OA
ATOM      4  N   UNL     1      15.020   9.647  21.808  0.00  0.00    -0.190 NA
ATOM      6  N   UNL     1      16.950  10.720  21.208  0.00  0.00    -0.056 NA
ATOM     14  C   UNL     1      14.923  10.929  22.052  0.00  0.00    +0.245 A 
ATOM     19  C   UNL     1      16.281   9.566  21.292  0.00  0.00    +0.205 A 
ENDROOT
BRANCH  19  22
ATOM      7  N   UNL     1      18.695   8.555  22.396  0.00  0.00    -0.326 N 
ATOM      8  N   UNL     1      18.573   6.633  21.019  0.00  0.00    -0.240 NA
ATOM     22  C   UNL     1      16.844   8.316  20.870  0.00  0.00    +0.062 A 
ATOM     25  C   UNL     1      18.019   7.808  21.397  0.00  0.00    +0.130 A 
ATOM     26  C   UNL     1      16.193   7.572  19.891  0.00  0.00    +0.016 A 
ATOM     27  C   UNL     1      16.732   6.358  19.477  0.00  0.00    +0.020 A 
ATOM     29  C   UNL     1      17.913   5.938  20.066  0.00  0.00    +0.113 A 
ATOM     33  H   UNL     1      18.509   9.552  22.408  0.00  0.00    +0.148 HD
BRANCH   7  28
ATOM     28  C   UNL     1      19.910   8.113  22.996  0.00  0.00    +0.131 C 
BRANCH  28  30
ATOM     30  C   UNL     1      21.099   8.720  22.270  0.00  0.00    +0.178 C 
BRANCH  30   2
ATOM      2  O   UNL     1      22.231   7.875  22.425  0.00  0.00    -0.381 OA
ATOM     31  C   UNL     1      21.848   6.527  22.653  0.00  0.00    +0.194 C 
ENDBRANCH  30   2
ENDBRANCH  28  30
ENDBRANCH   7  28
ENDBRANCH  19  22
BRANCH  14   9
ATOM      3  N   UNL     1      12.505  10.940  22.643  0.00  0.00    -0.287 NA
ATOM      9  C   UNL     1      13.765  11.711  22.637  0.00  0.00    +0.146 C 
ATOM     10  C   UNL     1      13.994  12.098  24.109  0.00  0.00    +0.030 C 
ATOM     11  C   UNL     1      11.725  11.432  23.778  0.00  0.00    +0.085 C 
ATOM     12  C   UNL     1      12.783  11.556  24.856  0.00  0.00    +0.017 C 
BRANCH   3  13
ATOM     13  C   UNL     1      11.768  11.034  21.389  0.00  0.00    +0.122 C 
BRANCH  13  15
ATOM      5  N   UNL     1      11.281   7.635  20.068  0.00  0.00    -0.360 N 
ATOM     15  C   UNL     1      11.756   9.724  20.647  0.00  0.00    -0.008 A 
ATOM     16  C   UNL     1      12.501   9.406  19.477  0.00  0.00    +0.004 A 
ATOM     17  C   UNL     1      11.016   8.615  20.986  0.00  0.00    +0.088 A 
ATOM     18  C   UNL     1      12.185   8.090  19.134  0.00  0.00    +0.047 A 
ATOM     20  C   UNL     1      13.418  10.114  18.674  0.00  0.00    +0.010 A 
ATOM     21  C   UNL     1      12.742   7.443  18.026  0.00  0.00    +0.026 A 
ATOM     23  C   UNL     1      13.982   9.480  17.561  0.00  0.00    +0.001 A 
ATOM     24  C   UNL     1      13.648   8.166  17.244  0.00  0.00    +0.002 A 
ATOM     32  H   UNL     1      10.872   6.710  20.073  0.00  0.00    +0.165 HD
ENDBRANCH  13  15
ENDBRANCH   3  13
ENDBRANCH  14   9
TORSDOF 7
ENDMDL
MODEL 3
REMARK VINA RESULT:      -6.5      3.743      5.921
REMARK  Name = 45783382
REMARK  8 active torsions:
REMARK  status: ('A' for Active; 'I' for Inactive)
REMARK    1  A    between atoms: O_2  and  C_30
REMARK    2  A    between atoms: O_2  and  C_31
REMARK    3  A    between atoms: N_3  and  C_13
REMARK    4  A    between atoms: N_7  and  C_28
REMARK    5  A    between atoms: C_9  and  C_14
REMARK    6  A    between atoms: C_13  and  C_15
REMARK    7  A    between atoms: C_19  and  C_22
REMARK    8  A    between atoms: C_28  and  C_30
REMARK                            x       y       z     vdW  Elec       q    Type
REMARK                         _______ _______ _______ _____ _____    ______ ____
ROOT
ATOM      1  O   UNL     1      13.590   8.570  16.323  0.00  0.00    -0.336 OA
ATOM      4  N   UNL     1      14.763  10.387  16.904  0.00  0.00    -0.190 NA
ATOM      6  N   UNL     1      13.914   9.223  15.127  0.00  0.00    -0.056 NA
ATOM     14  C   UNL     1      14.127   9.321  17.319  0.00  0.00    +0.245 A 
ATOM     19  C   UNL     1      14.605  10.285  15.552  0.00  0.00    +0.205 A 
ENDROOT
BRANCH  19  22
ATOM      7  N   UNL     1      12.949  11.884  13.888  0.00  0.00    -0.326 N 
ATOM      8  N   UNL     1      14.841  12.979  12.980  0.00  0.00    -0.240 NA
ATOM     22  C   UNL     1      15.149  11.262  14.654  0.00  0.00    +0.062 A 
ATOM     25  C   UNL     1      14.357  12.050  13.836  0.00  0.00    +0.130 A 
ATOM     26  C   UNL     1      16.527  11.437  14.592  0.00  0.00    +0.016 A 
ATOM     27  C   UNL     1      17.063  12.383  13.724  0.00  0.00    +0.020 A 
ATOM     29  C   UNL     1      16.186  13.121  12.947  0.00  0.00    +0.113 A 
ATOM     33  H   UNL     1      12.619  10.984  14.219  0.00  0.00    +0.148 HD
BRANCH   7  28
ATOM     28  C   UNL     1      12.054  12.649  13.083  0.00  0.00    +0.131 C 
BRANCH  28  30
ATOM     30  C   UNL     1      10.736  11.911  12.928  0.00  0.00    +0.178 C 
BRANCH  30   2
ATOM      2  O   UNL     1      10.411  11.805  11.548  0.00  0.00    -0.381 OA
ATOM     31  C   UNL     1      11.532  12.095  10.725  0.00  0.00    +0.194 C 
ENDBRANCH  30   2
ENDBRANCH  28  30
ENDBRANCH   7  28
ENDBRANCH  19  22
BRANCH  14   9
ATOM      3  N   UNL     1      12.844   7.806  18.820  0.00  0.00    -0.287 NA
ATOM      9  C   UNL     1      13.915   8.819  18.732  0.00  0.00    +0.146 C 
ATOM     10  C   UNL     1      15.161   8.121  19.308  0.00  0.00    +0.030 C 
ATOM     11  C   UNL     1      13.189   6.936  19.944  0.00  0.00    +0.085 C 
ATOM     12  C   UNL     1      14.680   6.746  19.748  0.00  0.00    +0.017 C 
BRANCH   3  13
ATOM     13  C   UNL     1      11.515   8.386  18.964  0.00  0.00    +0.122 C 
BRANCH  13  15
ATOM      5  N   UNL     1      10.399   8.306  22.469  0.00  0.00    -0.360 N 
ATOM     15  C   UNL     1      11.159   8.622  20.407  0.00  0.00    -0.008 A 
ATOM     16  C   UNL     1      11.385   9.813  21.153  0.00  0.00    +0.004 A 
ATOM     17  C   UNL     1      10.551   7.714  21.244  0.00  0.00    +0.088 A 
ATOM     18  C   UNL     1      10.900   9.589  22.442  0.00  0.00    +0.047 A 
ATOM     20  C   UNL     1      11.958  11.065  20.852  0.00  0.00    +0.010 A 
ATOM     21  C   UNL     1      10.958  10.557  23.450  0.00  0.00    +0.026 A 
ATOM     23  C   UNL     1      12.025  12.043  21.851  0.00  0.00    +0.001 A 
ATOM     24  C   UNL     1      11.532  11.791  23.129  0.00  0.00    +0.002 A 
ATOM     32  H   UNL     1       9.981   7.866  23.277  0.00  0.00    +0.165 HD
ENDBRANCH  13  15
ENDBRANCH   3  13
ENDBRANCH  14   9
TORSDOF 7
ENDMDL
MODEL 4
REMARK VINA RESULT:      -6.4     26.091     29.330
REMARK  Name = 45783382
REMARK  8 active torsions:
REMARK  status: ('A' for Active; 'I' for Inactive)
REMARK    1  A    between atoms: O_2  and  C_30
REMARK    2  A    between atoms: O_2  and  C_31
REMARK    3  A    between atoms: N_3  and  C_13
REMARK    4  A    between atoms: N_7  and  C_28
REMARK    5  A    between atoms: C_9  and  C_14
REMARK    6  A    between atoms: C_13  and  C_15
REMARK    7  A    between atoms: C_19  and  C_22
REMARK    8  A    between atoms: C_28  and  C_30
REMARK                            x       y       z     vdW  Elec       q    Type
REMARK                         _______ _______ _______ _____ _____    ______ ____
ROOT
ATOM      1  O   UNL     1      -4.742  -9.751  16.828  0.00  0.00    -0.336 OA
ATOM      4  N   UNL     1      -5.330 -11.890  17.133  0.00  0.00    -0.190 NA
ATOM      6  N   UNL     1      -5.921  -9.727  17.584  0.00  0.00    -0.056 NA
ATOM     14  C   UNL     1      -4.465 -11.062  16.606  0.00  0.00    +0.245 A 
ATOM     19  C   UNL     1      -6.206 -11.025  17.722  0.00  0.00    +0.205 A 
ENDROOT
BRANCH  19  22
ATOM      7  N   UNL     1      -8.772  -9.863  17.367  0.00  0.00    -0.326 N 
ATOM      8  N   UNL     1      -9.716 -11.353  18.945  0.00  0.00    -0.240 NA
ATOM     22  C   UNL     1      -7.356 -11.491  18.442  0.00  0.00    +0.062 A 
ATOM     25  C   UNL     1      -8.614 -10.936  18.281  0.00  0.00    +0.130 A 
ATOM     26  C   UNL     1      -7.217 -12.542  19.341  0.00  0.00    +0.016 A 
ATOM     27  C   UNL     1      -8.328 -12.999  20.042  0.00  0.00    +0.020 A 
ATOM     29  C   UNL     1      -9.543 -12.378  19.811  0.00  0.00    +0.113 A 
ATOM     33  H   UNL     1      -7.938  -9.322  17.166  0.00  0.00    +0.148 HD
BRANCH   7  28
ATOM     28  C   UNL     1     -10.028  -9.228  17.136  0.00  0.00    +0.131 C 
BRANCH  28  30
ATOM     30  C   UNL     1      -9.810  -7.835  16.571  0.00  0.00    +0.178 C 
BRANCH  30   2
ATOM      2  O   UNL     1     -10.830  -6.966  17.046  0.00  0.00    -0.381 OA
ATOM     31  C   UNL     1     -11.253  -6.059  16.038  0.00  0.00    +0.194 C 
ENDBRANCH  30   2
ENDBRANCH  28  30
ENDBRANCH   7  28
ENDBRANCH  19  22
BRANCH  14   9
ATOM      3  N   UNL     1      -3.162 -10.598  14.536  0.00  0.00    -0.287 NA
ATOM      9  C   UNL     1      -3.218 -11.361  15.799  0.00  0.00    +0.146 C 
ATOM     10  C   UNL     1      -1.924 -10.981  16.543  0.00  0.00    +0.030 C 
ATOM     11  C   UNL     1      -1.744 -10.401  14.234  0.00  0.00    +0.085 C 
ATOM     12  C   UNL     1      -1.179 -10.051  15.596  0.00  0.00    +0.017 C 
BRANCH   3  13
ATOM     13  C   UNL     1      -3.871 -11.248  13.441  0.00  0.00    +0.122 C 
BRANCH  13  15
ATOM      5  N   UNL     1      -6.585  -8.991  12.402  0.00  0.00    -0.360 N 
ATOM     15  C   UNL     1      -4.839 -10.313  12.767  0.00  0.00    -0.008 A 
ATOM     16  C   UNL     1      -4.746  -9.808  11.440  0.00  0.00    +0.004 A 
ATOM     17  C   UNL     1      -5.980  -9.793  13.333  0.00  0.00    +0.088 A 
ATOM     18  C   UNL     1      -5.853  -8.981  11.236  0.00  0.00    +0.047 A 
ATOM     20  C   UNL     1      -3.823  -9.976  10.388  0.00  0.00    +0.010 A 
ATOM     21  C   UNL     1      -6.085  -8.313  10.030  0.00  0.00    +0.026 A 
ATOM     23  C   UNL     1      -4.041  -9.313   9.175  0.00  0.00    +0.001 A 
ATOM     24  C   UNL     1      -5.155  -8.495   9.001  0.00  0.00    +0.002 A 
ATOM     32  H   UNL     1      -7.444  -8.478  12.549  0.00  0.00    +0.165 HD
ENDBRANCH  13  15
ENDBRANCH   3  13
ENDBRANCH  14   9
TORSDOF 7
ENDMDL
MODEL 5
REMARK VINA RESULT:      -6.3     15.976     20.992
REMARK  Name = 45783382
REMARK  8 active torsions:
REMARK  status: ('A' for Active; 'I' for Inactive)
REMARK    1  A    between atoms: O_2  and  C_30
REMARK    2  A    between atoms: O_2  and  C_31
REMARK    3  A    between atoms: N_3  and  C_13
REMARK    4  A    between atoms: N_7  and  C_28
REMARK    5  A    between atoms: C_9  and  C_14
REMARK    6  A    between atoms: C_13  and  C_15
REMARK    7  A    between atoms: C_19  and  C_22
REMARK    8  A    between atoms: C_28  and  C_30
REMARK                            x       y       z     vdW  Elec       q    Type
REMARK                         _______ _______ _______ _____ _____    ______ ____
ROOT
ATOM      1  O   UNL     1      11.481   3.179   2.793  0.00  0.00    -0.336 OA
ATOM      4  N   UNL     1      11.944   5.327   2.356  0.00  0.00    -0.190 NA
ATOM      6  N   UNL     1      10.550   3.934   3.519  0.00  0.00    -0.056 NA
ATOM     14  C   UNL     1      12.263   4.077   2.137  0.00  0.00    +0.245 A 
ATOM     19  C   UNL     1      10.888   5.190   3.210  0.00  0.00    +0.205 A 
ENDROOT
BRANCH  19  22
ATOM      7  N   UNL     1      11.042   5.905   5.954  0.00  0.00    -0.326 N 
ATOM      8  N   UNL     1       9.613   7.758   5.598  0.00  0.00    -0.240 NA
ATOM     22  C   UNL     1      10.193   6.328   3.738  0.00  0.00    +0.062 A 
ATOM     25  C   UNL     1      10.256   6.692   5.073  0.00  0.00    +0.130 A 
ATOM     26  C   UNL     1       9.420   7.109   2.886  0.00  0.00    +0.016 A 
ATOM     27  C   UNL     1       8.743   8.214   3.390  0.00  0.00    +0.020 A 
ATOM     29  C   UNL     1       8.871   8.494   4.740  0.00  0.00    +0.113 A 
ATOM     33  H   UNL     1      11.206   4.945   5.670  0.00  0.00    +0.148 HD
BRANCH   7  28
ATOM     28  C   UNL     1      11.167   6.201   7.344  0.00  0.00    +0.131 C 
BRANCH  28  30
ATOM     30  C   UNL     1       9.927   5.734   8.088  0.00  0.00    +0.178 C 
BRANCH  30   2
ATOM      2  O   UNL     1      10.196   4.491   8.723  0.00  0.00    -0.381 OA
ATOM     31  C   UNL     1       9.417   4.329   9.899  0.00  0.00    +0.194 C 
ENDBRANCH  30   2
ENDBRANCH  28  30
ENDBRANCH   7  28
ENDBRANCH  19  22
BRANCH  14   9
ATOM      3  N   UNL     1      13.260   3.941  -0.139  0.00  0.00    -0.287 NA
ATOM      9  C   UNL     1      13.363   3.504   1.267  0.00  0.00    +0.146 C 
ATOM     10  C   UNL     1      14.767   3.952   1.714  0.00  0.00    +0.030 C 
ATOM     11  C   UNL     1      14.623   3.954  -0.669  0.00  0.00    +0.085 C 
ATOM     12  C   UNL     1      15.398   4.574   0.476  0.00  0.00    +0.017 C 
BRANCH   3  13
ATOM     13  C   UNL     1      12.370   3.105  -0.936  0.00  0.00    +0.122 C 
BRANCH  13  15
ATOM      5  N   UNL     1       9.593   5.384  -1.731  0.00  0.00    -0.360 N 
ATOM     15  C   UNL     1      11.224   3.895  -1.510  0.00  0.00    -0.008 A 
ATOM     16  C   UNL     1      10.623   3.711  -2.786  0.00  0.00    +0.004 A 
ATOM     17  C   UNL     1      10.569   4.931  -0.885  0.00  0.00    +0.088 A 
ATOM     18  C   UNL     1       9.603   4.658  -2.900  0.00  0.00    +0.047 A 
ATOM     20  C   UNL     1      10.849   2.826  -3.859  0.00  0.00    +0.010 A 
ATOM     21  C   UNL     1       8.794   4.764  -4.037  0.00  0.00    +0.026 A 
ATOM     23  C   UNL     1      10.048   2.921  -5.004  0.00  0.00    +0.001 A 
ATOM     24  C   UNL     1       9.038   3.875  -5.089  0.00  0.00    +0.002 A 
ATOM     32  H   UNL     1       8.957   6.144  -1.528  0.00  0.00    +0.165 HD
ENDBRANCH  13  15
ENDBRANCH   3  13
ENDBRANCH  14   9
TORSDOF 7
ENDMDL
MODEL 6
REMARK VINA RESULT:      -6.2      2.004      5.425
REMARK  Name = 45783382
REMARK  8 active torsions:
REMARK  status: ('A' for Active; 'I' for Inactive)
REMARK    1  A    between atoms: O_2  and  C_30
REMARK    2  A    between atoms: O_2  and  C_31
REMARK    3  A    between atoms: N_3  and  C_13
REMARK    4  A    between atoms: N_7  and  C_28
REMARK    5  A    between atoms: C_9  and  C_14
REMARK    6  A    between atoms: C_13  and  C_15
REMARK    7  A    between atoms: C_19  and  C_22
REMARK    8  A    between atoms: C_28  and  C_30
REMARK                            x       y       z     vdW  Elec       q    Type
REMARK                         _______ _______ _______ _____ _____    ______ ____
ROOT
ATOM      1  O   UNL     1      15.090  12.001  20.071  0.00  0.00    -0.336 OA
ATOM      4  N   UNL     1      14.839  10.473  21.689  0.00  0.00    -0.190 NA
ATOM      6  N   UNL     1      13.842  11.403  19.852  0.00  0.00    -0.056 NA
ATOM     14  C   UNL     1      15.609  11.395  21.171  0.00  0.00    +0.245 A 
ATOM     19  C   UNL     1      13.766  10.513  20.846  0.00  0.00    +0.205 A 
ENDROOT
BRANCH  19  22
ATOM      7  N   UNL     1      12.711   8.961  18.715  0.00  0.00    -0.326 N 
ATOM      8  N   UNL     1      11.043   8.063  20.134  0.00  0.00    -0.240 NA
ATOM     22  C   UNL     1      12.635   9.649  21.024  0.00  0.00    +0.062 A 
ATOM     25  C   UNL     1      12.107   8.885  19.996  0.00  0.00    +0.130 A 
ATOM     26  C   UNL     1      12.033   9.564  22.274  0.00  0.00    +0.016 A 
ATOM     27  C   UNL     1      10.936   8.729  22.455  0.00  0.00    +0.020 A 
ATOM     29  C   UNL     1      10.483   8.006  21.364  0.00  0.00    +0.113 A 
ATOM     33  H   UNL     1      13.231   9.809  18.516  0.00  0.00    +0.148 HD
BRANCH   7  28
ATOM     28  C   UNL     1      12.237   8.213  17.596  0.00  0.00    +0.131 C 
BRANCH  28  30
ATOM     30  C   UNL     1      12.025   9.134  16.407  0.00  0.00    +0.178 C 
BRANCH  30   2
ATOM      2  O   UNL     1      12.856   8.718  15.331  0.00  0.00    -0.381 OA
ATOM     31  C   UNL     1      14.220   9.031  15.574  0.00  0.00    +0.194 C 
ENDBRANCH  30   2
ENDBRANCH  28  30
ENDBRANCH   7  28
ENDBRANCH  19  22
BRANCH  14   9
ATOM      3  N   UNL     1      18.056  10.947  21.236  0.00  0.00    -0.287 NA
ATOM      9  C   UNL     1      16.973  11.873  21.624  0.00  0.00    +0.146 C 
ATOM     10  C   UNL     1      17.369  13.222  20.995  0.00  0.00    +0.030 C 
ATOM     11  C   UNL     1      19.258  11.764  21.066  0.00  0.00    +0.085 C 
ATOM     12  C   UNL     1      18.714  12.971  20.330  0.00  0.00    +0.017 C 
BRANCH   3  13
ATOM     13  C   UNL     1      18.258   9.867  22.194  0.00  0.00    +0.122 C 
BRANCH  13  15
ATOM      5  N   UNL     1      19.790   6.811  20.832  0.00  0.00    -0.360 N 
ATOM     15  C   UNL     1      18.629   8.576  21.513  0.00  0.00    -0.008 A 
ATOM     16  C   UNL     1      17.789   7.785  20.681  0.00  0.00    +0.004 A 
ATOM     17  C   UNL     1      19.853   7.952  21.586  0.00  0.00    +0.088 A 
ATOM     18  C   UNL     1      18.541   6.683  20.267  0.00  0.00    +0.047 A 
ATOM     20  C   UNL     1      16.456   7.901  20.238  0.00  0.00    +0.010 A 
ATOM     21  C   UNL     1      18.025   5.688  19.430  0.00  0.00    +0.026 A 
ATOM     23  C   UNL     1      15.927   6.912  19.400  0.00  0.00    +0.001 A 
ATOM     24  C   UNL     1      16.700   5.825  19.004  0.00  0.00    +0.002 A 
ATOM     32  H   UNL     1      20.550   6.155  20.708  0.00  0.00    +0.165 HD
ENDBRANCH  13  15
ENDBRANCH   3  13
ENDBRANCH  14   9
TORSDOF 7
ENDMDL
MODEL 7
REMARK VINA RESULT:      -6.2      2.229      5.255
REMARK  Name = 45783382
REMARK  8 active torsions:
REMARK  status: ('A' for Active; 'I' for Inactive)
REMARK    1  A    between atoms: O_2  and  C_30
REMARK    2  A    between atoms: O_2  and  C_31
REMARK    3  A    between atoms: N_3  and  C_13
REMARK    4  A    between atoms: N_7  and  C_28
REMARK    5  A    between atoms: C_9  and  C_14
REMARK    6  A    between atoms: C_13  and  C_15
REMARK    7  A    between atoms: C_19  and  C_22
REMARK    8  A    between atoms: C_28  and  C_30
REMARK                            x       y       z     vdW  Elec       q    Type
REMARK                         _______ _______ _______ _____ _____    ______ ____
ROOT
ATOM      1  O   UNL     1      14.570   6.575  20.672  0.00  0.00    -0.336 OA
ATOM      4  N   UNL     1      16.138   7.458  19.339  0.00  0.00    -0.190 NA
ATOM      6  N   UNL     1      15.800   6.298  21.282  0.00  0.00    -0.056 NA
ATOM     14  C   UNL     1      14.860   7.260  19.535  0.00  0.00    +0.245 A 
ATOM     19  C   UNL     1      16.676   6.849  20.436  0.00  0.00    +0.205 A 
ENDROOT
BRANCH  19  22
ATOM      7  N   UNL     1      18.066   8.999  21.666  0.00  0.00    -0.326 N 
ATOM      8  N   UNL     1      20.121   7.839  21.476  0.00  0.00    -0.240 NA
ATOM     22  C   UNL     1      18.093   6.809  20.657  0.00  0.00    +0.062 A 
ATOM     25  C   UNL     1      18.787   7.848  21.255  0.00  0.00    +0.130 A 
ATOM     26  C   UNL     1      18.813   5.688  20.260  0.00  0.00    +0.016 A 
ATOM     27  C   UNL     1      20.186   5.642  20.470  0.00  0.00    +0.020 A 
ATOM     29  C   UNL     1      20.787   6.732  21.077  0.00  0.00    +0.113 A 
ATOM     33  H   UNL     1      17.188   9.170  21.188  0.00  0.00    +0.148 HD
BRANCH   7  28
ATOM     28  C   UNL     1      18.695  10.117  22.289  0.00  0.00    +0.131 C 
BRANCH  28  30
ATOM     30  C   UNL     1      18.232  11.406  21.631  0.00  0.00    +0.178 C 
BRANCH  30   2
ATOM      2  O   UNL     1      17.401  12.126  22.532  0.00  0.00    -0.381 OA
ATOM     31  C   UNL     1      18.059  12.370  23.766  0.00  0.00    +0.194 C 
ENDBRANCH  30   2
ENDBRANCH  28  30
ENDBRANCH   7  28
ENDBRANCH  19  22
BRANCH  14   9
ATOM      3  N   UNL     1      13.310   9.099  18.893  0.00  0.00    -0.287 NA
ATOM      9  C   UNL     1      13.680   7.685  18.685  0.00  0.00    +0.146 C 
ATOM     10  C   UNL     1      13.966   7.573  17.176  0.00  0.00    +0.030 C 
ATOM     11  C   UNL     1      12.731   9.564  17.632  0.00  0.00    +0.085 C 
ATOM     12  C   UNL     1      13.671   8.955  16.612  0.00  0.00    +0.017 C 
BRANCH   3  13
ATOM     13  C   UNL     1      12.406   9.297  20.018  0.00  0.00    +0.122 C 
BRANCH  13  15
ATOM      5  N   UNL     1      14.587  11.107  22.364  0.00  0.00    -0.360 N 
ATOM     15  C   UNL     1      13.059  10.070  21.133  0.00  0.00    -0.008 A 
ATOM     16  C   UNL     1      12.422  10.575  22.300  0.00  0.00    +0.004 A 
ATOM     17  C   UNL     1      14.389  10.413  21.201  0.00  0.00    +0.088 A 
ATOM     18  C   UNL     1      13.402  11.222  23.055  0.00  0.00    +0.047 A 
ATOM     20  C   UNL     1      11.100  10.544  22.789  0.00  0.00    +0.010 A 
ATOM     21  C   UNL     1      13.127  11.841  24.280  0.00  0.00    +0.026 A 
ATOM     23  C   UNL     1      10.810  11.160  24.012  0.00  0.00    +0.001 A 
ATOM     24  C   UNL     1      11.808  11.798  24.743  0.00  0.00    +0.002 A 
ATOM     32  H   UNL     1      15.474  11.484  22.671  0.00  0.00    +0.165 HD
ENDBRANCH  13  15
ENDBRANCH   3  13
ENDBRANCH  14   9
TORSDOF 7
ENDMDL
MODEL 8
REMARK VINA RESULT:      -6.1     13.318     17.907
REMARK  Name = 45783382
REMARK  8 active torsions:
REMARK  status: ('A' for Active; 'I' for Inactive)
REMARK    1  A    between atoms: O_2  and  C_30
REMARK    2  A    between atoms: O_2  and  C_31
REMARK    3  A    between atoms: N_3  and  C_13
REMARK    4  A    between atoms: N_7  and  C_28
REMARK    5  A    between atoms: C_9  and  C_14
REMARK    6  A    between atoms: C_13  and  C_15
REMARK    7  A    between atoms: C_19  and  C_22
REMARK    8  A    between atoms: C_28  and  C_30
REMARK                            x       y       z     vdW  Elec       q    Type
REMARK                         _______ _______ _______ _____ _____    ______ ____
ROOT
ATOM      1  O   UNL     1      11.666   6.046   3.974  0.00  0.00    -0.336 OA
ATOM      4  N   UNL     1      10.173   4.558   4.730  0.00  0.00    -0.190 NA
ATOM      6  N   UNL     1      11.448   6.362   5.322  0.00  0.00    -0.056 NA
ATOM     14  C   UNL     1      10.877   4.973   3.708  0.00  0.00    +0.245 A 
ATOM     19  C   UNL     1      10.556   5.441   5.697  0.00  0.00    +0.205 A 
ENDROOT
BRANCH  19  22
ATOM      7  N   UNL     1       9.643   7.756   7.066  0.00  0.00    -0.326 N 
ATOM      8  N   UNL     1       9.075   6.465   8.966  0.00  0.00    -0.240 NA
ATOM     22  C   UNL     1      10.027   5.376   7.029  0.00  0.00    +0.062 A 
ATOM     25  C   UNL     1       9.578   6.495   7.711  0.00  0.00    +0.130 A 
ATOM     26  C   UNL     1       9.956   4.147   7.675  0.00  0.00    +0.016 A 
ATOM     27  C   UNL     1       9.444   4.076   8.966  0.00  0.00    +0.020 A 
ATOM     29  C   UNL     1       9.021   5.252   9.562  0.00  0.00    +0.113 A 
ATOM     33  H   UNL     1      10.330   7.842   6.324  0.00  0.00    +0.148 HD
BRANCH   7  28
ATOM     28  C   UNL     1       9.206   8.962   7.689  0.00  0.00    +0.131 C 
BRANCH  28  30
ATOM     30  C   UNL     1      10.405   9.793   8.113  0.00  0.00    +0.178 C 
BRANCH  30   2
ATOM      2  O   UNL     1      10.478  10.964   7.310  0.00  0.00    -0.381 OA
ATOM     31  C   UNL     1      11.356  10.786   6.208  0.00  0.00    +0.194 C 
ENDBRANCH  30   2
ENDBRANCH  28  30
ENDBRANCH   7  28
ENDBRANCH  19  22
BRANCH  14   9
ATOM      3  N   UNL     1      11.206   5.477   1.293  0.00  0.00    -0.287 NA
ATOM      9  C   UNL     1      10.933   4.428   2.295  0.00  0.00    +0.146 C 
ATOM     10  C   UNL     1      12.061   3.398   2.101  0.00  0.00    +0.030 C 
ATOM     11  C   UNL     1      11.911   4.822   0.191  0.00  0.00    +0.085 C 
ATOM     12  C   UNL     1      12.880   3.922   0.930  0.00  0.00    +0.017 C 
BRANCH   3  13
ATOM     13  C   UNL     1      10.004   6.168   0.842  0.00  0.00    +0.122 C 
BRANCH  13  15
ATOM      5  N   UNL     1      10.459   9.792   1.284  0.00  0.00    -0.360 N 
ATOM     15  C   UNL     1      10.008   7.619   1.242  0.00  0.00    -0.008 A 
ATOM     16  C   UNL     1       9.284   8.204   2.318  0.00  0.00    +0.004 A 
ATOM     17  C   UNL     1      10.722   8.621   0.625  0.00  0.00    +0.088 A 
ATOM     18  C   UNL     1       9.583   9.567   2.322  0.00  0.00    +0.047 A 
ATOM     20  C   UNL     1       8.399   7.701   3.293  0.00  0.00    +0.010 A 
ATOM     21  C   UNL     1       9.042  10.457   3.256  0.00  0.00    +0.026 A 
ATOM     23  C   UNL     1       7.848   8.580   4.233  0.00  0.00    +0.001 A 
ATOM     24  C   UNL     1       8.166   9.936   4.213  0.00  0.00    +0.002 A 
ATOM     32  H   UNL     1      10.849  10.693   1.042  0.00  0.00    +0.165 HD
ENDBRANCH  13  15
ENDBRANCH   3  13
ENDBRANCH  14   9
TORSDOF 7
ENDMDL
MODEL 9
REMARK VINA RESULT:      -6.1     27.407     29.600
REMARK  Name = 45783382
REMARK  8 active torsions:
REMARK  status: ('A' for Active; 'I' for Inactive)
REMARK    1  A    between atoms: O_2  and  C_30
REMARK    2  A    between atoms: O_2  and  C_31
REMARK    3  A    between atoms: N_3  and  C_13
REMARK    4  A    between atoms: N_7  and  C_28
REMARK    5  A    between atoms: C_9  and  C_14
REMARK    6  A    between atoms: C_13  and  C_15
REMARK    7  A    between atoms: C_19  and  C_22
REMARK    8  A    between atoms: C_28  and  C_30
REMARK                            x       y       z     vdW  Elec       q    Type
REMARK                         _______ _______ _______ _____ _____    ______ ____
ROOT
ATOM      1  O   UNL     1      -7.606  -9.821  11.939  0.00  0.00    -0.336 OA
ATOM      4  N   UNL     1      -5.625  -9.435  12.910  0.00  0.00    -0.190 NA
ATOM      6  N   UNL     1      -7.756 -10.177  13.286  0.00  0.00    -0.056 NA
ATOM     14  C   UNL     1      -6.323  -9.395  11.804  0.00  0.00    +0.245 A 
ATOM     19  C   UNL     1      -6.545  -9.922  13.792  0.00  0.00    +0.205 A 
ENDROOT
BRANCH  19  22
ATOM      7  N   UNL     1      -8.214  -8.988  15.892  0.00  0.00    -0.326 N 
ATOM      8  N   UNL     1      -6.748  -9.887  17.519  0.00  0.00    -0.240 NA
ATOM     22  C   UNL     1      -6.224 -10.142  15.173  0.00  0.00    +0.062 A 
ATOM     25  C   UNL     1      -7.025  -9.694  16.209  0.00  0.00    +0.130 A 
ATOM     26  C   UNL     1      -5.061 -10.833  15.499  0.00  0.00    +0.016 A 
ATOM     27  C   UNL     1      -4.743 -11.051  16.835  0.00  0.00    +0.020 A 
ATOM     29  C   UNL     1      -5.610 -10.562  17.798  0.00  0.00    +0.113 A 
ATOM     33  H   UNL     1      -8.233  -8.531  14.987  0.00  0.00    +0.148 HD
BRANCH   7  28
ATOM     28  C   UNL     1      -9.101  -8.489  16.891  0.00  0.00    +0.131 C 
BRANCH  28  30
ATOM     30  C   UNL     1     -10.035  -7.454  16.286  0.00  0.00    +0.178 C 
BRANCH  30   2
ATOM      2  O   UNL     1     -11.252  -7.427  17.021  0.00  0.00    -0.381 OA
ATOM     31  C   UNL     1     -11.699  -8.737  17.338  0.00  0.00    +0.194 C 
ENDBRANCH  30   2
ENDBRANCH  28  30
ENDBRANCH   7  28
ENDBRANCH  19  22
BRANCH  14   9
ATOM      3  N   UNL     1      -5.235 -10.015   9.653  0.00  0.00    -0.287 NA
ATOM      9  C   UNL     1      -5.904  -8.945  10.419  0.00  0.00    +0.146 C 
ATOM     10  C   UNL     1      -7.100  -8.526   9.545  0.00  0.00    +0.030 C 
ATOM     11  C   UNL     1      -5.520  -9.752   8.242  0.00  0.00    +0.085 C 
ATOM     12  C   UNL     1      -6.985  -9.370   8.283  0.00  0.00    +0.017 C 
BRANCH   3  13
ATOM     13  C   UNL     1      -3.805 -10.104   9.917  0.00  0.00    +0.122 C 
BRANCH  13  15
ATOM      5  N   UNL     1      -3.244 -13.450  11.341  0.00  0.00    -0.360 N 
ATOM     15  C   UNL     1      -3.458 -11.330  10.718  0.00  0.00    -0.008 A 
ATOM     16  C   UNL     1      -2.818 -11.359  11.989  0.00  0.00    +0.004 A 
ATOM     17  C   UNL     1      -3.707 -12.630  10.346  0.00  0.00    +0.088 A 
ATOM     18  C   UNL     1      -2.695 -12.700  12.357  0.00  0.00    +0.047 A 
ATOM     20  C   UNL     1      -2.330 -10.368  12.865  0.00  0.00    +0.010 A 
ATOM     21  C   UNL     1      -2.108 -13.103  13.561  0.00  0.00    +0.026 A 
ATOM     23  C   UNL     1      -1.739 -10.757  14.073  0.00  0.00    +0.001 A 
ATOM     24  C   UNL     1      -1.630 -12.103  14.413  0.00  0.00    +0.002 A 
ATOM     32  H   UNL     1      -3.295 -14.460  11.330  0.00  0.00    +0.165 HD
ENDBRANCH  13  15
ENDBRANCH   3  13
ENDBRANCH  14   9
TORSDOF 7
ENDMDL
MODEL 10
REMARK VINA RESULT:      -6.1     27.682     30.219
REMARK  Name = 45783382
REMARK  8 active torsions:
REMARK  status: ('A' for Active; 'I' for Inactive)
REMARK    1  A    between atoms: O_2  and  C_30
REMARK    2  A    between atoms: O_2  and  C_31
REMARK    3  A    between atoms: N_3  and  C_13
REMARK    4  A    between atoms: N_7  and  C_28
REMARK    5  A    between atoms: C_9  and  C_14
REMARK    6  A    between atoms: C_13  and  C_15
REMARK    7  A    between atoms: C_19  and  C_22
REMARK    8  A    between atoms: C_28  and  C_30
REMARK                            x       y       z     vdW  Elec       q    Type
REMARK                         _______ _______ _______ _____ _____    ______ ____
ROOT
ATOM      1  O   UNL     1      -6.907  -9.378  16.811  0.00  0.00    -0.336 OA
ATOM      4  N   UNL     1      -8.038 -11.100  17.687  0.00  0.00    -0.190 NA
ATOM      6  N   UNL     1      -8.138  -8.860  17.233  0.00  0.00    -0.056 NA
ATOM     14  C   UNL     1      -6.931 -10.702  17.116  0.00  0.00    +0.245 A 
ATOM     19  C   UNL     1      -8.750  -9.936  17.738  0.00  0.00    +0.205 A 
ENDROOT
BRANCH  19  22
ATOM      7  N   UNL     1     -11.004  -9.144  16.203  0.00  0.00    -0.326 N 
ATOM      8  N   UNL     1     -12.433  -9.438  18.067  0.00  0.00    -0.240 NA
ATOM     22  C   UNL     1     -10.069  -9.882  18.299  0.00  0.00    +0.062 A 
ATOM     25  C   UNL     1     -11.179  -9.498  17.566  0.00  0.00    +0.130 A 
ATOM     26  C   UNL     1     -10.256 -10.227  19.633  0.00  0.00    +0.016 A 
ATOM     27  C   UNL     1     -11.532 -10.177  20.184  0.00  0.00    +0.020 A 
ATOM     29  C   UNL     1     -12.577  -9.780  19.367  0.00  0.00    +0.113 A 
ATOM     33  H   UNL     1     -10.075  -8.833  15.939  0.00  0.00    +0.148 HD
BRANCH   7  28
ATOM     28  C   UNL     1     -12.087  -8.735  15.370  0.00  0.00    +0.131 C 
BRANCH  28  30
ATOM     30  C   UNL     1     -11.579  -7.821  14.268  0.00  0.00    +0.178 C 
BRANCH  30   2
ATOM      2  O   UNL     1     -11.546  -6.481  14.742  0.00  0.00    -0.381 OA
ATOM     31  C   UNL     1     -12.741  -6.143  15.431  0.00  0.00    +0.194 C 
ENDBRANCH  30   2
ENDBRANCH  28  30
ENDBRANCH   7  28
ENDBRANCH  19  22
BRANCH  14   9
ATOM      3  N   UNL     1      -5.018 -10.985  15.550  0.00  0.00    -0.287 NA
ATOM      9  C   UNL     1      -5.695 -11.500  16.757  0.00  0.00    +0.146 C 
ATOM     10  C   UNL     1      -4.619 -11.455  17.858  0.00  0.00    +0.030 C 
ATOM     11  C   UNL     1      -3.598 -11.302  15.705  0.00  0.00    +0.085 C 
ATOM     12  C   UNL     1      -3.358 -10.962  17.162  0.00  0.00    +0.017 C 
BRANCH   3  13
ATOM     13  C   UNL     1      -5.567 -11.520  14.310  0.00  0.00    +0.122 C 
BRANCH  13  15
ATOM      5  N   UNL     1      -6.640  -8.785  12.096  0.00  0.00    -0.360 N 
ATOM     15  C   UNL     1      -5.756 -10.448  13.272  0.00  0.00    -0.008 A 
ATOM     16  C   UNL     1      -4.848 -10.107  12.229  0.00  0.00    +0.004 A 
ATOM     17  C   UNL     1      -6.847  -9.617  13.163  0.00  0.00    +0.088 A 
ATOM     18  C   UNL     1      -5.427  -9.062  11.507  0.00  0.00    +0.047 A 
ATOM     20  C   UNL     1      -3.587 -10.591  11.830  0.00  0.00    +0.010 A 
ATOM     21  C   UNL     1      -4.805  -8.474  10.400  0.00  0.00    +0.026 A 
ATOM     23  C   UNL     1      -2.952 -10.011  10.725  0.00  0.00    +0.001 A 
ATOM     24  C   UNL     1      -3.553  -8.970  10.023  0.00  0.00    +0.002 A 
ATOM     32  H   UNL     1      -7.283  -8.070  11.785  0.00  0.00    +0.165 HD
ENDBRANCH  13  15
ENDBRANCH   3  13
ENDBRANCH  14   9
TORSDOF 7
ENDMDL
