MODEL 1
REMARK VINA RESULT:      -5.9      0.000      0.000
REMARK  Name = 45783486
REMARK  10 active torsions:
REMARK  status: ('A' for Active; 'I' for Inactive)
REMARK    1  A    between atoms: O_2  and  C_23
REMARK    2  A    between atoms: O_2  and  C_24
REMARK    3  A    between atoms: N_3  and  C_12
REMARK    4  A    between atoms: N_7  and  C_21
REMARK    5  A    between atoms: N_7  and  C_22
REMARK    6  A    between atoms: C_8  and  C_13
REMARK    7  A    between atoms: C_12  and  C_14
REMARK    8  A    between atoms: C_14  and  C_15
REMARK    9  A    between atoms: C_16  and  C_17
REMARK   10  A    between atoms: C_22  and  C_23
REMARK                            x       y       z     vdW  Elec       q    Type
REMARK                         _______ _______ _______ _____ _____    ______ ____
ROOT
ATOM      1  O   UNL     1      11.454   6.493   4.965  0.00  0.00    -0.336 OA
ATOM      4  N   UNL     1      10.131   5.041   3.889  0.00  0.00    -0.190 NA
ATOM      5  N   UNL     1      12.140   6.131   3.800  0.00  0.00    -0.056 NA
ATOM     13  C   UNL     1      10.281   5.807   4.940  0.00  0.00    +0.245 A 
ATOM     16  C   UNL     1      11.296   5.273   3.219  0.00  0.00    +0.204 A 
ENDROOT
BRANCH  16  17
ATOM      6  N   UNL     1      10.840   3.943  -0.224  0.00  0.00    -0.240 NA
ATOM     17  C   UNL     1      11.587   4.630   1.970  0.00  0.00    +0.041 A 
ATOM     18  C   UNL     1      12.841   4.080   1.723  0.00  0.00    +0.016 A 
ATOM     19  C   UNL     1      10.631   4.536   0.973  0.00  0.00    +0.124 A 
ATOM     20  C   UNL     1      13.095   3.462   0.504  0.00  0.00    +0.044 A 
ATOM     21  C   UNL     1      12.071   3.420  -0.428  0.00  0.00    +0.119 A 
BRANCH  21   7
ATOM      7  N   UNL     1      12.345   2.788  -1.666  0.00  0.00    -0.327 N 
ATOM     25  H   UNL     1      12.592   1.806  -1.627  0.00  0.00    +0.148 HD
BRANCH   7  22
ATOM     22  C   UNL     1      12.287   3.480  -2.913  0.00  0.00    +0.131 C 
BRANCH  22  23
ATOM     23  C   UNL     1      11.269   2.820  -3.827  0.00  0.00    +0.178 C 
BRANCH  23   2
ATOM      2  O   UNL     1       9.987   2.860  -3.213  0.00  0.00    -0.381 OA
ATOM     24  C   UNL     1       9.306   4.071  -3.510  0.00  0.00    +0.194 C 
ENDBRANCH  23   2
ENDBRANCH  22  23
ENDBRANCH   7  22
ENDBRANCH  21   7
ENDBRANCH  16  17
BRANCH  13   8
ATOM      3  N   UNL     1      10.011   6.675   7.257  0.00  0.00    -0.291 NA
ATOM      8  C   UNL     1       9.344   6.029   6.109  0.00  0.00    +0.146 C 
ATOM      9  C   UNL     1       8.170   6.963   5.761  0.00  0.00    +0.030 C 
ATOM     10  C   UNL     1       8.980   7.441   7.956  0.00  0.00    +0.085 C 
ATOM     11  C   UNL     1       8.222   8.070   6.805  0.00  0.00    +0.017 C 
BRANCH   3  12
ATOM     12  C   UNL     1      10.683   5.728   8.138  0.00  0.00    +0.085 C 
BRANCH  12  14
ATOM     14  C   UNL     1       9.758   4.556   8.460  0.00  0.00    +0.012 C 
ATOM     15  C   UNL     1       9.373   4.543   9.930  0.00  0.00    +0.005 C 
ENDBRANCH  12  14
ENDBRANCH   3  12
ENDBRANCH  13   8
TORSDOF 8
ENDMDL
MODEL 2
REMARK VINA RESULT:      -5.8     16.821     19.525
REMARK  Name = 45783486
REMARK  10 active torsions:
REMARK  status: ('A' for Active; 'I' for Inactive)
REMARK    1  A    between atoms: O_2  and  C_23
REMARK    2  A    between atoms: O_2  and  C_24
REMARK    3  A    between atoms: N_3  and  C_12
REMARK    4  A    between atoms: N_7  and  C_21
REMARK    5  A    between atoms: N_7  and  C_22
REMARK    6  A    between atoms: C_8  and  C_13
REMARK    7  A    between atoms: C_12  and  C_14
REMARK    8  A    between atoms: C_14  and  C_15
REMARK    9  A    between atoms: C_16  and  C_17
REMARK   10  A    between atoms: C_22  and  C_23
REMARK                            x       y       z     vdW  Elec       q    Type
REMARK                         _______ _______ _______ _____ _____    ______ ____
ROOT
ATOM      1  O   UNL     1      14.954   8.419  20.370  0.00  0.00    -0.336 OA
ATOM      4  N   UNL     1      15.441   6.308  19.804  0.00  0.00    -0.190 NA
ATOM      5  N   UNL     1      16.324   8.259  20.610  0.00  0.00    -0.056 NA
ATOM     13  C   UNL     1      14.512   7.225  19.897  0.00  0.00    +0.245 A 
ATOM     16  C   UNL     1      16.535   6.989  20.251  0.00  0.00    +0.204 A 
ENDROOT
BRANCH  16  17
ATOM      6  N   UNL     1      19.324   4.614  19.609  0.00  0.00    -0.240 NA
ATOM     17  C   UNL     1      17.827   6.370  20.331  0.00  0.00    +0.041 A 
ATOM     18  C   UNL     1      18.816   6.879  21.166  0.00  0.00    +0.016 A 
ATOM     19  C   UNL     1      18.129   5.245  19.580  0.00  0.00    +0.124 A 
ATOM     20  C   UNL     1      20.058   6.258  21.223  0.00  0.00    +0.044 A 
ATOM     21  C   UNL     1      20.260   5.139  20.432  0.00  0.00    +0.119 A 
BRANCH  21   7
ATOM      7  N   UNL     1      21.532   4.517  20.500  0.00  0.00    -0.327 N 
ATOM     25  H   UNL     1      22.017   4.383  19.620  0.00  0.00    +0.148 HD
BRANCH   7  22
ATOM     22  C   UNL     1      22.115   4.089  21.730  0.00  0.00    +0.131 C 
BRANCH  22  23
ATOM     23  C   UNL     1      23.468   3.448  21.469  0.00  0.00    +0.178 C 
BRANCH  23   2
ATOM      2  O   UNL     1      23.281   2.194  20.826  0.00  0.00    -0.381 OA
ATOM     24  C   UNL     1      24.270   1.254  21.220  0.00  0.00    +0.194 C 
ENDBRANCH  23   2
ENDBRANCH  22  23
ENDBRANCH   7  22
ENDBRANCH  21   7
ENDBRANCH  16  17
BRANCH  13   8
ATOM      3  N   UNL     1      12.216   8.074  20.348  0.00  0.00    -0.291 NA
ATOM      8  C   UNL     1      13.039   7.137  19.556  0.00  0.00    +0.146 C 
ATOM      9  C   UNL     1      12.745   7.501  18.089  0.00  0.00    +0.030 C 
ATOM     10  C   UNL     1      11.062   8.415  19.515  0.00  0.00    +0.085 C 
ATOM     11  C   UNL     1      11.702   8.608  18.156  0.00  0.00    +0.017 C 
BRANCH   3  12
ATOM     12  C   UNL     1      11.819   7.537  21.642  0.00  0.00    +0.085 C 
BRANCH  12  14
ATOM     14  C   UNL     1      10.627   8.314  22.196  0.00  0.00    +0.012 C 
ATOM     15  C   UNL     1      11.069   9.605  22.865  0.00  0.00    +0.005 C 
ENDBRANCH  12  14
ENDBRANCH   3  12
ENDBRANCH  13   8
TORSDOF 8
ENDMDL
MODEL 3
REMARK VINA RESULT:      -5.8     17.465     20.999
REMARK  Name = 45783486
REMARK  10 active torsions:
REMARK  status: ('A' for Active; 'I' for Inactive)
REMARK    1  A    between atoms: O_2  and  C_23
REMARK    2  A    between atoms: O_2  and  C_24
REMARK    3  A    between atoms: N_3  and  C_12
REMARK    4  A    between atoms: N_7  and  C_21
REMARK    5  A    between atoms: N_7  and  C_22
REMARK    6  A    between atoms: C_8  and  C_13
REMARK    7  A    between atoms: C_12  and  C_14
REMARK    8  A    between atoms: C_14  and  C_15
REMARK    9  A    between atoms: C_16  and  C_17
REMARK   10  A    between atoms: C_22  and  C_23
REMARK                            x       y       z     vdW  Elec       q    Type
REMARK                         _______ _______ _______ _____ _____    ______ ____
ROOT
ATOM      1  O   UNL     1      22.147   6.585  21.241  0.00  0.00    -0.336 OA
ATOM      4  N   UNL     1      20.744   4.869  20.924  0.00  0.00    -0.190 NA
ATOM      5  N   UNL     1      20.908   7.150  20.918  0.00  0.00    -0.056 NA
ATOM     13  C   UNL     1      21.963   5.239  21.223  0.00  0.00    +0.245 A 
ATOM     16  C   UNL     1      20.133   6.075  20.747  0.00  0.00    +0.204 A 
ENDROOT
BRANCH  16  17
ATOM      6  N   UNL     1      16.964   5.639  18.850  0.00  0.00    -0.240 NA
ATOM     17  C   UNL     1      18.746   6.172  20.395  0.00  0.00    +0.041 A 
ATOM     18  C   UNL     1      17.848   6.862  21.204  0.00  0.00    +0.016 A 
ATOM     19  C   UNL     1      18.257   5.584  19.240  0.00  0.00    +0.124 A 
ATOM     20  C   UNL     1      16.510   6.940  20.837  0.00  0.00    +0.044 A 
ATOM     21  C   UNL     1      16.121   6.318  19.662  0.00  0.00    +0.119 A 
BRANCH  21   7
ATOM      7  N   UNL     1      14.753   6.406  19.302  0.00  0.00    -0.327 N 
ATOM     25  H   UNL     1      14.498   6.024  18.398  0.00  0.00    +0.148 HD
BRANCH   7  22
ATOM     22  C   UNL     1      13.770   7.000  20.149  0.00  0.00    +0.131 C 
BRANCH  22  23
ATOM     23  C   UNL     1      12.406   6.942  19.483  0.00  0.00    +0.178 C 
BRANCH  23   2
ATOM      2  O   UNL     1      11.392   6.949  20.480  0.00  0.00    -0.381 OA
ATOM     24  C   UNL     1      10.840   8.246  20.651  0.00  0.00    +0.194 C 
ENDBRANCH  23   2
ENDBRANCH  22  23
ENDBRANCH   7  22
ENDBRANCH  21   7
ENDBRANCH  16  17
BRANCH  13   8
ATOM      3  N   UNL     1      22.808   3.042  22.032  0.00  0.00    -0.291 NA
ATOM      8  C   UNL     1      23.174   4.387  21.544  0.00  0.00    +0.146 C 
ATOM      9  C   UNL     1      24.063   4.129  20.314  0.00  0.00    +0.030 C 
ATOM     10  C   UNL     1      23.898   2.150  21.639  0.00  0.00    +0.085 C 
ATOM     11  C   UNL     1      24.190   2.614  20.227  0.00  0.00    +0.017 C 
BRANCH   3  12
ATOM     12  C   UNL     1      22.556   3.001  23.467  0.00  0.00    +0.085 C 
BRANCH  12  14
ATOM     14  C   UNL     1      23.180   1.749  24.079  0.00  0.00    +0.012 C 
ATOM     15  C   UNL     1      22.223   1.069  25.045  0.00  0.00    +0.005 C 
ENDBRANCH  12  14
ENDBRANCH   3  12
ENDBRANCH  13   8
TORSDOF 8
ENDMDL
MODEL 4
REMARK VINA RESULT:      -5.8     17.484     21.107
REMARK  Name = 45783486
REMARK  10 active torsions:
REMARK  status: ('A' for Active; 'I' for Inactive)
REMARK    1  A    between atoms: O_2  and  C_23
REMARK    2  A    between atoms: O_2  and  C_24
REMARK    3  A    between atoms: N_3  and  C_12
REMARK    4  A    between atoms: N_7  and  C_21
REMARK    5  A    between atoms: N_7  and  C_22
REMARK    6  A    between atoms: C_8  and  C_13
REMARK    7  A    between atoms: C_12  and  C_14
REMARK    8  A    between atoms: C_14  and  C_15
REMARK    9  A    between atoms: C_16  and  C_17
REMARK   10  A    between atoms: C_22  and  C_23
REMARK                            x       y       z     vdW  Elec       q    Type
REMARK                         _______ _______ _______ _____ _____    ______ ____
ROOT
ATOM      1  O   UNL     1      21.152   5.823  23.163  0.00  0.00    -0.336 OA
ATOM      4  N   UNL     1      20.793   5.939  20.955  0.00  0.00    -0.190 NA
ATOM      5  N   UNL     1      19.830   6.255  23.006  0.00  0.00    -0.056 NA
ATOM     13  C   UNL     1      21.647   5.660  21.908  0.00  0.00    +0.245 A 
ATOM     16  C   UNL     1      19.693   6.298  21.677  0.00  0.00    +0.204 A 
ENDROOT
BRANCH  16  17
ATOM      6  N   UNL     1      16.617   8.244  20.916  0.00  0.00    -0.240 NA
ATOM     17  C   UNL     1      18.472   6.698  21.040  0.00  0.00    +0.041 A 
ATOM     18  C   UNL     1      17.952   5.978  19.969  0.00  0.00    +0.016 A 
ATOM     19  C   UNL     1      17.773   7.814  21.471  0.00  0.00    +0.124 A 
ATOM     20  C   UNL     1      16.766   6.389  19.373  0.00  0.00    +0.044 A 
ATOM     21  C   UNL     1      16.143   7.518  19.878  0.00  0.00    +0.119 A 
BRANCH  21   7
ATOM      7  N   UNL     1      14.936   7.926  19.258  0.00  0.00    -0.327 N 
ATOM     25  H   UNL     1      14.932   8.849  18.838  0.00  0.00    +0.148 HD
BRANCH   7  22
ATOM     22  C   UNL     1      13.773   7.099  19.219  0.00  0.00    +0.131 C 
BRANCH  22  23
ATOM     23  C   UNL     1      12.656   7.736  20.029  0.00  0.00    +0.178 C 
BRANCH  23   2
ATOM      2  O   UNL     1      11.683   6.749  20.351  0.00  0.00    -0.381 OA
ATOM     24  C   UNL     1      10.904   7.134  21.475  0.00  0.00    +0.194 C 
ENDBRANCH  23   2
ENDBRANCH  22  23
ENDBRANCH   7  22
ENDBRANCH  21   7
ENDBRANCH  16  17
BRANCH  13   8
ATOM      3  N   UNL     1      23.286   4.226  20.704  0.00  0.00    -0.291 NA
ATOM      8  C   UNL     1      23.083   5.191  21.803  0.00  0.00    +0.146 C 
ATOM      9  C   UNL     1      24.064   6.339  21.503  0.00  0.00    +0.030 C 
ATOM     10  C   UNL     1      24.669   4.394  20.257  0.00  0.00    +0.085 C 
ATOM     11  C   UNL     1      24.816   5.902  20.254  0.00  0.00    +0.017 C 
BRANCH   3  12
ATOM     12  C   UNL     1      22.997   2.850  21.087  0.00  0.00    +0.085 C 
BRANCH  12  14
ATOM     14  C   UNL     1      24.151   1.935  20.685  0.00  0.00    +0.012 C 
ATOM     15  C   UNL     1      24.475   0.935  21.785  0.00  0.00    +0.005 C 
ENDBRANCH  12  14
ENDBRANCH   3  12
ENDBRANCH  13   8
TORSDOF 8
ENDMDL
MODEL 5
REMARK VINA RESULT:      -5.7     16.759     19.957
REMARK  Name = 45783486
REMARK  10 active torsions:
REMARK  status: ('A' for Active; 'I' for Inactive)
REMARK    1  A    between atoms: O_2  and  C_23
REMARK    2  A    between atoms: O_2  and  C_24
REMARK    3  A    between atoms: N_3  and  C_12
REMARK    4  A    between atoms: N_7  and  C_21
REMARK    5  A    between atoms: N_7  and  C_22
REMARK    6  A    between atoms: C_8  and  C_13
REMARK    7  A    between atoms: C_12  and  C_14
REMARK    8  A    between atoms: C_14  and  C_15
REMARK    9  A    between atoms: C_16  and  C_17
REMARK   10  A    between atoms: C_22  and  C_23
REMARK                            x       y       z     vdW  Elec       q    Type
REMARK                         _______ _______ _______ _____ _____    ______ ____
ROOT
ATOM      1  O   UNL     1      16.143   5.942  18.275  0.00  0.00    -0.336 OA
ATOM      4  N   UNL     1      16.612   6.951  20.218  0.00  0.00    -0.190 NA
ATOM      5  N   UNL     1      17.427   5.516  18.635  0.00  0.00    -0.056 NA
ATOM     13  C   UNL     1      15.736   6.783  19.261  0.00  0.00    +0.245 A 
ATOM     16  C   UNL     1      17.632   6.153  19.792  0.00  0.00    +0.204 A 
ENDROOT
BRANCH  16  17
ATOM      6  N   UNL     1      20.986   4.928  20.830  0.00  0.00    -0.240 NA
ATOM     17  C   UNL     1      18.847   6.017  20.543  0.00  0.00    +0.041 A 
ATOM     18  C   UNL     1      19.082   6.793  21.673  0.00  0.00    +0.016 A 
ATOM     19  C   UNL     1      19.822   5.108  20.166  0.00  0.00    +0.124 A 
ATOM     20  C   UNL     1      20.268   6.638  22.381  0.00  0.00    +0.044 A 
ATOM     21  C   UNL     1      21.179   5.701  21.923  0.00  0.00    +0.119 A 
BRANCH  21   7
ATOM      7  N   UNL     1      22.384   5.555  22.655  0.00  0.00    -0.327 N 
ATOM     25  H   UNL     1      22.789   6.404  23.034  0.00  0.00    +0.148 HD
BRANCH   7  22
ATOM     22  C   UNL     1      23.015   4.291  22.855  0.00  0.00    +0.131 C 
BRANCH  22  23
ATOM     23  C   UNL     1      24.264   4.191  21.996  0.00  0.00    +0.178 C 
BRANCH  23   2
ATOM      2  O   UNL     1      24.026   3.293  20.919  0.00  0.00    -0.381 OA
ATOM     24  C   UNL     1      24.767   3.659  19.764  0.00  0.00    +0.194 C 
ENDBRANCH  23   2
ENDBRANCH  22  23
ENDBRANCH   7  22
ENDBRANCH  21   7
ENDBRANCH  16  17
BRANCH  13   8
ATOM      3  N   UNL     1      13.928   8.141  20.301  0.00  0.00    -0.291 NA
ATOM      8  C   UNL     1      14.356   7.389  19.104  0.00  0.00    +0.146 C 
ATOM      9  C   UNL     1      14.281   8.408  17.953  0.00  0.00    +0.030 C 
ATOM     10  C   UNL     1      13.027   9.192  19.827  0.00  0.00    +0.085 C 
ATOM     11  C   UNL     1      13.742   9.683  18.586  0.00  0.00    +0.017 C 
BRANCH   3  12
ATOM     12  C   UNL     1      13.306   7.301  21.316  0.00  0.00    +0.085 C 
BRANCH  12  14
ATOM     14  C   UNL     1      11.793   7.260  21.114  0.00  0.00    +0.012 C 
ATOM     15  C   UNL     1      11.219   5.908  21.506  0.00  0.00    +0.005 C 
ENDBRANCH  12  14
ENDBRANCH   3  12
ENDBRANCH  13   8
TORSDOF 8
ENDMDL
MODEL 6
REMARK VINA RESULT:      -5.6     16.582     19.606
REMARK  Name = 45783486
REMARK  10 active torsions:
REMARK  status: ('A' for Active; 'I' for Inactive)
REMARK    1  A    between atoms: O_2  and  C_23
REMARK    2  A    between atoms: O_2  and  C_24
REMARK    3  A    between atoms: N_3  and  C_12
REMARK    4  A    between atoms: N_7  and  C_21
REMARK    5  A    between atoms: N_7  and  C_22
REMARK    6  A    between atoms: C_8  and  C_13
REMARK    7  A    between atoms: C_12  and  C_14
REMARK    8  A    between atoms: C_14  and  C_15
REMARK    9  A    between atoms: C_16  and  C_17
REMARK   10  A    between atoms: C_22  and  C_23
REMARK                            x       y       z     vdW  Elec       q    Type
REMARK                         _______ _______ _______ _____ _____    ______ ____
ROOT
ATOM      1  O   UNL     1      15.359   9.896  21.622  0.00  0.00    -0.336 OA
ATOM      4  N   UNL     1      15.280   7.948  20.522  0.00  0.00    -0.190 NA
ATOM      5  N   UNL     1      16.659   9.378  21.655  0.00  0.00    -0.056 NA
ATOM     13  C   UNL     1      14.611   8.993  20.936  0.00  0.00    +0.245 A 
ATOM     16  C   UNL     1      16.532   8.228  20.985  0.00  0.00    +0.204 A 
ENDROOT
BRANCH  16  17
ATOM      6  N   UNL     1      18.529   5.400  19.630  0.00  0.00    -0.240 NA
ATOM     17  C   UNL     1      17.634   7.338  20.765  0.00  0.00    +0.041 A 
ATOM     18  C   UNL     1      18.842   7.514  21.432  0.00  0.00    +0.016 A 
ATOM     19  C   UNL     1      17.530   6.275  19.882  0.00  0.00    +0.124 A 
ATOM     20  C   UNL     1      19.893   6.635  21.198  0.00  0.00    +0.044 A 
ATOM     21  C   UNL     1      19.688   5.603  20.297  0.00  0.00    +0.119 A 
BRANCH  21   7
ATOM      7  N   UNL     1      20.769   4.716  20.069  0.00  0.00    -0.327 N 
ATOM     25  H   UNL     1      20.689   4.102  19.265  0.00  0.00    +0.148 HD
BRANCH   7  22
ATOM     22  C   UNL     1      21.917   4.666  20.915  0.00  0.00    +0.131 C 
BRANCH  22  23
ATOM     23  C   UNL     1      22.003   3.312  21.597  0.00  0.00    +0.178 C 
BRANCH  23   2
ATOM      2  O   UNL     1      23.368   2.975  21.812  0.00  0.00    -0.381 OA
ATOM     24  C   UNL     1      23.807   1.978  20.901  0.00  0.00    +0.194 C 
ENDBRANCH  23   2
ENDBRANCH  22  23
ENDBRANCH   7  22
ENDBRANCH  21   7
ENDBRANCH  16  17
BRANCH  13   8
ATOM      3  N   UNL     1      12.639   8.971  19.418  0.00  0.00    -0.291 NA
ATOM      8  C   UNL     1      13.144   9.327  20.759  0.00  0.00    +0.146 C 
ATOM      9  C   UNL     1      12.237   8.557  21.737  0.00  0.00    +0.030 C 
ATOM     10  C   UNL     1      11.218   8.664  19.580  0.00  0.00    +0.085 C 
ATOM     11  C   UNL     1      11.217   7.848  20.856  0.00  0.00    +0.017 C 
BRANCH   3  12
ATOM     12  C   UNL     1      12.865  10.013  18.424  0.00  0.00    +0.085 C 
BRANCH  12  14
ATOM     14  C   UNL     1      13.994   9.607  17.479  0.00  0.00    +0.012 C 
ATOM     15  C   UNL     1      13.950   8.119  17.170  0.00  0.00    +0.005 C 
ENDBRANCH  12  14
ENDBRANCH   3  12
ENDBRANCH  13   8
TORSDOF 8
ENDMDL
MODEL 7
REMARK VINA RESULT:      -5.6     17.335     20.436
REMARK  Name = 45783486
REMARK  10 active torsions:
REMARK  status: ('A' for Active; 'I' for Inactive)
REMARK    1  A    between atoms: O_2  and  C_23
REMARK    2  A    between atoms: O_2  and  C_24
REMARK    3  A    between atoms: N_3  and  C_12
REMARK    4  A    between atoms: N_7  and  C_21
REMARK    5  A    between atoms: N_7  and  C_22
REMARK    6  A    between atoms: C_8  and  C_13
REMARK    7  A    between atoms: C_12  and  C_14
REMARK    8  A    between atoms: C_14  and  C_15
REMARK    9  A    between atoms: C_16  and  C_17
REMARK   10  A    between atoms: C_22  and  C_23
REMARK                            x       y       z     vdW  Elec       q    Type
REMARK                         _______ _______ _______ _____ _____    ______ ____
ROOT
ATOM      1  O   UNL     1      20.080   6.353  21.936  0.00  0.00    -0.336 OA
ATOM      4  N   UNL     1      19.066   5.577  20.096  0.00  0.00    -0.190 NA
ATOM      5  N   UNL     1      18.792   6.902  21.940  0.00  0.00    -0.056 NA
ATOM     13  C   UNL     1      20.158   5.586  20.817  0.00  0.00    +0.245 A 
ATOM     16  C   UNL     1      18.256   6.398  20.824  0.00  0.00    +0.204 A 
ENDROOT
BRANCH  16  17
ATOM      6  N   UNL     1      14.719   7.534  20.969  0.00  0.00    -0.240 NA
ATOM     17  C   UNL     1      16.916   6.696  20.409  0.00  0.00    +0.041 A 
ATOM     18  C   UNL     1      16.500   6.457  19.103  0.00  0.00    +0.016 A 
ATOM     19  C   UNL     1      15.995   7.231  21.295  0.00  0.00    +0.124 A 
ATOM     20  C   UNL     1      15.195   6.756  18.730  0.00  0.00    +0.044 A 
ATOM     21  C   UNL     1      14.351   7.288  19.691  0.00  0.00    +0.119 A 
BRANCH  21   7
ATOM      7  N   UNL     1      13.024   7.588  19.295  0.00  0.00    -0.327 N 
ATOM     25  H   UNL     1      12.563   6.906  18.703  0.00  0.00    +0.148 HD
BRANCH   7  22
ATOM     22  C   UNL     1      12.354   8.784  19.691  0.00  0.00    +0.131 C 
BRANCH  22  23
ATOM     23  C   UNL     1      10.903   8.481  20.027  0.00  0.00    +0.178 C 
BRANCH  23   2
ATOM      2  O   UNL     1      10.843   7.349  20.885  0.00  0.00    -0.381 OA
ATOM     24  C   UNL     1      10.649   7.733  22.239  0.00  0.00    +0.194 C 
ENDBRANCH  23   2
ENDBRANCH  22  23
ENDBRANCH   7  22
ENDBRANCH  21   7
ENDBRANCH  16  17
BRANCH  13   8
ATOM      3  N   UNL     1      22.609   5.535  21.249  0.00  0.00    -0.291 NA
ATOM      8  C   UNL     1      21.473   4.872  20.579  0.00  0.00    +0.146 C 
ATOM      9  C   UNL     1      21.477   3.434  21.130  0.00  0.00    +0.030 C 
ATOM     10  C   UNL     1      23.579   4.484  21.554  0.00  0.00    +0.085 C 
ATOM     11  C   UNL     1      22.686   3.367  22.053  0.00  0.00    +0.017 C 
BRANCH   3  12
ATOM     12  C   UNL     1      23.195   6.610  20.458  0.00  0.00    +0.085 C 
BRANCH  12  14
ATOM     14  C   UNL     1      22.998   7.952  21.158  0.00  0.00    +0.012 C 
ATOM     15  C   UNL     1      22.284   8.947  20.258  0.00  0.00    +0.005 C 
ENDBRANCH  12  14
ENDBRANCH   3  12
ENDBRANCH  13   8
TORSDOF 8
ENDMDL
MODEL 8
REMARK VINA RESULT:      -5.5     15.523     21.810
REMARK  Name = 45783486
REMARK  10 active torsions:
REMARK  status: ('A' for Active; 'I' for Inactive)
REMARK    1  A    between atoms: O_2  and  C_23
REMARK    2  A    between atoms: O_2  and  C_24
REMARK    3  A    between atoms: N_3  and  C_12
REMARK    4  A    between atoms: N_7  and  C_21
REMARK    5  A    between atoms: N_7  and  C_22
REMARK    6  A    between atoms: C_8  and  C_13
REMARK    7  A    between atoms: C_12  and  C_14
REMARK    8  A    between atoms: C_14  and  C_15
REMARK    9  A    between atoms: C_16  and  C_17
REMARK   10  A    between atoms: C_22  and  C_23
REMARK                            x       y       z     vdW  Elec       q    Type
REMARK                         _______ _______ _______ _____ _____    ______ ____
ROOT
ATOM      1  O   UNL     1      10.796   8.073  21.038  0.00  0.00    -0.336 OA
ATOM      4  N   UNL     1      12.140   9.855  21.209  0.00  0.00    -0.190 NA
ATOM      5  N   UNL     1      10.319   8.817  22.123  0.00  0.00    -0.056 NA
ATOM     13  C   UNL     1      11.868   8.754  20.556  0.00  0.00    +0.245 A 
ATOM     16  C   UNL     1      11.163   9.853  22.160  0.00  0.00    +0.204 A 
ENDROOT
BRANCH  16  17
ATOM      6  N   UNL     1      10.964  11.551  25.462  0.00  0.00    -0.240 NA
ATOM     17  C   UNL     1      11.059  10.898  23.136  0.00  0.00    +0.041 A 
ATOM     18  C   UNL     1      10.954  12.231  22.751  0.00  0.00    +0.016 A 
ATOM     19  C   UNL     1      11.060  10.614  24.492  0.00  0.00    +0.124 A 
ATOM     20  C   UNL     1      10.854  13.223  23.719  0.00  0.00    +0.044 A 
ATOM     21  C   UNL     1      10.863  12.835  25.049  0.00  0.00    +0.119 A 
BRANCH  21   7
ATOM      7  N   UNL     1      10.761  13.858  26.024  0.00  0.00    -0.327 N 
ATOM     25  H   UNL     1      10.014  13.762  26.703  0.00  0.00    +0.148 HD
BRANCH   7  22
ATOM     22  C   UNL     1      11.648  14.975  26.065  0.00  0.00    +0.131 C 
BRANCH  22  23
ATOM     23  C   UNL     1      12.611  14.832  27.232  0.00  0.00    +0.178 C 
BRANCH  23   2
ATOM      2  O   UNL     1      13.603  13.866  26.911  0.00  0.00    -0.381 OA
ATOM     24  C   UNL     1      14.351  14.248  25.766  0.00  0.00    +0.194 C 
ENDBRANCH  23   2
ENDBRANCH  22  23
ENDBRANCH   7  22
ENDBRANCH  21   7
ENDBRANCH  16  17
BRANCH  13   8
ATOM      3  N   UNL     1      13.444   9.114  18.664  0.00  0.00    -0.291 NA
ATOM      8  C   UNL     1      12.573   8.146  19.361  0.00  0.00    +0.146 C 
ATOM      9  C   UNL     1      13.507   6.986  19.748  0.00  0.00    +0.030 C 
ATOM     10  C   UNL     1      14.527   8.336  18.064  0.00  0.00    +0.085 C 
ATOM     11  C   UNL     1      14.866   7.362  19.173  0.00  0.00    +0.017 C 
BRANCH   3  12
ATOM     12  C   UNL     1      12.734   9.918  17.677  0.00  0.00    +0.085 C 
BRANCH  12  14
ATOM     14  C   UNL     1      12.505   9.111  16.401  0.00  0.00    +0.012 C 
ATOM     15  C   UNL     1      11.030   9.057  16.037  0.00  0.00    +0.005 C 
ENDBRANCH  12  14
ENDBRANCH   3  12
ENDBRANCH  13   8
TORSDOF 8
ENDMDL
MODEL 9
REMARK VINA RESULT:      -5.5      1.338      2.631
REMARK  Name = 45783486
REMARK  10 active torsions:
REMARK  status: ('A' for Active; 'I' for Inactive)
REMARK    1  A    between atoms: O_2  and  C_23
REMARK    2  A    between atoms: O_2  and  C_24
REMARK    3  A    between atoms: N_3  and  C_12
REMARK    4  A    between atoms: N_7  and  C_21
REMARK    5  A    between atoms: N_7  and  C_22
REMARK    6  A    between atoms: C_8  and  C_13
REMARK    7  A    between atoms: C_12  and  C_14
REMARK    8  A    between atoms: C_14  and  C_15
REMARK    9  A    between atoms: C_16  and  C_17
REMARK   10  A    between atoms: C_22  and  C_23
REMARK                            x       y       z     vdW  Elec       q    Type
REMARK                         _______ _______ _______ _____ _____    ______ ____
ROOT
ATOM      1  O   UNL     1      10.171   4.622   5.130  0.00  0.00    -0.336 OA
ATOM      4  N   UNL     1      11.374   6.036   3.878  0.00  0.00    -0.190 NA
ATOM      5  N   UNL     1      10.521   3.916   3.973  0.00  0.00    -0.056 NA
ATOM     13  C   UNL     1      10.713   5.860   4.994  0.00  0.00    +0.245 A 
ATOM     16  C   UNL     1      11.229   4.816   3.285  0.00  0.00    +0.204 A 
ENDROOT
BRANCH  16  17
ATOM      6  N   UNL     1      11.894   4.990  -0.369  0.00  0.00    -0.240 NA
ATOM     17  C   UNL     1      11.803   4.529   2.002  0.00  0.00    +0.041 A 
ATOM     18  C   UNL     1      12.786   3.555   1.858  0.00  0.00    +0.016 A 
ATOM     19  C   UNL     1      11.396   5.212   0.868  0.00  0.00    +0.124 A 
ATOM     20  C   UNL     1      13.322   3.299   0.602  0.00  0.00    +0.044 A 
ATOM     21  C   UNL     1      12.848   4.036  -0.470  0.00  0.00    +0.119 A 
BRANCH  21   7
ATOM      7  N   UNL     1      13.405   3.764  -1.744  0.00  0.00    -0.327 N 
ATOM     25  H   UNL     1      14.407   3.889  -1.835  0.00  0.00    +0.148 HD
BRANCH   7  22
ATOM     22  C   UNL     1      12.617   3.340  -2.855  0.00  0.00    +0.131 C 
BRANCH  22  23
ATOM     23  C   UNL     1      11.856   2.074  -2.500  0.00  0.00    +0.178 C 
BRANCH  23   2
ATOM      2  O   UNL     1      10.460   2.345  -2.501  0.00  0.00    -0.381 OA
ATOM     24  C   UNL     1      10.147   3.462  -3.320  0.00  0.00    +0.194 C 
ENDBRANCH  23   2
ENDBRANCH  22  23
ENDBRANCH   7  22
ENDBRANCH  21   7
ENDBRANCH  16  17
BRANCH  13   8
ATOM      3  N   UNL     1       9.105   7.383   6.129  0.00  0.00    -0.291 NA
ATOM      8  C   UNL     1      10.475   6.831   6.132  0.00  0.00    +0.146 C 
ATOM      9  C   UNL     1      10.629   6.175   7.516  0.00  0.00    +0.030 C 
ATOM     10  C   UNL     1       8.777   7.681   7.523  0.00  0.00    +0.085 C 
ATOM     11  C   UNL     1       9.321   6.464   8.240  0.00  0.00    +0.017 C 
BRANCH   3  12
ATOM     12  C   UNL     1       8.959   8.551   5.269  0.00  0.00    +0.085 C 
BRANCH  12  14
ATOM     14  C   UNL     1       7.908   8.290   4.194  0.00  0.00    +0.012 C 
ATOM     15  C   UNL     1       8.549   8.085   2.831  0.00  0.00    +0.005 C 
ENDBRANCH  12  14
ENDBRANCH   3  12
ENDBRANCH  13   8
TORSDOF 8
ENDMDL
MODEL 10
REMARK VINA RESULT:      -5.4     23.121     26.595
REMARK  Name = 45783486
REMARK  10 active torsions:
REMARK  status: ('A' for Active; 'I' for Inactive)
REMARK    1  A    between atoms: O_2  and  C_23
REMARK    2  A    between atoms: O_2  and  C_24
REMARK    3  A    between atoms: N_3  and  C_12
REMARK    4  A    between atoms: N_7  and  C_21
REMARK    5  A    between atoms: N_7  and  C_22
REMARK    6  A    between atoms: C_8  and  C_13
REMARK    7  A    between atoms: C_12  and  C_14
REMARK    8  A    between atoms: C_14  and  C_15
REMARK    9  A    between atoms: C_16  and  C_17
REMARK   10  A    between atoms: C_22  and  C_23
REMARK                            x       y       z     vdW  Elec       q    Type
REMARK                         _______ _______ _______ _____ _____    ______ ____
ROOT
ATOM      1  O   UNL     1      -2.273 -10.728  13.074  0.00  0.00    -0.336 OA
ATOM      4  N   UNL     1      -4.497 -10.529  13.244  0.00  0.00    -0.190 NA
ATOM      5  N   UNL     1      -2.557 -10.691  14.444  0.00  0.00    -0.056 NA
ATOM     13  C   UNL     1      -3.469 -10.627  12.439  0.00  0.00    +0.245 A 
ATOM     16  C   UNL     1      -3.888 -10.574  14.463  0.00  0.00    +0.204 A 
ENDROOT
BRANCH  16  17
ATOM      6  N   UNL     1      -6.645  -9.792  16.832  0.00  0.00    -0.240 NA
ATOM     17  C   UNL     1      -4.638 -10.496  15.683  0.00  0.00    +0.041 A 
ATOM     18  C   UNL     1      -4.132 -11.016  16.870  0.00  0.00    +0.016 A 
ATOM     19  C   UNL     1      -5.888  -9.899  15.718  0.00  0.00    +0.124 A 
ATOM     20  C   UNL     1      -4.882 -10.925  18.037  0.00  0.00    +0.044 A 
ATOM     21  C   UNL     1      -6.121 -10.310  17.967  0.00  0.00    +0.119 A 
BRANCH  21   7
ATOM      7  N   UNL     1      -6.873 -10.225  19.164  0.00  0.00    -0.327 N 
ATOM     25  H   UNL     1      -6.738  -9.392  19.726  0.00  0.00    +0.148 HD
BRANCH   7  22
ATOM     22  C   UNL     1      -7.776 -11.250  19.580  0.00  0.00    +0.131 C 
BRANCH  22  23
ATOM     23  C   UNL     1      -9.198 -10.875  19.199  0.00  0.00    +0.178 C 
BRANCH  23   2
ATOM      2  O   UNL     1     -10.020 -10.893  20.360  0.00  0.00    -0.381 OA
ATOM     24  C   UNL     1     -11.259 -10.239  20.130  0.00  0.00    +0.194 C 
ENDBRANCH  23   2
ENDBRANCH  22  23
ENDBRANCH   7  22
ENDBRANCH  21   7
ENDBRANCH  16  17
BRANCH  13   8
ATOM      3  N   UNL     1      -4.766 -10.866  10.328  0.00  0.00    -0.291 NA
ATOM      8  C   UNL     1      -3.434 -10.643  10.925  0.00  0.00    +0.146 C 
ATOM      9  C   UNL     1      -2.955  -9.307  10.327  0.00  0.00    +0.030 C 
ATOM     10  C   UNL     1      -4.756 -10.189   9.031  0.00  0.00    +0.085 C 
ATOM     11  C   UNL     1      -4.055  -8.888   9.361  0.00  0.00    +0.017 C 
BRANCH   3  12
ATOM     12  C   UNL     1      -5.113 -12.276  10.208  0.00  0.00    +0.085 C 
BRANCH  12  14
ATOM     14  C   UNL     1      -4.022 -13.028   9.451  0.00  0.00    +0.012 C 
ATOM     15  C   UNL     1      -4.615 -13.969   8.415  0.00  0.00    +0.005 C 
ENDBRANCH  12  14
ENDBRANCH   3  12
ENDBRANCH  13   8
TORSDOF 8
ENDMDL
