MODEL 1
REMARK VINA RESULT:      -8.7      0.000      0.000
REMARK  Name = 25338539
REMARK  7 active torsions:
REMARK  status: ('A' for Active; 'I' for Inactive)
REMARK    1  A    between atoms: N_3  and  C_13
REMARK    2  A    between atoms: N_4  and  C_8
REMARK    3  A    between atoms: N_6  and  C_16
REMARK    4  A    between atoms: C_9  and  C_12
REMARK    5  A    between atoms: C_15  and  C_17
REMARK    6  A    between atoms: C_16  and  C_18
REMARK    7  A    between atoms: C_16  and  C_19
REMARK                            x       y       z     vdW  Elec       q    Type
REMARK                         _______ _______ _______ _____ _____    ______ ____
ROOT
ATOM      3  N   UNL     1      11.381   6.895  21.713  0.00  0.00    -0.293 NA
ATOM      8  C   UNL     1      10.673   9.092  22.034  0.00  0.00    +0.090 C 
ATOM      9  C   UNL     1      11.645   7.543  20.415  0.00  0.00    +0.147 C 
ATOM     10  C   UNL     1      11.325   9.033  20.653  0.00  0.00    +0.052 C 
ATOM     11  C   UNL     1      10.284   7.651  22.323  0.00  0.00    +0.107 C 
ATOM     13  C   UNL     1      11.066   5.477  21.593  0.00  0.00    +0.105 C 
ENDROOT
BRANCH   8   4
ATOM      2  O   UNL     1      11.334  11.855  22.539  0.00  0.00    -0.253 OA
ATOM      4  N   UNL     1      11.584   9.601  23.031  0.00  0.00    -0.295 N 
ATOM      6  N   UNL     1      12.762  11.168  24.233  0.00  0.00    -0.297 N 
ATOM     14  C   UNL     1      11.846  10.958  23.206  0.00  0.00    +0.300 C 
ATOM     29  H   UNL     1      12.116   8.934  23.584  0.00  0.00    +0.151 HD
ATOM     30  H   UNL     1      13.070  10.367  24.778  0.00  0.00    +0.150 HD
BRANCH   6  16
ATOM     16  C   UNL     1      13.209  12.483  24.626  0.00  0.00    +0.068 C 
ATOM     18  C   UNL     1      14.628  12.417  25.177  0.00  0.00    +0.027 C 
ATOM     19  C   UNL     1      12.251  13.094  25.641  0.00  0.00    +0.027 C 
ENDBRANCH   6  16
ENDBRANCH   8   4
BRANCH   9  12
ATOM      1  O   UNL     1      13.265   7.565  18.585  0.00  0.00    -0.336 OA
ATOM      5  N   UNL     1      14.120   6.934  20.556  0.00  0.00    -0.190 NA
ATOM      7  N   UNL     1      14.621   7.299  18.354  0.00  0.00    -0.056 NA
ATOM     12  C   UNL     1      13.054   7.326  19.906  0.00  0.00    +0.245 A 
ATOM     15  C   UNL     1      15.056   6.932  19.563  0.00  0.00    +0.202 A 
BRANCH  15  17
ATOM     17  C   UNL     1      16.419   6.559  19.812  0.00  0.00    +0.023 A 
ATOM     20  C   UNL     1      17.067   7.015  20.960  0.00  0.00    +0.020 A 
ATOM     21  C   UNL     1      17.092   5.744  18.908  0.00  0.00    +0.012 A 
ATOM     22  C   UNL     1      18.401   6.659  21.218  0.00  0.00    -0.017 A 
ATOM     23  C   UNL     1      19.086   5.829  20.300  0.00  0.00    -0.018 A 
ATOM     24  C   UNL     1      18.418   5.380  19.149  0.00  0.00    +0.009 A 
ATOM     25  C   UNL     1      19.069   7.107  22.369  0.00  0.00    +0.008 A 
ATOM     26  C   UNL     1      20.419   5.473  20.558  0.00  0.00    +0.008 A 
ATOM     27  C   UNL     1      20.394   6.744  22.610  0.00  0.00    +0.001 A 
ATOM     28  C   UNL     1      21.068   5.929  21.706  0.00  0.00    +0.001 A 
ENDBRANCH  15  17
ENDBRANCH   9  12
TORSDOF 4
ENDMDL
MODEL 2
REMARK VINA RESULT:      -7.6     29.109     32.299
REMARK  Name = 25338539
REMARK  7 active torsions:
REMARK  status: ('A' for Active; 'I' for Inactive)
REMARK    1  A    between atoms: N_3  and  C_13
REMARK    2  A    between atoms: N_4  and  C_8
REMARK    3  A    between atoms: N_6  and  C_16
REMARK    4  A    between atoms: C_9  and  C_12
REMARK    5  A    between atoms: C_15  and  C_17
REMARK    6  A    between atoms: C_16  and  C_18
REMARK    7  A    between atoms: C_16  and  C_19
REMARK                            x       y       z     vdW  Elec       q    Type
REMARK                         _______ _______ _______ _____ _____    ______ ____
ROOT
ATOM      3  N   UNL     1     -18.142   2.334  26.856  0.00  0.00    -0.293 NA
ATOM      8  C   UNL     1     -17.126   1.582  24.897  0.00  0.00    +0.090 C 
ATOM      9  C   UNL     1     -17.473   1.084  27.264  0.00  0.00    +0.147 C 
ATOM     10  C   UNL     1     -16.671   0.651  26.020  0.00  0.00    +0.052 C 
ATOM     11  C   UNL     1     -18.416   2.194  25.423  0.00  0.00    +0.107 C 
ATOM     13  C   UNL     1     -19.353   2.612  27.618  0.00  0.00    +0.105 C 
ENDROOT
BRANCH   8   4
ATOM      2  O   UNL     1     -16.927   3.197  22.515  0.00  0.00    -0.253 OA
ATOM      4  N   UNL     1     -16.140   2.597  24.615  0.00  0.00    -0.295 N 
ATOM      6  N   UNL     1     -15.063   4.240  23.420  0.00  0.00    -0.297 N 
ATOM     14  C   UNL     1     -16.118   3.333  23.432  0.00  0.00    +0.300 C 
ATOM     29  H   UNL     1     -15.383   2.733  25.278  0.00  0.00    +0.151 HD
ATOM     30  H   UNL     1     -14.495   4.332  24.257  0.00  0.00    +0.150 HD
BRANCH   6  16
ATOM     16  C   UNL     1     -14.808   5.130  22.312  0.00  0.00    +0.068 C 
ATOM     18  C   UNL     1     -13.309   5.304  22.106  0.00  0.00    +0.027 C 
ATOM     19  C   UNL     1     -15.494   6.472  22.534  0.00  0.00    +0.027 C 
ENDBRANCH   6  16
ENDBRANCH   8   4
BRANCH   9  12
ATOM      1  O   UNL     1     -15.674   0.269  28.701  0.00  0.00    -0.336 OA
ATOM      5  N   UNL     1     -16.610   2.178  29.402  0.00  0.00    -0.190 NA
ATOM      7  N   UNL     1     -15.003   0.622  29.879  0.00  0.00    -0.056 NA
ATOM     12  C   UNL     1     -16.603   1.238  28.492  0.00  0.00    +0.245 A 
ATOM     15  C   UNL     1     -15.612   1.758  30.233  0.00  0.00    +0.202 A 
BRANCH  15  17
ATOM     17  C   UNL     1     -15.247   2.496  31.407  0.00  0.00    +0.023 A 
ATOM     20  C   UNL     1     -15.128   3.884  31.348  0.00  0.00    +0.020 A 
ATOM     21  C   UNL     1     -15.010   1.826  32.603  0.00  0.00    +0.012 A 
ATOM     22  C   UNL     1     -14.772   4.622  32.489  0.00  0.00    -0.017 A 
ATOM     23  C   UNL     1     -14.532   3.941  33.706  0.00  0.00    -0.018 A 
ATOM     24  C   UNL     1     -14.654   2.543  33.747  0.00  0.00    +0.009 A 
ATOM     25  C   UNL     1     -14.649   6.020  32.448  0.00  0.00    +0.008 A 
ATOM     26  C   UNL     1     -14.175   4.679  34.846  0.00  0.00    +0.008 A 
ATOM     27  C   UNL     1     -14.294   6.737  33.591  0.00  0.00    +0.001 A 
ATOM     28  C   UNL     1     -14.057   6.068  34.788  0.00  0.00    +0.001 A 
ENDBRANCH  15  17
ENDBRANCH   9  12
TORSDOF 4
ENDMDL
MODEL 3
REMARK VINA RESULT:      -7.5     26.913     29.102
REMARK  Name = 25338539
REMARK  7 active torsions:
REMARK  status: ('A' for Active; 'I' for Inactive)
REMARK    1  A    between atoms: N_3  and  C_13
REMARK    2  A    between atoms: N_4  and  C_8
REMARK    3  A    between atoms: N_6  and  C_16
REMARK    4  A    between atoms: C_9  and  C_12
REMARK    5  A    between atoms: C_15  and  C_17
REMARK    6  A    between atoms: C_16  and  C_18
REMARK    7  A    between atoms: C_16  and  C_19
REMARK                            x       y       z     vdW  Elec       q    Type
REMARK                         _______ _______ _______ _____ _____    ______ ____
ROOT
ATOM      3  N   UNL     1      -4.218 -11.385  10.124  0.00  0.00    -0.293 NA
ATOM      8  C   UNL     1      -4.491  -9.353   9.016  0.00  0.00    +0.090 C 
ATOM      9  C   UNL     1      -3.113 -10.554  10.636  0.00  0.00    +0.147 C 
ATOM     10  C   UNL     1      -3.365  -9.159  10.030  0.00  0.00    +0.052 C 
ATOM     11  C   UNL     1      -4.535 -10.858   8.794  0.00  0.00    +0.107 C 
ATOM     13  C   UNL     1      -3.896 -12.807  10.084  0.00  0.00    +0.105 C 
ENDROOT
BRANCH   8   4
ATOM      2  O   UNL     1      -6.893  -8.855   7.497  0.00  0.00    -0.253 OA
ATOM      4  N   UNL     1      -5.751  -8.859   9.518  0.00  0.00    -0.295 N 
ATOM      6  N   UNL     1      -7.942  -8.167   9.448  0.00  0.00    -0.297 N 
ATOM     14  C   UNL     1      -6.865  -8.647   8.709  0.00  0.00    +0.300 C 
ATOM     29  H   UNL     1      -5.808  -8.585  10.494  0.00  0.00    +0.151 HD
ATOM     30  H   UNL     1      -7.845  -8.101  10.457  0.00  0.00    +0.150 HD
BRANCH   6  16
ATOM     16  C   UNL     1      -9.224  -7.862   8.856  0.00  0.00    +0.068 C 
ATOM     18  C   UNL     1      -9.336  -6.369   8.575  0.00  0.00    +0.027 C 
ATOM     19  C   UNL     1     -10.356  -8.341   9.756  0.00  0.00    +0.027 C 
ENDBRANCH   6  16
ENDBRANCH   8   4
BRANCH   9  12
ATOM      1  O   UNL     1      -1.804 -10.274  12.681  0.00  0.00    -0.336 OA
ATOM      5  N   UNL     1      -3.972 -10.708  13.035  0.00  0.00    -0.190 NA
ATOM      7  N   UNL     1      -1.974 -10.298  14.071  0.00  0.00    -0.056 NA
ATOM     12  C   UNL     1      -3.029 -10.524  12.147  0.00  0.00    +0.245 A 
ATOM     15  C   UNL     1      -3.278 -10.560  14.201  0.00  0.00    +0.202 A 
BRANCH  15  17
ATOM     17  C   UNL     1      -3.918 -10.679  15.479  0.00  0.00    +0.023 A 
ATOM     20  C   UNL     1      -5.261 -10.329  15.622  0.00  0.00    +0.020 A 
ATOM     21  C   UNL     1      -3.198 -11.142  16.576  0.00  0.00    +0.012 A 
ATOM     22  C   UNL     1      -5.902 -10.441  16.866  0.00  0.00    -0.017 A 
ATOM     23  C   UNL     1      -5.170 -10.912  17.982  0.00  0.00    -0.018 A 
ATOM     24  C   UNL     1      -3.819 -11.259  17.821  0.00  0.00    +0.009 A 
ATOM     25  C   UNL     1      -7.253 -10.094  17.028  0.00  0.00    +0.008 A 
ATOM     26  C   UNL     1      -5.811 -11.023  19.226  0.00  0.00    +0.008 A 
ATOM     27  C   UNL     1      -7.874 -10.210  18.272  0.00  0.00    +0.001 A 
ATOM     28  C   UNL     1      -7.154 -10.673  19.369  0.00  0.00    +0.001 A 
ENDBRANCH  15  17
ENDBRANCH   9  12
TORSDOF 4
ENDMDL
MODEL 4
REMARK VINA RESULT:      -7.4      3.119      5.138
REMARK  Name = 25338539
REMARK  7 active torsions:
REMARK  status: ('A' for Active; 'I' for Inactive)
REMARK    1  A    between atoms: N_3  and  C_13
REMARK    2  A    between atoms: N_4  and  C_8
REMARK    3  A    between atoms: N_6  and  C_16
REMARK    4  A    between atoms: C_9  and  C_12
REMARK    5  A    between atoms: C_15  and  C_17
REMARK    6  A    between atoms: C_16  and  C_18
REMARK    7  A    between atoms: C_16  and  C_19
REMARK                            x       y       z     vdW  Elec       q    Type
REMARK                         _______ _______ _______ _____ _____    ______ ____
ROOT
ATOM      3  N   UNL     1      12.827   8.377  20.140  0.00  0.00    -0.293 NA
ATOM      8  C   UNL     1      11.959   8.578  17.986  0.00  0.00    +0.090 C 
ATOM      9  C   UNL     1      13.306   7.164  19.453  0.00  0.00    +0.147 C 
ATOM     10  C   UNL     1      12.870   7.352  17.986  0.00  0.00    +0.052 C 
ATOM     11  C   UNL     1      11.594   8.769  19.450  0.00  0.00    +0.107 C 
ATOM     13  C   UNL     1      12.614   8.182  21.569  0.00  0.00    +0.105 C 
ENDROOT
BRANCH   8   4
ATOM      2  O   UNL     1      12.691   9.061  15.237  0.00  0.00    -0.253 OA
ATOM      4  N   UNL     1      12.631   9.740  17.456  0.00  0.00    -0.295 N 
ATOM      6  N   UNL     1      13.592  11.102  15.872  0.00  0.00    -0.297 N 
ATOM     14  C   UNL     1      12.947   9.891  16.108  0.00  0.00    +0.300 C 
ATOM     29  H   UNL     1      12.953  10.451  18.107  0.00  0.00    +0.151 HD
ATOM     30  H   UNL     1      13.690  11.755  16.644  0.00  0.00    +0.150 HD
BRANCH   6  16
ATOM     16  C   UNL     1      14.031  11.512  14.559  0.00  0.00    +0.068 C 
ATOM     18  C   UNL     1      15.511  11.202  14.374  0.00  0.00    +0.027 C 
ATOM     19  C   UNL     1      13.746  12.993  14.338  0.00  0.00    +0.027 C 
ENDBRANCH   6  16
ENDBRANCH   8   4
BRANCH   9  12
ATOM      1  O   UNL     1      15.398   6.234  18.598  0.00  0.00    -0.336 OA
ATOM      5  N   UNL     1      15.609   7.326  20.541  0.00  0.00    -0.190 NA
ATOM      7  N   UNL     1      16.754   6.157  18.943  0.00  0.00    -0.056 NA
ATOM     12  C   UNL     1      14.796   6.939  19.592  0.00  0.00    +0.245 A 
ATOM     15  C   UNL     1      16.799   6.823  20.100  0.00  0.00    +0.202 A 
BRANCH  15  17
ATOM     17  C   UNL     1      18.015   7.005  20.839  0.00  0.00    +0.023 A 
ATOM     20  C   UNL     1      19.016   6.036  20.784  0.00  0.00    +0.020 A 
ATOM     21  C   UNL     1      18.194   8.149  21.612  0.00  0.00    +0.012 A 
ATOM     22  C   UNL     1      20.212   6.199  21.501  0.00  0.00    -0.017 A 
ATOM     23  C   UNL     1      20.394   7.362  22.286  0.00  0.00    -0.018 A 
ATOM     24  C   UNL     1      19.376   8.328  22.332  0.00  0.00    +0.009 A 
ATOM     25  C   UNL     1      21.231   5.234  21.456  0.00  0.00    +0.008 A 
ATOM     26  C   UNL     1      21.591   7.525  23.003  0.00  0.00    +0.008 A 
ATOM     27  C   UNL     1      22.413   5.412  22.175  0.00  0.00    +0.001 A 
ATOM     28  C   UNL     1      22.592   6.555  22.948  0.00  0.00    +0.001 A 
ENDBRANCH  15  17
ENDBRANCH   9  12
TORSDOF 4
ENDMDL
MODEL 5
REMARK VINA RESULT:      -7.0      3.413      5.774
REMARK  Name = 25338539
REMARK  7 active torsions:
REMARK  status: ('A' for Active; 'I' for Inactive)
REMARK    1  A    between atoms: N_3  and  C_13
REMARK    2  A    between atoms: N_4  and  C_8
REMARK    3  A    between atoms: N_6  and  C_16
REMARK    4  A    between atoms: C_9  and  C_12
REMARK    5  A    between atoms: C_15  and  C_17
REMARK    6  A    between atoms: C_16  and  C_18
REMARK    7  A    between atoms: C_16  and  C_19
REMARK                            x       y       z     vdW  Elec       q    Type
REMARK                         _______ _______ _______ _____ _____    ______ ____
ROOT
ATOM      3  N   UNL     1      14.228   7.899  20.274  0.00  0.00    -0.293 NA
ATOM      8  C   UNL     1      13.729   7.790  18.000  0.00  0.00    +0.090 C 
ATOM      9  C   UNL     1      15.128   6.847  19.766  0.00  0.00    +0.147 C 
ATOM     10  C   UNL     1      14.922   6.865  18.238  0.00  0.00    +0.052 C 
ATOM     11  C   UNL     1      13.076   7.914  19.368  0.00  0.00    +0.107 C 
ATOM     13  C   UNL     1      13.828   7.693  21.661  0.00  0.00    +0.105 C 
ENDROOT
BRANCH   8   4
ATOM      2  O   UNL     1      13.472   8.771  15.298  0.00  0.00    -0.253 OA
ATOM      4  N   UNL     1      14.146   9.078  17.498  0.00  0.00    -0.295 N 
ATOM      6  N   UNL     1      14.473  10.756  15.961  0.00  0.00    -0.297 N 
ATOM     14  C   UNL     1      13.983   9.470  16.172  0.00  0.00    +0.300 C 
ATOM     29  H   UNL     1      14.648   9.700  18.125  0.00  0.00    +0.151 HD
ATOM     30  H   UNL     1      14.807  11.283  16.762  0.00  0.00    +0.150 HD
BRANCH   6  16
ATOM     16  C   UNL     1      14.429  11.409  14.674  0.00  0.00    +0.068 C 
ATOM     18  C   UNL     1      15.770  11.272  13.964  0.00  0.00    +0.027 C 
ATOM     19  C   UNL     1      14.034  12.872  14.830  0.00  0.00    +0.027 C 
ENDBRANCH   6  16
ENDBRANCH   8   4
BRANCH   9  12
ATOM      1  O   UNL     1      16.890   8.247  20.719  0.00  0.00    -0.336 OA
ATOM      5  N   UNL     1      17.591   6.232  20.039  0.00  0.00    -0.190 NA
ATOM      7  N   UNL     1      18.263   8.199  20.993  0.00  0.00    -0.056 NA
ATOM     12  C   UNL     1      16.576   7.049  20.159  0.00  0.00    +0.245 A 
ATOM     15  C   UNL     1      18.604   6.980  20.563  0.00  0.00    +0.202 A 
BRANCH  15  17
ATOM     17  C   UNL     1      19.946   6.481  20.644  0.00  0.00    +0.023 A 
ATOM     20  C   UNL     1      20.173   5.115  20.810  0.00  0.00    +0.020 A 
ATOM     21  C   UNL     1      21.021   7.361  20.557  0.00  0.00    +0.012 A 
ATOM     22  C   UNL     1      21.481   4.611  20.891  0.00  0.00    -0.017 A 
ATOM     23  C   UNL     1      22.574   5.504  20.803  0.00  0.00    -0.018 A 
ATOM     24  C   UNL     1      22.328   6.877  20.636  0.00  0.00    +0.009 A 
ATOM     25  C   UNL     1      21.728   3.238  21.057  0.00  0.00    +0.008 A 
ATOM     26  C   UNL     1      23.882   5.000  20.883  0.00  0.00    +0.008 A 
ATOM     27  C   UNL     1      23.034   2.754  21.136  0.00  0.00    +0.001 A 
ATOM     28  C   UNL     1      24.109   3.633  21.050  0.00  0.00    +0.001 A 
ENDBRANCH  15  17
ENDBRANCH   9  12
TORSDOF 4
ENDMDL
MODEL 6
REMARK VINA RESULT:      -6.9     15.160     17.713
REMARK  Name = 25338539
REMARK  7 active torsions:
REMARK  status: ('A' for Active; 'I' for Inactive)
REMARK    1  A    between atoms: N_3  and  C_13
REMARK    2  A    between atoms: N_4  and  C_8
REMARK    3  A    between atoms: N_6  and  C_16
REMARK    4  A    between atoms: C_9  and  C_12
REMARK    5  A    between atoms: C_15  and  C_17
REMARK    6  A    between atoms: C_16  and  C_18
REMARK    7  A    between atoms: C_16  and  C_19
REMARK                            x       y       z     vdW  Elec       q    Type
REMARK                         _______ _______ _______ _____ _____    ______ ____
ROOT
ATOM      3  N   UNL     1      13.186   4.471   2.030  0.00  0.00    -0.293 NA
ATOM      8  C   UNL     1      11.033   4.955   2.779  0.00  0.00    +0.090 C 
ATOM      9  C   UNL     1      13.007   5.895   1.690  0.00  0.00    +0.147 C 
ATOM     10  C   UNL     1      11.648   6.273   2.313  0.00  0.00    +0.052 C 
ATOM     11  C   UNL     1      11.841   3.890   2.053  0.00  0.00    +0.107 C 
ATOM     13  C   UNL     1      14.069   3.767   1.107  0.00  0.00    +0.105 C 
ENDROOT
BRANCH   8   4
ATOM      2  O   UNL     1       9.085   5.758   4.750  0.00  0.00    -0.253 OA
ATOM      4  N   UNL     1      11.130   4.800   4.212  0.00  0.00    -0.295 N 
ATOM      6  N   UNL     1      10.486   4.951   6.414  0.00  0.00    -0.297 N 
ATOM     14  C   UNL     1      10.136   5.219   5.093  0.00  0.00    +0.300 C 
ATOM     29  H   UNL     1      11.994   4.434   4.601  0.00  0.00    +0.151 HD
ATOM     30  H   UNL     1      11.342   4.433   6.591  0.00  0.00    +0.150 HD
BRANCH   6  16
ATOM     16  C   UNL     1       9.635   5.283   7.532  0.00  0.00    +0.068 C 
ATOM     18  C   UNL     1       9.963   6.676   8.052  0.00  0.00    +0.027 C 
ATOM     19  C   UNL     1       9.766   4.238   8.633  0.00  0.00    +0.027 C 
ENDBRANCH   6  16
ENDBRANCH   8   4
BRANCH   9  12
ATOM      1  O   UNL     1      14.445   7.848   1.394  0.00  0.00    -0.336 OA
ATOM      5  N   UNL     1      14.872   6.670   3.250  0.00  0.00    -0.190 NA
ATOM      7  N   UNL     1      15.503   8.504   2.038  0.00  0.00    -0.056 NA
ATOM     12  C   UNL     1      14.135   6.779   2.175  0.00  0.00    +0.245 A 
ATOM     15  C   UNL     1      15.697   7.749   3.123  0.00  0.00    +0.202 A 
BRANCH  15  17
ATOM     17  C   UNL     1      16.705   8.047   4.100  0.00  0.00    +0.023 A 
ATOM     20  C   UNL     1      18.043   7.762   3.830  0.00  0.00    +0.020 A 
ATOM     21  C   UNL     1      16.345   8.620   5.316  0.00  0.00    +0.012 A 
ATOM     22  C   UNL     1      19.041   8.048   4.776  0.00  0.00    -0.017 A 
ATOM     23  C   UNL     1      18.676   8.631   6.012  0.00  0.00    -0.018 A 
ATOM     24  C   UNL     1      17.324   8.911   6.268  0.00  0.00    +0.009 A 
ATOM     25  C   UNL     1      20.393   7.768   4.521  0.00  0.00    +0.008 A 
ATOM     26  C   UNL     1      19.674   8.917   6.957  0.00  0.00    +0.008 A 
ATOM     27  C   UNL     1      21.372   8.058   5.471  0.00  0.00    +0.001 A 
ATOM     28  C   UNL     1      21.013   8.631   6.688  0.00  0.00    +0.001 A 
ENDBRANCH  15  17
ENDBRANCH   9  12
TORSDOF 4
ENDMDL
MODEL 7
REMARK VINA RESULT:      -6.9     27.048     29.894
REMARK  Name = 25338539
REMARK  7 active torsions:
REMARK  status: ('A' for Active; 'I' for Inactive)
REMARK    1  A    between atoms: N_3  and  C_13
REMARK    2  A    between atoms: N_4  and  C_8
REMARK    3  A    between atoms: N_6  and  C_16
REMARK    4  A    between atoms: C_9  and  C_12
REMARK    5  A    between atoms: C_15  and  C_17
REMARK    6  A    between atoms: C_16  and  C_18
REMARK    7  A    between atoms: C_16  and  C_19
REMARK                            x       y       z     vdW  Elec       q    Type
REMARK                         _______ _______ _______ _____ _____    ______ ____
ROOT
ATOM      3  N   UNL     1      -4.514 -12.669  15.953  0.00  0.00    -0.293 NA
ATOM      8  C   UNL     1      -2.905 -11.263  15.023  0.00  0.00    +0.090 C 
ATOM      9  C   UNL     1      -4.300 -11.644  16.991  0.00  0.00    +0.147 C 
ATOM     10  C   UNL     1      -3.352 -10.620  16.335  0.00  0.00    +0.052 C 
ATOM     11  C   UNL     1      -3.266 -12.732  15.186  0.00  0.00    +0.107 C 
ATOM     13  C   UNL     1      -4.884 -13.970  16.498  0.00  0.00    +0.105 C 
ENDROOT
BRANCH   8   4
ATOM      2  O   UNL     1      -2.008 -11.259  12.280  0.00  0.00    -0.253 OA
ATOM      4  N   UNL     1      -3.579 -10.680  13.887  0.00  0.00    -0.295 N 
ATOM      6  N   UNL     1      -3.920 -10.085  11.693  0.00  0.00    -0.297 N 
ATOM     14  C   UNL     1      -3.071 -10.725  12.591  0.00  0.00    +0.300 C 
ATOM     29  H   UNL     1      -4.429 -10.148  14.051  0.00  0.00    +0.151 HD
ATOM     30  H   UNL     1      -4.813  -9.741  12.033  0.00  0.00    +0.150 HD
BRANCH   6  16
ATOM     16  C   UNL     1      -3.634  -9.985  10.281  0.00  0.00    +0.068 C 
ATOM     18  C   UNL     1      -4.267  -8.728   9.700  0.00  0.00    +0.027 C 
ATOM     19  C   UNL     1      -4.112 -11.233   9.548  0.00  0.00    +0.027 C 
ENDBRANCH   6  16
ENDBRANCH   8   4
BRANCH   9  12
ATOM      1  O   UNL     1      -5.676 -10.813  18.831  0.00  0.00    -0.336 OA
ATOM      5  N   UNL     1      -6.632 -10.622  16.815  0.00  0.00    -0.190 NA
ATOM      7  N   UNL     1      -6.931 -10.227  19.048  0.00  0.00    -0.056 NA
ATOM     12  C   UNL     1      -5.581 -11.012  17.490  0.00  0.00    +0.245 A 
ATOM     15  C   UNL     1      -7.434 -10.148  17.813  0.00  0.00    +0.202 A 
BRANCH  15  17
ATOM     17  C   UNL     1      -8.731  -9.600  17.541  0.00  0.00    +0.023 A 
ATOM     20  C   UNL     1      -8.850  -8.428  16.795  0.00  0.00    +0.020 A 
ATOM     21  C   UNL     1      -9.870 -10.238  18.024  0.00  0.00    +0.012 A 
ATOM     22  C   UNL     1     -10.114  -7.879  16.520  0.00  0.00    -0.017 A 
ATOM     23  C   UNL     1     -11.271  -8.527  17.010  0.00  0.00    -0.018 A 
ATOM     24  C   UNL     1     -11.133  -9.706  17.761  0.00  0.00    +0.009 A 
ATOM     25  C   UNL     1     -10.253  -6.700  15.769  0.00  0.00    +0.008 A 
ATOM     26  C   UNL     1     -12.534  -7.978  16.736  0.00  0.00    +0.008 A 
ATOM     27  C   UNL     1     -11.515  -6.169  15.506  0.00  0.00    +0.001 A 
ATOM     28  C   UNL     1     -12.654  -6.806  15.989  0.00  0.00    +0.001 A 
ENDBRANCH  15  17
ENDBRANCH   9  12
TORSDOF 4
ENDMDL
MODEL 8
REMARK VINA RESULT:      -6.7     16.020     18.138
REMARK  Name = 25338539
REMARK  7 active torsions:
REMARK  status: ('A' for Active; 'I' for Inactive)
REMARK    1  A    between atoms: N_3  and  C_13
REMARK    2  A    between atoms: N_4  and  C_8
REMARK    3  A    between atoms: N_6  and  C_16
REMARK    4  A    between atoms: C_9  and  C_12
REMARK    5  A    between atoms: C_15  and  C_17
REMARK    6  A    between atoms: C_16  and  C_18
REMARK    7  A    between atoms: C_16  and  C_19
REMARK                            x       y       z     vdW  Elec       q    Type
REMARK                         _______ _______ _______ _____ _____    ______ ____
ROOT
ATOM      3  N   UNL     1       9.877   5.965   7.496  0.00  0.00    -0.293 NA
ATOM      8  C   UNL     1       8.993   8.107   7.745  0.00  0.00    +0.090 C 
ATOM      9  C   UNL     1       9.282   6.255   6.179  0.00  0.00    +0.147 C 
ATOM     10  C   UNL     1       8.825   7.725   6.276  0.00  0.00    +0.052 C 
ATOM     11  C   UNL     1       9.128   6.773   8.463  0.00  0.00    +0.107 C 
ATOM     13  C   UNL     1       9.856   4.548   7.837  0.00  0.00    +0.105 C 
ENDROOT
BRANCH   8   4
ATOM      2  O   UNL     1       9.066  10.758   8.884  0.00  0.00    -0.253 OA
ATOM      4  N   UNL     1      10.158   8.934   7.950  0.00  0.00    -0.295 N 
ATOM      6  N   UNL     1      11.367  10.783   8.589  0.00  0.00    -0.297 N 
ATOM     14  C   UNL     1      10.101  10.209   8.510  0.00  0.00    +0.300 C 
ATOM     29  H   UNL     1      11.053   8.602   7.604  0.00  0.00    +0.151 HD
ATOM     30  H   UNL     1      12.170  10.220   8.325  0.00  0.00    +0.150 HD
BRANCH   6  16
ATOM     16  C   UNL     1      11.595  12.102   9.131  0.00  0.00    +0.068 C 
ATOM     18  C   UNL     1      12.378  12.953   8.139  0.00  0.00    +0.027 C 
ATOM     19  C   UNL     1      12.315  12.013  10.471  0.00  0.00    +0.027 C 
ENDBRANCH   6  16
ENDBRANCH   8   4
BRANCH   9  12
ATOM      1  O   UNL     1      11.414   6.677   5.063  0.00  0.00    -0.336 OA
ATOM      5  N   UNL     1      10.074   5.256   3.968  0.00  0.00    -0.190 NA
ATOM      7  N   UNL     1      12.107   6.302   3.904  0.00  0.00    -0.056 NA
ATOM     12  C   UNL     1      10.227   6.016   5.022  0.00  0.00    +0.245 A 
ATOM     15  C   UNL     1      11.252   5.464   3.311  0.00  0.00    +0.202 A 
BRANCH  15  17
ATOM     17  C   UNL     1      11.544   4.818   2.064  0.00  0.00    +0.023 A 
ATOM     20  C   UNL     1      10.754   5.074   0.944  0.00  0.00    +0.020 A 
ATOM     21  C   UNL     1      12.616   3.935   1.974  0.00  0.00    +0.012 A 
ATOM     22  C   UNL     1      11.027   4.450  -0.284  0.00  0.00    -0.017 A 
ATOM     23  C   UNL     1      12.117   3.552  -0.376  0.00  0.00    -0.018 A 
ATOM     24  C   UNL     1      12.902   3.305   0.762  0.00  0.00    +0.009 A 
ATOM     25  C   UNL     1      10.243   4.697  -1.422  0.00  0.00    +0.008 A 
ATOM     26  C   UNL     1      12.391   2.928  -1.604  0.00  0.00    +0.008 A 
ATOM     27  C   UNL     1      10.529   4.067  -2.634  0.00  0.00    +0.001 A 
ATOM     28  C   UNL     1      11.600   3.184  -2.725  0.00  0.00    +0.001 A 
ENDBRANCH  15  17
ENDBRANCH   9  12
TORSDOF 4
ENDMDL
MODEL 9
REMARK VINA RESULT:      -6.6     24.340     26.857
REMARK  Name = 25338539
REMARK  7 active torsions:
REMARK  status: ('A' for Active; 'I' for Inactive)
REMARK    1  A    between atoms: N_3  and  C_13
REMARK    2  A    between atoms: N_4  and  C_8
REMARK    3  A    between atoms: N_6  and  C_16
REMARK    4  A    between atoms: C_9  and  C_12
REMARK    5  A    between atoms: C_15  and  C_17
REMARK    6  A    between atoms: C_16  and  C_18
REMARK    7  A    between atoms: C_16  and  C_19
REMARK                            x       y       z     vdW  Elec       q    Type
REMARK                         _______ _______ _______ _____ _____    ______ ____
ROOT
ATOM      3  N   UNL     1       6.274   6.043  -6.418  0.00  0.00    -0.293 NA
ATOM      8  C   UNL     1       4.282   5.712  -5.255  0.00  0.00    +0.090 C 
ATOM      9  C   UNL     1       6.646   6.275  -5.010  0.00  0.00    +0.147 C 
ATOM     10  C   UNL     1       5.378   5.913  -4.211  0.00  0.00    +0.052 C 
ATOM     11  C   UNL     1       4.845   6.355  -6.513  0.00  0.00    +0.107 C 
ATOM     13  C   UNL     1       7.066   6.827  -7.359  0.00  0.00    +0.105 C 
ENDROOT
BRANCH   8   4
ATOM      2  O   UNL     1       1.778   4.359  -4.776  0.00  0.00    -0.253 OA
ATOM      4  N   UNL     1       3.995   4.313  -5.463  0.00  0.00    -0.295 N 
ATOM      6  N   UNL     1       2.752   2.379  -5.491  0.00  0.00    -0.297 N 
ATOM     14  C   UNL     1       2.752   3.741  -5.204  0.00  0.00    +0.300 C 
ATOM     29  H   UNL     1       4.756   3.701  -5.744  0.00  0.00    +0.151 HD
ATOM     30  H   UNL     1       3.583   1.974  -5.913  0.00  0.00    +0.150 HD
BRANCH   6  16
ATOM     16  C   UNL     1       1.590   1.541  -5.312  0.00  0.00    +0.068 C 
ATOM     18  C   UNL     1       1.999   0.172  -4.785  0.00  0.00    +0.027 C 
ATOM     19  C   UNL     1       0.812   1.420  -6.617  0.00  0.00    +0.027 C 
ENDBRANCH   6  16
ENDBRANCH   8   4
BRANCH   9  12
ATOM      1  O   UNL     1       8.426   4.675  -5.499  0.00  0.00    -0.336 OA
ATOM      5  N   UNL     1       8.453   5.460  -3.402  0.00  0.00    -0.190 NA
ATOM      7  N   UNL     1       9.512   4.057  -4.865  0.00  0.00    -0.056 NA
ATOM     12  C   UNL     1       7.858   5.485  -4.567  0.00  0.00    +0.245 A 
ATOM     15  C   UNL     1       9.462   4.571  -3.633  0.00  0.00    +0.202 A 
BRANCH  15  17
ATOM     17  C   UNL     1      10.403   4.217  -2.610  0.00  0.00    +0.023 A 
ATOM     20  C   UNL     1      10.189   4.625  -1.294  0.00  0.00    +0.020 A 
ATOM     21  C   UNL     1      11.531   3.468  -2.933  0.00  0.00    +0.012 A 
ATOM     22  C   UNL     1      11.101   4.287  -0.281  0.00  0.00    -0.017 A 
ATOM     23  C   UNL     1      12.247   3.525  -0.609  0.00  0.00    -0.018 A 
ATOM     24  C   UNL     1      12.448   3.123  -1.939  0.00  0.00    +0.009 A 
ATOM     25  C   UNL     1      10.901   4.689   1.049  0.00  0.00    +0.008 A 
ATOM     26  C   UNL     1      13.159   3.186   0.404  0.00  0.00    +0.008 A 
ATOM     27  C   UNL     1      11.818   4.344   2.043  0.00  0.00    +0.001 A 
ATOM     28  C   UNL     1      12.945   3.595   1.721  0.00  0.00    +0.001 A 
ENDBRANCH  15  17
ENDBRANCH   9  12
TORSDOF 4
ENDMDL
MODEL 10
REMARK VINA RESULT:      -6.6     27.061     29.672
REMARK  Name = 25338539
REMARK  7 active torsions:
REMARK  status: ('A' for Active; 'I' for Inactive)
REMARK    1  A    between atoms: N_3  and  C_13
REMARK    2  A    between atoms: N_4  and  C_8
REMARK    3  A    between atoms: N_6  and  C_16
REMARK    4  A    between atoms: C_9  and  C_12
REMARK    5  A    between atoms: C_15  and  C_17
REMARK    6  A    between atoms: C_16  and  C_18
REMARK    7  A    between atoms: C_16  and  C_19
REMARK                            x       y       z     vdW  Elec       q    Type
REMARK                         _______ _______ _______ _____ _____    ______ ____
ROOT
ATOM      3  N   UNL     1      -3.129 -13.063  13.848  0.00  0.00    -0.293 NA
ATOM      8  C   UNL     1      -2.432 -11.492  12.275  0.00  0.00    +0.090 C 
ATOM      9  C   UNL     1      -2.701 -11.913  14.666  0.00  0.00    +0.147 C 
ATOM     10  C   UNL     1      -2.379 -10.808  13.640  0.00  0.00    +0.052 C 
ATOM     11  C   UNL     1      -2.366 -12.976  12.600  0.00  0.00    +0.107 C 
ATOM     13  C   UNL     1      -2.939 -14.345  14.516  0.00  0.00    +0.105 C 
ENDROOT
BRANCH   8   4
ATOM      2  O   UNL     1      -2.776  -9.430  10.285  0.00  0.00    -0.253 OA
ATOM      4  N   UNL     1      -3.644 -11.164  11.562  0.00  0.00    -0.295 N 
ATOM      6  N   UNL     1      -5.003 -10.045  10.084  0.00  0.00    -0.297 N 
ATOM     14  C   UNL     1      -3.720 -10.147  10.613  0.00  0.00    +0.300 C 
ATOM     29  H   UNL     1      -4.500 -11.648  11.816  0.00  0.00    +0.151 HD
ATOM     30  H   UNL     1      -5.697 -10.733  10.362  0.00  0.00    +0.150 HD
BRANCH   6  16
ATOM     16  C   UNL     1      -5.360  -9.072   9.078  0.00  0.00    +0.068 C 
ATOM     18  C   UNL     1      -6.743  -8.499   9.362  0.00  0.00    +0.027 C 
ATOM     19  C   UNL     1      -5.294  -9.690   7.687  0.00  0.00    +0.027 C 
ENDBRANCH   6  16
ENDBRANCH   8   4
BRANCH   9  12
ATOM      1  O   UNL     1      -3.260 -11.112  16.905  0.00  0.00    -0.336 OA
ATOM      5  N   UNL     1      -5.033 -11.400  15.568  0.00  0.00    -0.190 NA
ATOM      7  N   UNL     1      -4.383 -10.756  17.664  0.00  0.00    -0.056 NA
ATOM     12  C   UNL     1      -3.732 -11.478  15.684  0.00  0.00    +0.245 A 
ATOM     15  C   UNL     1      -5.389 -10.953  16.807  0.00  0.00    +0.202 A 
BRANCH  15  17
ATOM     17  C   UNL     1      -6.759 -10.712  17.156  0.00  0.00    +0.023 A 
ATOM     20  C   UNL     1      -7.376  -9.520  16.777  0.00  0.00    +0.020 A 
ATOM     21  C   UNL     1      -7.471 -11.667  17.875  0.00  0.00    +0.012 A 
ATOM     22  C   UNL     1      -8.716  -9.269  17.111  0.00  0.00    -0.017 A 
ATOM     23  C   UNL     1      -9.441 -10.240  17.841  0.00  0.00    -0.018 A 
ATOM     24  C   UNL     1      -8.805 -11.435  18.216  0.00  0.00    +0.009 A 
ATOM     25  C   UNL     1      -9.354  -8.075  16.736  0.00  0.00    +0.008 A 
ATOM     26  C   UNL     1     -10.782  -9.989  18.175  0.00  0.00    +0.008 A 
ATOM     27  C   UNL     1     -10.686  -7.842  17.077  0.00  0.00    +0.001 A 
ATOM     28  C   UNL     1     -11.399  -8.797  17.795  0.00  0.00    +0.001 A 
ENDBRANCH  15  17
ENDBRANCH   9  12
TORSDOF 4
ENDMDL
