MODEL 1
REMARK VINA RESULT:      -7.5      0.000      0.000
REMARK  Name = 45784211
REMARK  5 active torsions:
REMARK  status: ('A' for Active; 'I' for Inactive)
REMARK    1  A    between atoms: N_1  and  C_10
REMARK    2  A    between atoms: C_5  and  C_9
REMARK    3  A    between atoms: C_10  and  C_11
REMARK    4  A    between atoms: C_18  and  C_23
REMARK    5  A    between atoms: C_22  and  C_24
REMARK                            x       y       z     vdW  Elec       q    Type
REMARK                         _______ _______ _______ _____ _____    ______ ____
ROOT
ATOM      1  N   UNL     1      12.029   4.254   1.683  0.00  0.00    -0.297 NA
ATOM      5  C   UNL     1      10.490   5.303   3.109  0.00  0.00    +0.070 C 
ATOM      6  C   UNL     1      11.464   6.350   2.542  0.00  0.00    +0.028 C 
ATOM      7  C   UNL     1      11.164   3.953   2.825  0.00  0.00    +0.096 C 
ATOM      8  C   UNL     1      12.638   5.545   2.001  0.00  0.00    +0.085 C 
ENDROOT
BRANCH   5   9
ATOM      2  N   UNL     1      10.316   4.484   5.475  0.00  0.00    -0.342 N 
ATOM      3  N   UNL     1       9.631   6.569   5.120  0.00  0.00    -0.232 NA
ATOM      9  C   UNL     1      10.133   5.488   4.566  0.00  0.00    +0.113 A 
ATOM     12  C   UNL     1       9.905   4.948   6.698  0.00  0.00    +0.066 A 
ATOM     13  C   UNL     1       9.482   6.251   6.451  0.00  0.00    +0.089 A 
ATOM     14  C   UNL     1       9.867   4.357   7.962  0.00  0.00    +0.031 A 
ATOM     17  C   UNL     1       8.990   7.025   7.515  0.00  0.00    +0.030 A 
ATOM     18  C   UNL     1       9.375   5.142   9.009  0.00  0.00    -0.048 A 
ATOM     19  C   UNL     1       8.944   6.453   8.792  0.00  0.00    +0.005 A 
ATOM     23  C   UNL     1       9.310   4.567  10.387  0.00  0.00    +0.044 C 
ATOM     25  H   UNL     1      10.687   3.564   5.284  0.00  0.00    +0.167 HD
ENDBRANCH   5   9
BRANCH   1  10
ATOM     10  C   UNL     1      13.021   3.216   1.449  0.00  0.00    +0.119 C 
BRANCH  10  11
ATOM     11  C   UNL     1      14.026   3.625   0.404  0.00  0.00    -0.033 A 
ATOM     15  C   UNL     1      15.365   3.796   0.753  0.00  0.00    +0.006 A 
ATOM     16  C   UNL     1      13.616   3.833  -0.913  0.00  0.00    +0.006 A 
ATOM     20  C   UNL     1      16.296   4.176  -0.214  0.00  0.00    +0.019 A 
ATOM     21  C   UNL     1      14.547   4.213  -1.880  0.00  0.00    +0.019 A 
ATOM     22  C   UNL     1      15.886   4.384  -1.532  0.00  0.00    +0.052 A 
BRANCH  22  24
ATOM      4  N   UNL     1      17.614   5.088  -3.328  0.00  0.00    -0.191 NA
ATOM     24  C   UNL     1      16.839   4.773  -2.523  0.00  0.00    +0.099 C 
ENDBRANCH  22  24
ENDBRANCH  10  11
ENDBRANCH   1  10
TORSDOF 4
ENDMDL
MODEL 2
REMARK VINA RESULT:      -7.2     16.939     19.184
REMARK  Name = 45784211
REMARK  5 active torsions:
REMARK  status: ('A' for Active; 'I' for Inactive)
REMARK    1  A    between atoms: N_1  and  C_10
REMARK    2  A    between atoms: C_5  and  C_9
REMARK    3  A    between atoms: C_10  and  C_11
REMARK    4  A    between atoms: C_18  and  C_23
REMARK    5  A    between atoms: C_22  and  C_24
REMARK                            x       y       z     vdW  Elec       q    Type
REMARK                         _______ _______ _______ _____ _____    ______ ____
ROOT
ATOM      1  N   UNL     1      13.843   7.044  20.148  0.00  0.00    -0.297 NA
ATOM      5  C   UNL     1      12.633   8.218  21.778  0.00  0.00    +0.070 C 
ATOM      6  C   UNL     1      11.670   7.356  20.943  0.00  0.00    +0.028 C 
ATOM      7  C   UNL     1      13.927   8.263  20.954  0.00  0.00    +0.096 C 
ATOM      8  C   UNL     1      12.455   6.989  19.691  0.00  0.00    +0.085 C 
ENDROOT
BRANCH   5   9
ATOM      2  N   UNL     1      11.907   9.961  23.432  0.00  0.00    -0.342 N 
ATOM      3  N   UNL     1      11.804  10.556  21.292  0.00  0.00    -0.232 NA
ATOM      9  C   UNL     1      12.112   9.592  22.132  0.00  0.00    +0.113 A 
ATOM     12  C   UNL     1      11.437  11.249  23.432  0.00  0.00    +0.066 A 
ATOM     13  C   UNL     1      11.381  11.598  22.086  0.00  0.00    +0.089 A 
ATOM     14  C   UNL     1      11.065  12.113  24.463  0.00  0.00    +0.031 A 
ATOM     17  C   UNL     1      10.931  12.880  21.729  0.00  0.00    +0.030 A 
ATOM     18  C   UNL     1      10.620  13.384  24.090  0.00  0.00    -0.048 A 
ATOM     19  C   UNL     1      10.554  13.763  22.747  0.00  0.00    +0.005 A 
ATOM     23  C   UNL     1      10.209  14.356  25.148  0.00  0.00    +0.044 C 
ATOM     25  H   UNL     1      12.072   9.389  24.250  0.00  0.00    +0.167 HD
ENDBRANCH   5   9
BRANCH   1  10
ATOM     10  C   UNL     1      14.791   7.041  19.044  0.00  0.00    +0.119 C 
BRANCH  10  11
ATOM     11  C   UNL     1      16.184   6.694  19.501  0.00  0.00    -0.033 A 
ATOM     15  C   UNL     1      16.952   5.788  18.771  0.00  0.00    +0.006 A 
ATOM     16  C   UNL     1      16.705   7.280  20.655  0.00  0.00    +0.006 A 
ATOM     20  C   UNL     1      18.242   5.466  19.194  0.00  0.00    +0.019 A 
ATOM     21  C   UNL     1      17.994   6.958  21.078  0.00  0.00    +0.019 A 
ATOM     22  C   UNL     1      18.763   6.052  20.349  0.00  0.00    +0.052 A 
BRANCH  22  24
ATOM      4  N   UNL     1      21.158   5.456  21.133  0.00  0.00    -0.191 NA
ATOM     24  C   UNL     1      20.084   5.723  20.782  0.00  0.00    +0.099 C 
ENDBRANCH  22  24
ENDBRANCH  10  11
ENDBRANCH   1  10
TORSDOF 4
ENDMDL
MODEL 3
REMARK VINA RESULT:      -7.0     14.225     18.473
REMARK  Name = 45784211
REMARK  5 active torsions:
REMARK  status: ('A' for Active; 'I' for Inactive)
REMARK    1  A    between atoms: N_1  and  C_10
REMARK    2  A    between atoms: C_5  and  C_9
REMARK    3  A    between atoms: C_10  and  C_11
REMARK    4  A    between atoms: C_18  and  C_23
REMARK    5  A    between atoms: C_22  and  C_24
REMARK                            x       y       z     vdW  Elec       q    Type
REMARK                         _______ _______ _______ _____ _____    ______ ____
ROOT
ATOM      1  N   UNL     1      13.097   7.249  20.481  0.00  0.00    -0.297 NA
ATOM      5  C   UNL     1      11.725   8.409  21.988  0.00  0.00    +0.070 C 
ATOM      6  C   UNL     1      10.922   8.064  20.721  0.00  0.00    +0.028 C 
ATOM      7  C   UNL     1      13.192   8.206  21.585  0.00  0.00    +0.096 C 
ATOM      8  C   UNL     1      11.971   7.716  19.673  0.00  0.00    +0.085 C 
ENDROOT
BRANCH   5   9
ATOM      2  N   UNL     1      11.399   9.996  23.905  0.00  0.00    -0.342 N 
ATOM      3  N   UNL     1      11.251  10.889  21.875  0.00  0.00    -0.232 NA
ATOM      9  C   UNL     1      11.455   9.784  22.556  0.00  0.00    +0.113 A 
ATOM     12  C   UNL     1      11.142  11.327  24.109  0.00  0.00    +0.066 A 
ATOM     13  C   UNL     1      11.054  11.863  22.827  0.00  0.00    +0.089 A 
ATOM     14  C   UNL     1      10.983  12.086  25.269  0.00  0.00    +0.031 A 
ATOM     17  C   UNL     1      10.793  13.236  22.675  0.00  0.00    +0.030 A 
ATOM     18  C   UNL     1      10.724  13.449  25.100  0.00  0.00    -0.048 A 
ATOM     19  C   UNL     1      10.631  14.016  23.826  0.00  0.00    +0.005 A 
ATOM     23  C   UNL     1      10.545  14.316  26.303  0.00  0.00    +0.044 C 
ATOM     25  H   UNL     1      11.524   9.299  24.627  0.00  0.00    +0.167 HD
ENDBRANCH   5   9
BRANCH   1  10
ATOM     10  C   UNL     1      14.331   7.162  19.714  0.00  0.00    +0.119 C 
BRANCH  10  11
ATOM     11  C   UNL     1      14.323   8.095  18.531  0.00  0.00    -0.033 A 
ATOM     15  C   UNL     1      14.577   9.454  18.713  0.00  0.00    +0.006 A 
ATOM     16  C   UNL     1      14.063   7.598  17.254  0.00  0.00    +0.006 A 
ATOM     20  C   UNL     1      14.570  10.318  17.617  0.00  0.00    +0.019 A 
ATOM     21  C   UNL     1      14.055   8.462  16.158  0.00  0.00    +0.019 A 
ATOM     22  C   UNL     1      14.309   9.821  16.340  0.00  0.00    +0.052 A 
BRANCH  22  24
ATOM      4  N   UNL     1      14.298  11.424  14.305  0.00  0.00    -0.191 NA
ATOM     24  C   UNL     1      14.303  10.706  15.218  0.00  0.00    +0.099 C 
ENDBRANCH  22  24
ENDBRANCH  10  11
ENDBRANCH   1  10
TORSDOF 4
ENDMDL
MODEL 4
REMARK VINA RESULT:      -6.9     22.939     25.834
REMARK  Name = 45784211
REMARK  5 active torsions:
REMARK  status: ('A' for Active; 'I' for Inactive)
REMARK    1  A    between atoms: N_1  and  C_10
REMARK    2  A    between atoms: C_5  and  C_9
REMARK    3  A    between atoms: C_10  and  C_11
REMARK    4  A    between atoms: C_18  and  C_23
REMARK    5  A    between atoms: C_22  and  C_24
REMARK                            x       y       z     vdW  Elec       q    Type
REMARK                         _______ _______ _______ _____ _____    ______ ____
ROOT
ATOM      1  N   UNL     1      -2.034 -10.974  13.872  0.00  0.00    -0.297 NA
ATOM      5  C   UNL     1      -3.258 -10.211  15.721  0.00  0.00    +0.070 C 
ATOM      6  C   UNL     1      -1.848 -10.629  16.174  0.00  0.00    +0.028 C 
ATOM      7  C   UNL     1      -3.418 -10.832  14.326  0.00  0.00    +0.096 C 
ATOM      8  C   UNL     1      -1.305 -11.481  15.034  0.00  0.00    +0.085 C 
ENDROOT
BRANCH   5   9
ATOM      2  N   UNL     1      -5.567  -9.935  16.665  0.00  0.00    -0.342 N 
ATOM      3  N   UNL     1      -4.341 -11.555  17.567  0.00  0.00    -0.232 NA
ATOM      9  C   UNL     1      -4.371 -10.596  16.669  0.00  0.00    +0.113 A 
ATOM     12  C   UNL     1      -6.363 -10.507  17.624  0.00  0.00    +0.066 A 
ATOM     13  C   UNL     1      -5.576 -11.514  18.173  0.00  0.00    +0.089 A 
ATOM     14  C   UNL     1      -7.666 -10.236  18.047  0.00  0.00    +0.031 A 
ATOM     17  C   UNL     1      -6.102 -12.309  19.206  0.00  0.00    +0.030 A 
ATOM     18  C   UNL     1      -8.174 -11.036  19.074  0.00  0.00    -0.048 A 
ATOM     19  C   UNL     1      -7.407 -12.055  19.645  0.00  0.00    +0.005 A 
ATOM     23  C   UNL     1      -9.562 -10.797  19.570  0.00  0.00    +0.044 C 
ATOM     25  H   UNL     1      -5.823  -9.164  16.064  0.00  0.00    +0.167 HD
ENDBRANCH   5   9
BRANCH   1  10
ATOM     10  C   UNL     1      -1.915 -11.851  12.717  0.00  0.00    +0.119 C 
BRANCH  10  11
ATOM     11  C   UNL     1      -2.718 -11.349  11.546  0.00  0.00    -0.033 A 
ATOM     15  C   UNL     1      -2.614 -10.016  11.149  0.00  0.00    +0.006 A 
ATOM     16  C   UNL     1      -3.565 -12.218  10.858  0.00  0.00    +0.006 A 
ATOM     20  C   UNL     1      -3.358  -9.551  10.064  0.00  0.00    +0.019 A 
ATOM     21  C   UNL     1      -4.309 -11.753   9.774  0.00  0.00    +0.019 A 
ATOM     22  C   UNL     1      -4.206 -10.420   9.376  0.00  0.00    +0.052 A 
BRANCH  22  24
ATOM      4  N   UNL     1      -5.585  -9.556   7.362  0.00  0.00    -0.191 NA
ATOM     24  C   UNL     1      -4.967  -9.944   8.265  0.00  0.00    +0.099 C 
ENDBRANCH  22  24
ENDBRANCH  10  11
ENDBRANCH   1  10
TORSDOF 4
ENDMDL
MODEL 5
REMARK VINA RESULT:      -6.8     27.528     29.283
REMARK  Name = 45784211
REMARK  5 active torsions:
REMARK  status: ('A' for Active; 'I' for Inactive)
REMARK    1  A    between atoms: N_1  and  C_10
REMARK    2  A    between atoms: C_5  and  C_9
REMARK    3  A    between atoms: C_10  and  C_11
REMARK    4  A    between atoms: C_18  and  C_23
REMARK    5  A    between atoms: C_22  and  C_24
REMARK                            x       y       z     vdW  Elec       q    Type
REMARK                         _______ _______ _______ _____ _____    ______ ____
ROOT
ATOM      1  N   UNL     1      -9.173  -8.897  16.493  0.00  0.00    -0.297 NA
ATOM      5  C   UNL     1     -10.734  -7.149  16.419  0.00  0.00    +0.070 C 
ATOM      6  C   UNL     1     -11.265  -8.275  17.323  0.00  0.00    +0.028 C 
ATOM      7  C   UNL     1      -9.590  -7.796  15.625  0.00  0.00    +0.096 C 
ATOM      8  C   UNL     1     -10.420  -9.493  16.973  0.00  0.00    +0.085 C 
ENDROOT
BRANCH   5   9
ATOM      2  N   UNL     1     -11.444  -5.492  14.672  0.00  0.00    -0.342 N 
ATOM      3  N   UNL     1     -13.052  -6.801  15.474  0.00  0.00    -0.232 NA
ATOM      9  C   UNL     1     -11.774  -6.502  15.533  0.00  0.00    +0.113 A 
ATOM     12  C   UNL     1     -12.586  -5.116  14.013  0.00  0.00    +0.066 A 
ATOM     13  C   UNL     1     -13.575  -5.946  14.530  0.00  0.00    +0.089 A 
ATOM     14  C   UNL     1     -12.831  -4.147  13.038  0.00  0.00    +0.031 A 
ATOM     17  C   UNL     1     -14.893  -5.818  14.059  0.00  0.00    +0.030 A 
ATOM     18  C   UNL     1     -14.147  -4.034  12.580  0.00  0.00    -0.048 A 
ATOM     19  C   UNL     1     -15.161  -4.854  13.080  0.00  0.00    +0.005 A 
ATOM     23  C   UNL     1     -14.473  -3.017  11.536  0.00  0.00    +0.044 C 
ATOM     25  H   UNL     1     -10.525  -5.093  14.542  0.00  0.00    +0.167 HD
ENDBRANCH   5   9
BRANCH   1  10
ATOM     10  C   UNL     1      -8.329  -9.861  15.802  0.00  0.00    +0.119 C 
BRANCH  10  11
ATOM     11  C   UNL     1      -7.227 -10.378  16.688  0.00  0.00    -0.033 A 
ATOM     15  C   UNL     1      -7.498 -11.363  17.637  0.00  0.00    +0.006 A 
ATOM     16  C   UNL     1      -5.933  -9.872  16.559  0.00  0.00    +0.006 A 
ATOM     20  C   UNL     1      -6.477 -11.842  18.458  0.00  0.00    +0.019 A 
ATOM     21  C   UNL     1      -4.912 -10.351  17.380  0.00  0.00    +0.019 A 
ATOM     22  C   UNL     1      -5.184 -11.336  18.329  0.00  0.00    +0.052 A 
BRANCH  22  24
ATOM      4  N   UNL     1      -3.288 -12.226  19.852  0.00  0.00    -0.191 NA
ATOM     24  C   UNL     1      -4.137 -11.828  19.169  0.00  0.00    +0.099 C 
ENDBRANCH  22  24
ENDBRANCH  10  11
ENDBRANCH   1  10
TORSDOF 4
ENDMDL
MODEL 6
REMARK VINA RESULT:      -6.6     17.472     20.753
REMARK  Name = 45784211
REMARK  5 active torsions:
REMARK  status: ('A' for Active; 'I' for Inactive)
REMARK    1  A    between atoms: N_1  and  C_10
REMARK    2  A    between atoms: C_5  and  C_9
REMARK    3  A    between atoms: C_10  and  C_11
REMARK    4  A    between atoms: C_18  and  C_23
REMARK    5  A    between atoms: C_22  and  C_24
REMARK                            x       y       z     vdW  Elec       q    Type
REMARK                         _______ _______ _______ _____ _____    ______ ____
ROOT
ATOM      1  N   UNL     1      11.940   8.529  21.136  0.00  0.00    -0.297 NA
ATOM      5  C   UNL     1      14.037   8.227  20.131  0.00  0.00    +0.070 C 
ATOM      6  C   UNL     1      13.106   7.066  19.739  0.00  0.00    +0.028 C 
ATOM      7  C   UNL     1      13.345   8.892  21.329  0.00  0.00    +0.096 C 
ATOM      8  C   UNL     1      11.965   7.119  20.746  0.00  0.00    +0.085 C 
ENDROOT
BRANCH   5   9
ATOM      2  N   UNL     1      16.051   6.769  19.787  0.00  0.00    -0.342 N 
ATOM      3  N   UNL     1      16.283   8.402  21.277  0.00  0.00    -0.232 NA
ATOM      9  C   UNL     1      15.465   7.826  20.424  0.00  0.00    +0.113 A 
ATOM     12  C   UNL     1      17.333   6.655  20.259  0.00  0.00    +0.066 A 
ATOM     13  C   UNL     1      17.454   7.684  21.187  0.00  0.00    +0.089 A 
ATOM     14  C   UNL     1      18.367   5.765  19.963  0.00  0.00    +0.031 A 
ATOM     17  C   UNL     1      18.671   7.852  21.871  0.00  0.00    +0.030 A 
ATOM     18  C   UNL     1      19.570   5.946  20.651  0.00  0.00    -0.048 A 
ATOM     19  C   UNL     1      19.722   6.971  21.588  0.00  0.00    +0.005 A 
ATOM     23  C   UNL     1      20.716   5.027  20.377  0.00  0.00    +0.044 C 
ATOM     25  H   UNL     1      15.620   6.175  19.091  0.00  0.00    +0.167 HD
ENDBRANCH   5   9
BRANCH   1  10
ATOM     10  C   UNL     1      11.138   8.760  22.328  0.00  0.00    +0.119 C 
BRANCH  10  11
ATOM     11  C   UNL     1      11.079  10.221  22.690  0.00  0.00    -0.033 A 
ATOM     15  C   UNL     1      10.955  10.605  24.025  0.00  0.00    +0.006 A 
ATOM     16  C   UNL     1      11.150  11.191  21.690  0.00  0.00    +0.006 A 
ATOM     20  C   UNL     1      10.901  11.958  24.361  0.00  0.00    +0.019 A 
ATOM     21  C   UNL     1      11.095  12.544  22.025  0.00  0.00    +0.019 A 
ATOM     22  C   UNL     1      10.971  12.927  23.360  0.00  0.00    +0.052 A 
BRANCH  22  24
ATOM      4  N   UNL     1      10.872  15.439  23.982  0.00  0.00    -0.191 NA
ATOM     24  C   UNL     1      10.917  14.313  23.704  0.00  0.00    +0.099 C 
ENDBRANCH  22  24
ENDBRANCH  10  11
ENDBRANCH   1  10
TORSDOF 4
ENDMDL
MODEL 7
REMARK VINA RESULT:      -6.5     14.031     16.473
REMARK  Name = 45784211
REMARK  5 active torsions:
REMARK  status: ('A' for Active; 'I' for Inactive)
REMARK    1  A    between atoms: N_1  and  C_10
REMARK    2  A    between atoms: C_5  and  C_9
REMARK    3  A    between atoms: C_10  and  C_11
REMARK    4  A    between atoms: C_18  and  C_23
REMARK    5  A    between atoms: C_22  and  C_24
REMARK                            x       y       z     vdW  Elec       q    Type
REMARK                         _______ _______ _______ _____ _____    ______ ____
ROOT
ATOM      1  N   UNL     1      -2.000  10.086   5.755  0.00  0.00    -0.297 NA
ATOM      5  C   UNL     1      -1.284  11.877   7.089  0.00  0.00    +0.070 C 
ATOM      6  C   UNL     1      -1.116  12.242   5.603  0.00  0.00    +0.028 C 
ATOM      7  C   UNL     1      -1.475  10.354   7.095  0.00  0.00    +0.096 C 
ATOM      8  C   UNL     1      -1.191  10.914   4.861  0.00  0.00    +0.085 C 
ENDROOT
BRANCH   5   9
ATOM      2  N   UNL     1       1.149  12.229   7.596  0.00  0.00    -0.342 N 
ATOM      3  N   UNL     1      -0.271  12.856   9.187  0.00  0.00    -0.232 NA
ATOM      9  C   UNL     1      -0.157  12.333   7.986  0.00  0.00    +0.113 A 
ATOM     12  C   UNL     1       1.930  12.719   8.611  0.00  0.00    +0.066 A 
ATOM     13  C   UNL     1       1.021  13.103   9.593  0.00  0.00    +0.089 A 
ATOM     14  C   UNL     1       3.312  12.853   8.752  0.00  0.00    +0.031 A 
ATOM     17  C   UNL     1       1.501  13.657  10.792  0.00  0.00    +0.030 A 
ATOM     18  C   UNL     1       3.772  13.406   9.950  0.00  0.00    -0.048 A 
ATOM     19  C   UNL     1       2.884  13.802  10.954  0.00  0.00    +0.005 A 
ATOM     23  C   UNL     1       5.241  13.578  10.161  0.00  0.00    +0.044 C 
ATOM     25  H   UNL     1       1.483  11.859   6.716  0.00  0.00    +0.167 HD
ENDBRANCH   5   9
BRANCH   1  10
ATOM     10  C   UNL     1      -1.940   8.674   5.408  0.00  0.00    +0.119 C 
BRANCH  10  11
ATOM     11  C   UNL     1      -3.304   8.114   5.099  0.00  0.00    -0.033 A 
ATOM     15  C   UNL     1      -3.575   6.766   5.332  0.00  0.00    +0.006 A 
ATOM     16  C   UNL     1      -4.297   8.945   4.580  0.00  0.00    +0.006 A 
ATOM     20  C   UNL     1      -4.838   6.248   5.045  0.00  0.00    +0.019 A 
ATOM     21  C   UNL     1      -5.560   8.427   4.293  0.00  0.00    +0.019 A 
ATOM     22  C   UNL     1      -5.831   7.079   4.526  0.00  0.00    +0.052 A 
BRANCH  22  24
ATOM      4  N   UNL     1      -8.176   6.119   3.995  0.00  0.00    -0.191 NA
ATOM     24  C   UNL     1      -7.125   6.549   4.233  0.00  0.00    +0.099 C 
ENDBRANCH  22  24
ENDBRANCH  10  11
ENDBRANCH   1  10
TORSDOF 4
ENDMDL
MODEL 8
REMARK VINA RESULT:      -6.5      5.382      6.057
REMARK  Name = 45784211
REMARK  5 active torsions:
REMARK  status: ('A' for Active; 'I' for Inactive)
REMARK    1  A    between atoms: N_1  and  C_10
REMARK    2  A    between atoms: C_5  and  C_9
REMARK    3  A    between atoms: C_10  and  C_11
REMARK    4  A    between atoms: C_18  and  C_23
REMARK    5  A    between atoms: C_22  and  C_24
REMARK                            x       y       z     vdW  Elec       q    Type
REMARK                         _______ _______ _______ _____ _____    ______ ____
ROOT
ATOM      1  N   UNL     1      15.715   8.794   5.239  0.00  0.00    -0.297 NA
ATOM      5  C   UNL     1      13.677   7.633   5.243  0.00  0.00    +0.070 C 
ATOM      6  C   UNL     1      13.533   8.924   4.416  0.00  0.00    +0.028 C 
ATOM      7  C   UNL     1      14.968   7.832   6.050  0.00  0.00    +0.096 C 
ATOM      8  C   UNL     1      14.723   9.785   4.820  0.00  0.00    +0.085 C 
ENDROOT
BRANCH   5   9
ATOM      2  N   UNL     1      12.503   6.224   6.956  0.00  0.00    -0.342 N 
ATOM      3  N   UNL     1      11.346   7.949   6.165  0.00  0.00    -0.232 NA
ATOM      9  C   UNL     1      12.486   7.298   6.110  0.00  0.00    +0.113 A 
ATOM     12  C   UNL     1      11.294   6.180   7.601  0.00  0.00    +0.066 A 
ATOM     13  C   UNL     1      10.590   7.266   7.091  0.00  0.00    +0.089 A 
ATOM     14  C   UNL     1      10.772   5.309   8.558  0.00  0.00    +0.031 A 
ATOM     17  C   UNL     1       9.285   7.514   7.551  0.00  0.00    +0.030 A 
ATOM     18  C   UNL     1       9.473   5.570   9.004  0.00  0.00    -0.048 A 
ATOM     19  C   UNL     1       8.741   6.652   8.511  0.00  0.00    +0.005 A 
ATOM     23  C   UNL     1       8.858   4.674  10.029  0.00  0.00    +0.044 C 
ATOM     25  H   UNL     1      13.269   5.577   7.086  0.00  0.00    +0.167 HD
ENDBRANCH   5   9
BRANCH   1  10
ATOM     10  C   UNL     1      16.823   9.394   5.967  0.00  0.00    +0.119 C 
BRANCH  10  11
ATOM     11  C   UNL     1      18.141   8.766   5.600  0.00  0.00    -0.033 A 
ATOM     15  C   UNL     1      18.356   8.302   4.302  0.00  0.00    +0.006 A 
ATOM     16  C   UNL     1      19.148   8.648   6.558  0.00  0.00    +0.006 A 
ATOM     20  C   UNL     1      19.578   7.721   3.962  0.00  0.00    +0.019 A 
ATOM     21  C   UNL     1      20.370   8.066   6.218  0.00  0.00    +0.019 A 
ATOM     22  C   UNL     1      20.585   7.603   4.921  0.00  0.00    +0.052 A 
BRANCH  22  24
ATOM      4  N   UNL     1      22.852   6.524   4.289  0.00  0.00    -0.191 NA
ATOM     24  C   UNL     1      21.836   7.008   4.572  0.00  0.00    +0.099 C 
ENDBRANCH  22  24
ENDBRANCH  10  11
ENDBRANCH   1  10
TORSDOF 4
ENDMDL
MODEL 9
REMARK VINA RESULT:      -6.4      2.718      9.380
REMARK  Name = 45784211
REMARK  5 active torsions:
REMARK  status: ('A' for Active; 'I' for Inactive)
REMARK    1  A    between atoms: N_1  and  C_10
REMARK    2  A    between atoms: C_5  and  C_9
REMARK    3  A    between atoms: C_10  and  C_11
REMARK    4  A    between atoms: C_18  and  C_23
REMARK    5  A    between atoms: C_22  and  C_24
REMARK                            x       y       z     vdW  Elec       q    Type
REMARK                         _______ _______ _______ _____ _____    ______ ____
ROOT
ATOM      1  N   UNL     1       9.839   7.026   3.506  0.00  0.00    -0.297 NA
ATOM      5  C   UNL     1      11.240   6.236   1.799  0.00  0.00    +0.070 C 
ATOM      6  C   UNL     1      10.872   7.705   1.525  0.00  0.00    +0.028 C 
ATOM      7  C   UNL     1      10.227   5.773   2.856  0.00  0.00    +0.096 C 
ATOM      8  C   UNL     1       9.665   7.981   2.411  0.00  0.00    +0.085 C 
ENDROOT
BRANCH   5   9
ATOM      2  N   UNL     1      10.368   5.517  -0.442  0.00  0.00    -0.342 N 
ATOM      3  N   UNL     1      12.093   4.355   0.343  0.00  0.00    -0.232 NA
ATOM      9  C   UNL     1      11.264   5.348   0.577  0.00  0.00    +0.113 A 
ATOM     12  C   UNL     1      10.639   4.572  -1.398  0.00  0.00    +0.066 A 
ATOM     13  C   UNL     1      11.718   3.859  -0.885  0.00  0.00    +0.089 A 
ATOM     14  C   UNL     1      10.048   4.288  -2.630  0.00  0.00    +0.031 A 
ATOM     17  C   UNL     1      12.253   2.796  -1.631  0.00  0.00    +0.030 A 
ATOM     18  C   UNL     1      10.593   3.227  -3.360  0.00  0.00    -0.048 A 
ATOM     19  C   UNL     1      11.677   2.493  -2.871  0.00  0.00    +0.005 A 
ATOM     23  C   UNL     1      10.006   2.874  -4.687  0.00  0.00    +0.044 C 
ATOM     25  H   UNL     1       9.638   6.215  -0.487  0.00  0.00    +0.167 HD
ENDBRANCH   5   9
BRANCH   1  10
ATOM     10  C   UNL     1       8.636   6.884   4.313  0.00  0.00    +0.119 C 
BRANCH  10  11
ATOM     11  C   UNL     1       8.948   6.387   5.700  0.00  0.00    -0.033 A 
ATOM     15  C   UNL     1       8.679   7.193   6.807  0.00  0.00    +0.006 A 
ATOM     16  C   UNL     1       9.505   5.121   5.878  0.00  0.00    +0.006 A 
ATOM     20  C   UNL     1       8.968   6.733   8.092  0.00  0.00    +0.019 A 
ATOM     21  C   UNL     1       9.794   4.661   7.163  0.00  0.00    +0.019 A 
ATOM     22  C   UNL     1       9.525   5.466   8.270  0.00  0.00    +0.052 A 
BRANCH  22  24
ATOM      4  N   UNL     1      10.060   4.611  10.655  0.00  0.00    -0.191 NA
ATOM     24  C   UNL     1       9.820   4.994   9.586  0.00  0.00    +0.099 C 
ENDBRANCH  22  24
ENDBRANCH  10  11
ENDBRANCH   1  10
TORSDOF 4
ENDMDL
MODEL 10
REMARK VINA RESULT:      -6.3     22.974     27.211
REMARK  Name = 45784211
REMARK  5 active torsions:
REMARK  status: ('A' for Active; 'I' for Inactive)
REMARK    1  A    between atoms: N_1  and  C_10
REMARK    2  A    between atoms: C_5  and  C_9
REMARK    3  A    between atoms: C_10  and  C_11
REMARK    4  A    between atoms: C_18  and  C_23
REMARK    5  A    between atoms: C_22  and  C_24
REMARK                            x       y       z     vdW  Elec       q    Type
REMARK                         _______ _______ _______ _____ _____    ______ ____
ROOT
ATOM      1  N   UNL     1      -4.757 -11.745  16.986  0.00  0.00    -0.297 NA
ATOM      5  C   UNL     1      -6.331 -10.203  17.792  0.00  0.00    +0.070 C 
ATOM      6  C   UNL     1      -6.177 -11.356  18.799  0.00  0.00    +0.028 C 
ATOM      7  C   UNL     1      -5.693 -10.731  16.498  0.00  0.00    +0.096 C 
ATOM      8  C   UNL     1      -5.494 -12.473  18.020  0.00  0.00    +0.085 C 
ENDROOT
BRANCH   5   9
ATOM      2  N   UNL     1      -8.017  -8.586  16.875  0.00  0.00    -0.342 N 
ATOM      3  N   UNL     1      -8.843 -10.278  18.056  0.00  0.00    -0.232 NA
ATOM      9  C   UNL     1      -7.748  -9.717  17.593  0.00  0.00    +0.113 A 
ATOM     12  C   UNL     1      -9.376  -8.405  16.872  0.00  0.00    +0.066 A 
ATOM     13  C   UNL     1      -9.869  -9.473  17.616  0.00  0.00    +0.089 A 
ATOM     14  C   UNL     1     -10.192  -7.428  16.301  0.00  0.00    +0.031 A 
ATOM     17  C   UNL     1     -11.256  -9.590  17.811  0.00  0.00    +0.030 A 
ATOM     18  C   UNL     1     -11.569  -7.559  16.505  0.00  0.00    -0.048 A 
ATOM     19  C   UNL     1     -12.094  -8.620  17.246  0.00  0.00    +0.005 A 
ATOM     23  C   UNL     1     -12.496  -6.545  15.918  0.00  0.00    +0.044 C 
ATOM     25  H   UNL     1      -7.338  -7.988  16.424  0.00  0.00    +0.167 HD
ENDBRANCH   5   9
BRANCH   1  10
ATOM     10  C   UNL     1      -4.283 -12.620  15.925  0.00  0.00    +0.119 C 
BRANCH  10  11
ATOM     11  C   UNL     1      -3.532 -11.858  14.864  0.00  0.00    -0.033 A 
ATOM     15  C   UNL     1      -2.448 -11.054  15.217  0.00  0.00    +0.006 A 
ATOM     16  C   UNL     1      -3.920 -11.958  13.528  0.00  0.00    +0.006 A 
ATOM     20  C   UNL     1      -1.753 -10.349  14.235  0.00  0.00    +0.019 A 
ATOM     21  C   UNL     1      -3.225 -11.253  12.546  0.00  0.00    +0.019 A 
ATOM     22  C   UNL     1      -2.142 -10.449  12.899  0.00  0.00    +0.052 A 
BRANCH  22  24
ATOM      4  N   UNL     1      -0.851  -9.141  11.074  0.00  0.00    -0.191 NA
ATOM     24  C   UNL     1      -1.429  -9.727  11.892  0.00  0.00    +0.099 C 
ENDBRANCH  22  24
ENDBRANCH  10  11
ENDBRANCH   1  10
TORSDOF 4
ENDMDL
