MODEL 1
REMARK VINA RESULT:      -6.9      0.000      0.000
REMARK  Name = 45783542
REMARK  11 active torsions:
REMARK  status: ('A' for Active; 'I' for Inactive)
REMARK    1  A    between atoms: O_5  and  C_25
REMARK    2  A    between atoms: O_5  and  C_30
REMARK    3  A    between atoms: O_6  and  C_29
REMARK    4  A    between atoms: O_6  and  C_31
REMARK    5  A    between atoms: O_7  and  C_32
REMARK    6  A    between atoms: O_7  and  C_33
REMARK    7  A    between atoms: N_8  and  C_16
REMARK    8  A    between atoms: C_12  and  C_17
REMARK    9  A    between atoms: C_16  and  C_18
REMARK   10  A    between atoms: C_21  and  C_24
REMARK   11  A    between atoms: C_31  and  C_32
REMARK                            x       y       z     vdW  Elec       q    Type
REMARK                         _______ _______ _______ _____ _____    ______ ____
ROOT
ATOM      8  N   UNL     1      12.938   8.381  18.726  0.00  0.00    -0.287 NA
ATOM     12  C   UNL     1      13.977   7.411  18.324  0.00  0.00    +0.146 C 
ATOM     13  C   UNL     1      14.226   7.702  16.833  0.00  0.00    +0.030 C 
ATOM     14  C   UNL     1      13.242   8.806  16.472  0.00  0.00    +0.017 C 
ATOM     15  C   UNL     1      12.158   8.675  17.523  0.00  0.00    +0.085 C 
ENDROOT
BRANCH  12  17
ATOM      4  O   UNL     1      15.403   8.684  19.845  0.00  0.00    -0.336 OA
ATOM      9  N   UNL     1      16.203   6.659  19.322  0.00  0.00    -0.190 NA
ATOM     10  N   UNL     1      16.618   8.556  20.532  0.00  0.00    -0.056 NA
ATOM     17  C   UNL     1      15.234   7.524  19.159  0.00  0.00    +0.245 A 
ATOM     21  C   UNL     1      17.028   7.336  20.173  0.00  0.00    +0.204 A 
BRANCH  21  24
ATOM     11  N   UNL     1      20.054   6.784  22.261  0.00  0.00    -0.221 NA
ATOM     24  C   UNL     1      18.256   6.765  20.646  0.00  0.00    +0.041 A 
ATOM     26  C   UNL     1      18.842   5.686  19.995  0.00  0.00    +0.018 A 
ATOM     27  C   UNL     1      18.897   7.274  21.765  0.00  0.00    +0.126 A 
ATOM     28  C   UNL     1      20.033   5.154  20.476  0.00  0.00    +0.068 A 
ATOM     29  C   UNL     1      20.595   5.734  21.602  0.00  0.00    +0.215 A 
BRANCH  29   6
ATOM      6  O   UNL     1      21.768   5.229  22.095  0.00  0.00    -0.474 OA
BRANCH   6  31
ATOM     31  C   UNL     1      22.401   4.213  21.326  0.00  0.00    +0.258 C 
BRANCH  31  32
ATOM     32  C   UNL     1      23.861   4.575  21.133  0.00  0.00    +0.200 C 
BRANCH  32   7
ATOM      7  O   UNL     1      24.265   4.194  19.823  0.00  0.00    -0.380 OA
ATOM     33  C   UNL     1      24.795   2.877  19.803  0.00  0.00    +0.194 C 
ENDBRANCH  32   7
ENDBRANCH  31  32
ENDBRANCH   6  31
ENDBRANCH  29   6
ENDBRANCH  21  24
ENDBRANCH  12  17
BRANCH   8  16
ATOM     16  C   UNL     1      12.100   7.906  19.819  0.00  0.00    +0.120 C 
BRANCH  16  18
ATOM     18  C   UNL     1      11.761   9.010  20.785  0.00  0.00    -0.033 A 
ATOM     19  C   UNL     1      12.294  10.286  20.602  0.00  0.00    +0.008 A 
ATOM     20  C   UNL     1      10.914   8.757  21.864  0.00  0.00    +0.008 A 
ATOM     22  C   UNL     1      11.979  11.309  21.497  0.00  0.00    +0.046 A 
ATOM     23  C   UNL     1      10.600   9.779  22.759  0.00  0.00    +0.046 A 
ATOM     25  C   UNL     1      11.132  11.055  22.576  0.00  0.00    +0.130 A 
BRANCH  25   5
ATOM      5  O   UNL     1      10.825  12.053  23.448  0.00  0.00    -0.406 OA
BRANCH   5  30
ATOM      1  F   UNL     1      10.818  11.521  25.642  0.00  0.00    -0.133 F 
ATOM      2  F   UNL     1      12.727  11.474  24.580  0.00  0.00    -0.133 F 
ATOM      3  F   UNL     1      11.753  13.404  25.045  0.00  0.00    -0.133 F 
ATOM     30  C   UNL     1      11.546  12.122  24.674  0.00  0.00    +0.575 C 
ENDBRANCH   5  30
ENDBRANCH  25   5
ENDBRANCH  16  18
ENDBRANCH   8  16
TORSDOF 10
ENDMDL
MODEL 2
REMARK VINA RESULT:      -6.5      4.143      5.655
REMARK  Name = 45783542
REMARK  11 active torsions:
REMARK  status: ('A' for Active; 'I' for Inactive)
REMARK    1  A    between atoms: O_5  and  C_25
REMARK    2  A    between atoms: O_5  and  C_30
REMARK    3  A    between atoms: O_6  and  C_29
REMARK    4  A    between atoms: O_6  and  C_31
REMARK    5  A    between atoms: O_7  and  C_32
REMARK    6  A    between atoms: O_7  and  C_33
REMARK    7  A    between atoms: N_8  and  C_16
REMARK    8  A    between atoms: C_12  and  C_17
REMARK    9  A    between atoms: C_16  and  C_18
REMARK   10  A    between atoms: C_21  and  C_24
REMARK   11  A    between atoms: C_31  and  C_32
REMARK                            x       y       z     vdW  Elec       q    Type
REMARK                         _______ _______ _______ _____ _____    ______ ____
ROOT
ATOM      8  N   UNL     1      12.423   8.831  19.955  0.00  0.00    -0.287 NA
ATOM     12  C   UNL     1      13.193   8.259  21.078  0.00  0.00    +0.146 C 
ATOM     13  C   UNL     1      12.213   7.298  21.774  0.00  0.00    +0.030 C 
ATOM     14  C   UNL     1      10.903   7.442  21.011  0.00  0.00    +0.017 C 
ATOM     15  C   UNL     1      11.018   8.806  20.362  0.00  0.00    +0.085 C 
ENDROOT
BRANCH  12  17
ATOM      4  O   UNL     1      14.408   6.931  19.426  0.00  0.00    -0.336 OA
ATOM      9  N   UNL     1      15.626   7.496  21.219  0.00  0.00    -0.190 NA
ATOM     10  N   UNL     1      15.680   6.379  19.223  0.00  0.00    -0.056 NA
ATOM     17  C   UNL     1      14.463   7.571  20.623  0.00  0.00    +0.245 A 
ATOM     21  C   UNL     1      16.340   6.755  20.322  0.00  0.00    +0.204 A 
BRANCH  21  24
ATOM     11  N   UNL     1      19.734   6.730  21.840  0.00  0.00    -0.221 NA
ATOM     24  C   UNL     1      17.713   6.409  20.554  0.00  0.00    +0.041 A 
ATOM     26  C   UNL     1      18.356   5.462  19.765  0.00  0.00    +0.018 A 
ATOM     27  C   UNL     1      18.440   7.010  21.569  0.00  0.00    +0.126 A 
ATOM     28  C   UNL     1      19.687   5.148  20.013  0.00  0.00    +0.068 A 
ATOM     29  C   UNL     1      20.327   5.804  21.052  0.00  0.00    +0.215 A 
BRANCH  29   6
ATOM      6  O   UNL     1      21.639   5.512  21.316  0.00  0.00    -0.474 OA
BRANCH   6  31
ATOM     31  C   UNL     1      22.006   4.138  21.287  0.00  0.00    +0.258 C 
BRANCH  31  32
ATOM     32  C   UNL     1      22.922   3.846  22.461  0.00  0.00    +0.200 C 
BRANCH  32   7
ATOM      7  O   UNL     1      22.245   4.168  23.670  0.00  0.00    -0.380 OA
ATOM     33  C   UNL     1      22.920   3.640  24.802  0.00  0.00    +0.194 C 
ENDBRANCH  32   7
ENDBRANCH  31  32
ENDBRANCH   6  31
ENDBRANCH  29   6
ENDBRANCH  21  24
ENDBRANCH  12  17
BRANCH   8  16
ATOM     16  C   UNL     1      12.861  10.169  19.579  0.00  0.00    +0.120 C 
BRANCH  16  18
ATOM     18  C   UNL     1      13.486  10.189  18.209  0.00  0.00    -0.033 A 
ATOM     19  C   UNL     1      12.965   9.389  17.193  0.00  0.00    +0.008 A 
ATOM     20  C   UNL     1      14.587  11.008  17.958  0.00  0.00    +0.008 A 
ATOM     22  C   UNL     1      13.545   9.408  15.924  0.00  0.00    +0.046 A 
ATOM     23  C   UNL     1      15.166  11.027  16.689  0.00  0.00    +0.046 A 
ATOM     25  C   UNL     1      14.646  10.227  15.672  0.00  0.00    +0.130 A 
BRANCH  25   5
ATOM      5  O   UNL     1      15.210  10.246  14.435  0.00  0.00    -0.406 OA
BRANCH   5  30
ATOM      1  F   UNL     1      14.118  12.139  13.870  0.00  0.00    -0.133 F 
ATOM      2  F   UNL     1      16.257  12.275  14.297  0.00  0.00    -0.133 F 
ATOM      3  F   UNL     1      15.547  11.312  12.438  0.00  0.00    -0.133 F 
ATOM     30  C   UNL     1      15.300  11.493  13.753  0.00  0.00    +0.575 C 
ENDBRANCH   5  30
ENDBRANCH  25   5
ENDBRANCH  16  18
ENDBRANCH   8  16
TORSDOF 10
ENDMDL
MODEL 3
REMARK VINA RESULT:      -6.5      5.445      8.434
REMARK  Name = 45783542
REMARK  11 active torsions:
REMARK  status: ('A' for Active; 'I' for Inactive)
REMARK    1  A    between atoms: O_5  and  C_25
REMARK    2  A    between atoms: O_5  and  C_30
REMARK    3  A    between atoms: O_6  and  C_29
REMARK    4  A    between atoms: O_6  and  C_31
REMARK    5  A    between atoms: O_7  and  C_32
REMARK    6  A    between atoms: O_7  and  C_33
REMARK    7  A    between atoms: N_8  and  C_16
REMARK    8  A    between atoms: C_12  and  C_17
REMARK    9  A    between atoms: C_16  and  C_18
REMARK   10  A    between atoms: C_21  and  C_24
REMARK   11  A    between atoms: C_31  and  C_32
REMARK                            x       y       z     vdW  Elec       q    Type
REMARK                         _______ _______ _______ _____ _____    ______ ____
ROOT
ATOM      8  N   UNL     1      14.109  11.135  15.862  0.00  0.00    -0.287 NA
ATOM     12  C   UNL     1      15.202  11.760  16.634  0.00  0.00    +0.146 C 
ATOM     13  C   UNL     1      15.246  13.217  16.139  0.00  0.00    +0.030 C 
ATOM     14  C   UNL     1      14.185  13.300  15.049  0.00  0.00    +0.017 C 
ATOM     15  C   UNL     1      14.027  11.863  14.596  0.00  0.00    +0.085 C 
ENDROOT
BRANCH  12  17
ATOM      4  O   UNL     1      16.111  11.595  18.895  0.00  0.00    -0.336 OA
ATOM      9  N   UNL     1      13.873  11.617  18.810  0.00  0.00    -0.190 NA
ATOM     10  N   UNL     1      15.670  11.504  20.222  0.00  0.00    -0.056 NA
ATOM     17  C   UNL     1      14.991  11.657  18.130  0.00  0.00    +0.245 A 
ATOM     21  C   UNL     1      14.341  11.524  20.089  0.00  0.00    +0.204 A 
BRANCH  21  24
ATOM     11  N   UNL     1      11.193  11.254  22.050  0.00  0.00    -0.221 NA
ATOM     24  C   UNL     1      13.452  11.452  21.213  0.00  0.00    +0.041 A 
ATOM     26  C   UNL     1      13.937  11.509  22.514  0.00  0.00    +0.018 A 
ATOM     27  C   UNL     1      12.083  11.326  21.036  0.00  0.00    +0.126 A 
ATOM     28  C   UNL     1      13.051  11.438  23.584  0.00  0.00    +0.068 A 
ATOM     29  C   UNL     1      11.701  11.313  23.302  0.00  0.00    +0.215 A 
BRANCH  29   6
ATOM      6  O   UNL     1      10.809  11.241  24.338  0.00  0.00    -0.474 OA
BRANCH   6  31
ATOM     31  C   UNL     1      10.959  12.199  25.379  0.00  0.00    +0.258 C 
BRANCH  31  32
ATOM     32  C   UNL     1      10.380  13.524  24.920  0.00  0.00    +0.200 C 
BRANCH  32   7
ATOM      7  O   UNL     1      11.252  14.575  25.318  0.00  0.00    -0.380 OA
ATOM     33  C   UNL     1      12.312  14.094  26.131  0.00  0.00    +0.194 C 
ENDBRANCH  32   7
ENDBRANCH  31  32
ENDBRANCH   6  31
ENDBRANCH  29   6
ENDBRANCH  21  24
ENDBRANCH  12  17
BRANCH   8  16
ATOM     16  C   UNL     1      14.293   9.704  15.661  0.00  0.00    +0.120 C 
BRANCH  16  18
ATOM     18  C   UNL     1      13.636   8.896  16.750  0.00  0.00    -0.033 A 
ATOM     19  C   UNL     1      14.401   8.035  17.536  0.00  0.00    +0.008 A 
ATOM     20  C   UNL     1      12.264   9.009  16.969  0.00  0.00    +0.008 A 
ATOM     22  C   UNL     1      13.792   7.286  18.544  0.00  0.00    +0.046 A 
ATOM     23  C   UNL     1      11.656   8.260  17.978  0.00  0.00    +0.046 A 
ATOM     25  C   UNL     1      12.419   7.399  18.765  0.00  0.00    +0.130 A 
BRANCH  25   5
ATOM      5  O   UNL     1      11.827   6.670  19.748  0.00  0.00    -0.406 OA
BRANCH   5  30
ATOM      1  F   UNL     1      12.517   8.100  21.352  0.00  0.00    -0.133 F 
ATOM      2  F   UNL     1      10.408   8.135  20.783  0.00  0.00    -0.133 F 
ATOM      3  F   UNL     1      11.224   6.440  21.943  0.00  0.00    -0.133 F 
ATOM     30  C   UNL     1      11.477   7.330  20.960  0.00  0.00    +0.575 C 
ENDBRANCH   5  30
ENDBRANCH  25   5
ENDBRANCH  16  18
ENDBRANCH   8  16
TORSDOF 10
ENDMDL
MODEL 4
REMARK VINA RESULT:      -6.4      7.081     12.549
REMARK  Name = 45783542
REMARK  11 active torsions:
REMARK  status: ('A' for Active; 'I' for Inactive)
REMARK    1  A    between atoms: O_5  and  C_25
REMARK    2  A    between atoms: O_5  and  C_30
REMARK    3  A    between atoms: O_6  and  C_29
REMARK    4  A    between atoms: O_6  and  C_31
REMARK    5  A    between atoms: O_7  and  C_32
REMARK    6  A    between atoms: O_7  and  C_33
REMARK    7  A    between atoms: N_8  and  C_16
REMARK    8  A    between atoms: C_12  and  C_17
REMARK    9  A    between atoms: C_16  and  C_18
REMARK   10  A    between atoms: C_21  and  C_24
REMARK   11  A    between atoms: C_31  and  C_32
REMARK                            x       y       z     vdW  Elec       q    Type
REMARK                         _______ _______ _______ _____ _____    ______ ____
ROOT
ATOM      8  N   UNL     1      23.737  -1.134  25.387  0.00  0.00    -0.287 NA
ATOM     12  C   UNL     1      24.596   0.047  25.165  0.00  0.00    +0.146 C 
ATOM     13  C   UNL     1      25.987  -0.535  24.852  0.00  0.00    +0.030 C 
ATOM     14  C   UNL     1      25.826  -2.044  24.981  0.00  0.00    +0.017 C 
ATOM     15  C   UNL     1      24.615  -2.197  25.879  0.00  0.00    +0.085 C 
ENDROOT
BRANCH  12  17
ATOM      4  O   UNL     1      24.557   0.711  22.814  0.00  0.00    -0.336 OA
ATOM      9  N   UNL     1      23.221   1.934  24.131  0.00  0.00    -0.190 NA
ATOM     10  N   UNL     1      23.943   1.653  21.979  0.00  0.00    -0.056 NA
ATOM     17  C   UNL     1      24.076   0.945  24.063  0.00  0.00    +0.245 A 
ATOM     21  C   UNL     1      23.170   2.336  22.828  0.00  0.00    +0.204 A 
BRANCH  21  24
ATOM     11  N   UNL     1      21.302   5.550  22.916  0.00  0.00    -0.221 NA
ATOM     24  C   UNL     1      22.337   3.425  22.407  0.00  0.00    +0.041 A 
ATOM     26  C   UNL     1      21.762   3.439  21.142  0.00  0.00    +0.018 A 
ATOM     27  C   UNL     1      22.078   4.495  23.250  0.00  0.00    +0.126 A 
ATOM     28  C   UNL     1      20.957   4.508  20.762  0.00  0.00    +0.068 A 
ATOM     29  C   UNL     1      20.759   5.529  21.677  0.00  0.00    +0.215 A 
BRANCH  29   6
ATOM      6  O   UNL     1      19.971   6.593  21.327  0.00  0.00    -0.474 OA
BRANCH   6  31
ATOM     31  C   UNL     1      18.990   6.359  20.323  0.00  0.00    +0.258 C 
BRANCH  31  32
ATOM     32  C   UNL     1      17.612   6.429  20.952  0.00  0.00    +0.200 C 
BRANCH  32   7
ATOM      7  O   UNL     1      16.632   6.163  19.955  0.00  0.00    -0.380 OA
ATOM     33  C   UNL     1      15.338   6.572  20.373  0.00  0.00    +0.194 C 
ENDBRANCH  32   7
ENDBRANCH  31  32
ENDBRANCH   6  31
ENDBRANCH  29   6
ENDBRANCH  21  24
ENDBRANCH  12  17
BRANCH   8  16
ATOM     16  C   UNL     1      22.628  -0.876  26.296  0.00  0.00    +0.120 C 
BRANCH  16  18
ATOM     18  C   UNL     1      21.315  -1.343  25.724  0.00  0.00    -0.033 A 
ATOM     19  C   UNL     1      20.284  -0.430  25.507  0.00  0.00    +0.008 A 
ATOM     20  C   UNL     1      21.131  -2.690  25.414  0.00  0.00    +0.008 A 
ATOM     22  C   UNL     1      19.068  -0.863  24.978  0.00  0.00    +0.046 A 
ATOM     23  C   UNL     1      19.915  -3.123  24.885  0.00  0.00    +0.046 A 
ATOM     25  C   UNL     1      18.884  -2.210  24.667  0.00  0.00    +0.130 A 
BRANCH  25   5
ATOM      5  O   UNL     1      17.698  -2.633  24.151  0.00  0.00    -0.406 OA
BRANCH   5  30
ATOM      1  F   UNL     1      18.417  -3.239  22.098  0.00  0.00    -0.133 F 
ATOM      2  F   UNL     1      16.270  -2.961  22.395  0.00  0.00    -0.133 F 
ATOM      3  F   UNL     1      17.627  -1.217  22.354  0.00  0.00    -0.133 F 
ATOM     30  C   UNL     1      17.488  -2.501  22.748  0.00  0.00    +0.575 C 
ENDBRANCH   5  30
ENDBRANCH  25   5
ENDBRANCH  16  18
ENDBRANCH   8  16
TORSDOF 10
ENDMDL
MODEL 5
REMARK VINA RESULT:      -6.4      4.744      8.188
REMARK  Name = 45783542
REMARK  11 active torsions:
REMARK  status: ('A' for Active; 'I' for Inactive)
REMARK    1  A    between atoms: O_5  and  C_25
REMARK    2  A    between atoms: O_5  and  C_30
REMARK    3  A    between atoms: O_6  and  C_29
REMARK    4  A    between atoms: O_6  and  C_31
REMARK    5  A    between atoms: O_7  and  C_32
REMARK    6  A    between atoms: O_7  and  C_33
REMARK    7  A    between atoms: N_8  and  C_16
REMARK    8  A    between atoms: C_12  and  C_17
REMARK    9  A    between atoms: C_16  and  C_18
REMARK   10  A    between atoms: C_21  and  C_24
REMARK   11  A    between atoms: C_31  and  C_32
REMARK                            x       y       z     vdW  Elec       q    Type
REMARK                         _______ _______ _______ _____ _____    ______ ____
ROOT
ATOM      8  N   UNL     1      13.312   7.801  20.141  0.00  0.00    -0.287 NA
ATOM     12  C   UNL     1      12.340   7.919  19.036  0.00  0.00    +0.146 C 
ATOM     13  C   UNL     1      11.161   8.709  19.635  0.00  0.00    +0.030 C 
ATOM     14  C   UNL     1      11.535   8.937  21.093  0.00  0.00    +0.017 C 
ATOM     15  C   UNL     1      12.535   7.835  21.381  0.00  0.00    +0.085 C 
ENDROOT
BRANCH  12  17
ATOM      4  O   UNL     1      12.620   8.030  16.611  0.00  0.00    -0.336 OA
ATOM      9  N   UNL     1      13.706   9.637  17.731  0.00  0.00    -0.190 NA
ATOM     10  N   UNL     1      13.270   8.808  15.644  0.00  0.00    -0.056 NA
ATOM     17  C   UNL     1      12.928   8.587  17.811  0.00  0.00    +0.245 A 
ATOM     21  C   UNL     1      13.888   9.734  16.382  0.00  0.00    +0.204 A 
BRANCH  21  24
ATOM     11  N   UNL     1      16.219  11.470  14.063  0.00  0.00    -0.221 NA
ATOM     24  C   UNL     1      14.694  10.770  15.803  0.00  0.00    +0.041 A 
ATOM     26  C   UNL     1      14.752  12.036  16.374  0.00  0.00    +0.018 A 
ATOM     27  C   UNL     1      15.440  10.539  14.658  0.00  0.00    +0.126 A 
ATOM     28  C   UNL     1      15.544  13.019  15.791  0.00  0.00    +0.068 A 
ATOM     29  C   UNL     1      16.251  12.689  14.646  0.00  0.00    +0.215 A 
BRANCH  29   6
ATOM      6  O   UNL     1      17.038  13.641  14.053  0.00  0.00    -0.474 OA
BRANCH   6  31
ATOM     31  C   UNL     1      18.364  13.254  13.713  0.00  0.00    +0.258 C 
BRANCH  31  32
ATOM     32  C   UNL     1      19.255  13.422  14.929  0.00  0.00    +0.200 C 
BRANCH  32   7
ATOM      7  O   UNL     1      19.581  12.138  15.447  0.00  0.00    -0.380 OA
ATOM     33  C   UNL     1      19.856  11.210  14.408  0.00  0.00    +0.194 C 
ENDBRANCH  32   7
ENDBRANCH  31  32
ENDBRANCH   6  31
ENDBRANCH  29   6
ENDBRANCH  21  24
ENDBRANCH  12  17
BRANCH   8  16
ATOM     16  C   UNL     1      14.144   6.608  20.049  0.00  0.00    +0.120 C 
BRANCH  16  18
ATOM     18  C   UNL     1      15.593   6.914  20.324  0.00  0.00    -0.033 A 
ATOM     19  C   UNL     1      16.594   6.189  19.678  0.00  0.00    +0.008 A 
ATOM     20  C   UNL     1      15.933   7.921  21.227  0.00  0.00    +0.008 A 
ATOM     22  C   UNL     1      17.936   6.472  19.933  0.00  0.00    +0.046 A 
ATOM     23  C   UNL     1      17.275   8.204  21.482  0.00  0.00    +0.046 A 
ATOM     25  C   UNL     1      18.276   7.480  20.835  0.00  0.00    +0.130 A 
BRANCH  25   5
ATOM      5  O   UNL     1      19.585   7.757  21.084  0.00  0.00    -0.406 OA
BRANCH   5  30
ATOM      1  F   UNL     1      20.867   5.899  21.132  0.00  0.00    -0.133 F 
ATOM      2  F   UNL     1      21.320   7.498  22.552  0.00  0.00    -0.133 F 
ATOM      3  F   UNL     1      19.510   6.255  22.808  0.00  0.00    -0.133 F 
ATOM     30  C   UNL     1      20.318   6.859  21.911  0.00  0.00    +0.575 C 
ENDBRANCH   5  30
ENDBRANCH  25   5
ENDBRANCH  16  18
ENDBRANCH   8  16
TORSDOF 10
ENDMDL
MODEL 6
REMARK VINA RESULT:      -6.4     27.928     30.150
REMARK  Name = 45783542
REMARK  11 active torsions:
REMARK  status: ('A' for Active; 'I' for Inactive)
REMARK    1  A    between atoms: O_5  and  C_25
REMARK    2  A    between atoms: O_5  and  C_30
REMARK    3  A    between atoms: O_6  and  C_29
REMARK    4  A    between atoms: O_6  and  C_31
REMARK    5  A    between atoms: O_7  and  C_32
REMARK    6  A    between atoms: O_7  and  C_33
REMARK    7  A    between atoms: N_8  and  C_16
REMARK    8  A    between atoms: C_12  and  C_17
REMARK    9  A    between atoms: C_16  and  C_18
REMARK   10  A    between atoms: C_21  and  C_24
REMARK   11  A    between atoms: C_31  and  C_32
REMARK                            x       y       z     vdW  Elec       q    Type
REMARK                         _______ _______ _______ _____ _____    ______ ____
ROOT
ATOM      8  N   UNL     1      -5.522  -9.773   8.698  0.00  0.00    -0.287 NA
ATOM     12  C   UNL     1      -6.731  -9.082   9.191  0.00  0.00    +0.146 C 
ATOM     13  C   UNL     1      -7.805  -9.365   8.125  0.00  0.00    +0.030 C 
ATOM     14  C   UNL     1      -7.093 -10.169   7.046  0.00  0.00    +0.017 C 
ATOM     15  C   UNL     1      -5.633  -9.811   7.240  0.00  0.00    +0.085 C 
ENDROOT
BRANCH  12  17
ATOM      4  O   UNL     1      -8.150 -10.453  10.632  0.00  0.00    -0.336 OA
ATOM      9  N   UNL     1      -6.669  -9.191  11.742  0.00  0.00    -0.190 NA
ATOM     10  N   UNL     1      -8.351 -10.722  11.993  0.00  0.00    -0.056 NA
ATOM     17  C   UNL     1      -7.143  -9.544  10.573  0.00  0.00    +0.245 A 
ATOM     21  C   UNL     1      -7.441  -9.941  12.581  0.00  0.00    +0.204 A 
BRANCH  21  24
ATOM     11  N   UNL     1      -8.289  -9.752  16.197  0.00  0.00    -0.221 NA
ATOM     24  C   UNL     1      -7.277  -9.886  14.005  0.00  0.00    +0.041 A 
ATOM     26  C   UNL     1      -6.013  -9.909  14.582  0.00  0.00    +0.018 A 
ATOM     27  C   UNL     1      -8.374  -9.807  14.849  0.00  0.00    +0.126 A 
ATOM     28  C   UNL     1      -5.885  -9.853  15.966  0.00  0.00    +0.068 A 
ATOM     29  C   UNL     1      -7.043  -9.776  16.722  0.00  0.00    +0.215 A 
BRANCH  29   6
ATOM      6  O   UNL     1      -6.944  -9.720  18.087  0.00  0.00    -0.474 OA
BRANCH   6  31
ATOM     31  C   UNL     1      -7.581 -10.762  18.818  0.00  0.00    +0.258 C 
BRANCH  31  32
ATOM     32  C   UNL     1      -6.622 -11.929  18.953  0.00  0.00    +0.200 C 
BRANCH  32   7
ATOM      7  O   UNL     1      -5.466 -11.501  19.664  0.00  0.00    -0.380 OA
ATOM     33  C   UNL     1      -4.272 -11.874  18.991  0.00  0.00    +0.194 C 
ENDBRANCH  32   7
ENDBRANCH  31  32
ENDBRANCH   6  31
ENDBRANCH  29   6
ENDBRANCH  21  24
ENDBRANCH  12  17
BRANCH   8  16
ATOM     16  C   UNL     1      -4.283  -9.146   9.137  0.00  0.00    +0.120 C 
BRANCH  16  18
ATOM     18  C   UNL     1      -3.562  -9.985  10.159  0.00  0.00    -0.033 A 
ATOM     19  C   UNL     1      -3.949 -11.307  10.375  0.00  0.00    +0.008 A 
ATOM     20  C   UNL     1      -2.509  -9.438  10.892  0.00  0.00    +0.008 A 
ATOM     22  C   UNL     1      -3.282 -12.084  11.322  0.00  0.00    +0.046 A 
ATOM     23  C   UNL     1      -1.842 -10.215  11.839  0.00  0.00    +0.046 A 
ATOM     25  C   UNL     1      -2.228 -11.538  12.055  0.00  0.00    +0.130 A 
BRANCH  25   5
ATOM      5  O   UNL     1      -1.577 -12.295  12.978  0.00  0.00    -0.406 OA
BRANCH   5  30
ATOM      1  F   UNL     1      -3.115 -11.445  14.396  0.00  0.00    -0.133 F 
ATOM      2  F   UNL     1      -2.394 -13.476  14.759  0.00  0.00    -0.133 F 
ATOM      3  F   UNL     1      -1.081 -11.739  15.141  0.00  0.00    -0.133 F 
ATOM     30  C   UNL     1      -2.030 -12.250  14.327  0.00  0.00    +0.575 C 
ENDBRANCH   5  30
ENDBRANCH  25   5
ENDBRANCH  16  18
ENDBRANCH   8  16
TORSDOF 10
ENDMDL
MODEL 7
REMARK VINA RESULT:      -6.4     27.990     30.394
REMARK  Name = 45783542
REMARK  11 active torsions:
REMARK  status: ('A' for Active; 'I' for Inactive)
REMARK    1  A    between atoms: O_5  and  C_25
REMARK    2  A    between atoms: O_5  and  C_30
REMARK    3  A    between atoms: O_6  and  C_29
REMARK    4  A    between atoms: O_6  and  C_31
REMARK    5  A    between atoms: O_7  and  C_32
REMARK    6  A    between atoms: O_7  and  C_33
REMARK    7  A    between atoms: N_8  and  C_16
REMARK    8  A    between atoms: C_12  and  C_17
REMARK    9  A    between atoms: C_16  and  C_18
REMARK   10  A    between atoms: C_21  and  C_24
REMARK   11  A    between atoms: C_31  and  C_32
REMARK                            x       y       z     vdW  Elec       q    Type
REMARK                         _______ _______ _______ _____ _____    ______ ____
ROOT
ATOM      8  N   UNL     1      -9.964 -11.812  19.115  0.00  0.00    -0.287 NA
ATOM     12  C   UNL     1      -8.802 -12.286  19.893  0.00  0.00    +0.146 C 
ATOM     13  C   UNL     1      -8.947 -13.818  19.918  0.00  0.00    +0.030 C 
ATOM     14  C   UNL     1     -10.249 -14.107  19.182  0.00  0.00    +0.017 C 
ATOM     15  C   UNL     1     -11.020 -12.808  19.299  0.00  0.00    +0.085 C 
ENDROOT
BRANCH  12  17
ATOM      4  O   UNL     1      -6.714 -11.032  20.086  0.00  0.00    -0.336 OA
ATOM      9  N   UNL     1      -6.961 -12.099  18.133  0.00  0.00    -0.190 NA
ATOM     10  N   UNL     1      -5.564 -10.747  19.338  0.00  0.00    -0.056 NA
ATOM     17  C   UNL     1      -7.483 -11.833  19.304  0.00  0.00    +0.245 A 
ATOM     21  C   UNL     1      -5.784 -11.412  18.200  0.00  0.00    +0.204 A 
BRANCH  21  24
ATOM     11  N   UNL     1      -4.382 -11.890  14.790  0.00  0.00    -0.221 NA
ATOM     24  C   UNL     1      -4.849 -11.411  17.113  0.00  0.00    +0.041 A 
ATOM     26  C   UNL     1      -3.547 -10.956  17.288  0.00  0.00    +0.018 A 
ATOM     27  C   UNL     1      -5.214 -11.865  15.855  0.00  0.00    +0.126 A 
ATOM     28  C   UNL     1      -2.662 -10.967  16.215  0.00  0.00    +0.068 A 
ATOM     29  C   UNL     1      -3.124 -11.440  14.998  0.00  0.00    +0.215 A 
BRANCH  29   6
ATOM      6  O   UNL     1      -2.272 -11.462  13.926  0.00  0.00    -0.474 OA
BRANCH   6  31
ATOM     31  C   UNL     1      -2.242 -10.298  13.109  0.00  0.00    +0.258 C 
BRANCH  31  32
ATOM     32  C   UNL     1      -2.483 -10.701  11.666  0.00  0.00    +0.200 C 
BRANCH  32   7
ATOM      7  O   UNL     1      -2.208  -9.589  10.821  0.00  0.00    -0.380 OA
ATOM     33  C   UNL     1      -3.366  -9.172  10.114  0.00  0.00    +0.194 C 
ENDBRANCH  32   7
ENDBRANCH  31  32
ENDBRANCH   6  31
ENDBRANCH  29   6
ENDBRANCH  21  24
ENDBRANCH  12  17
BRANCH   8  16
ATOM     16  C   UNL     1     -10.401 -10.474  19.491  0.00  0.00    +0.120 C 
BRANCH  16  18
ATOM     18  C   UNL     1     -10.702  -9.623  18.286  0.00  0.00    -0.033 A 
ATOM     19  C   UNL     1     -12.025  -9.353  17.934  0.00  0.00    +0.008 A 
ATOM     20  C   UNL     1      -9.658  -9.107  17.520  0.00  0.00    +0.008 A 
ATOM     22  C   UNL     1     -12.303  -8.565  16.817  0.00  0.00    +0.046 A 
ATOM     23  C   UNL     1      -9.936  -8.319  16.402  0.00  0.00    +0.046 A 
ATOM     25  C   UNL     1     -11.258  -8.048  16.051  0.00  0.00    +0.130 A 
BRANCH  25   5
ATOM      5  O   UNL     1     -11.530  -7.279  14.962  0.00  0.00    -0.406 OA
BRANCH   5  30
ATOM      1  F   UNL     1     -13.183  -5.797  15.366  0.00  0.00    -0.133 F 
ATOM      2  F   UNL     1     -11.225  -5.422  16.262  0.00  0.00    -0.133 F 
ATOM      3  F   UNL     1     -11.527  -5.166  14.087  0.00  0.00    -0.133 F 
ATOM     30  C   UNL     1     -11.850  -5.907  15.168  0.00  0.00    +0.575 C 
ENDBRANCH   5  30
ENDBRANCH  25   5
ENDBRANCH  16  18
ENDBRANCH   8  16
TORSDOF 10
ENDMDL
MODEL 8
REMARK VINA RESULT:      -6.4      1.631      2.472
REMARK  Name = 45783542
REMARK  11 active torsions:
REMARK  status: ('A' for Active; 'I' for Inactive)
REMARK    1  A    between atoms: O_5  and  C_25
REMARK    2  A    between atoms: O_5  and  C_30
REMARK    3  A    between atoms: O_6  and  C_29
REMARK    4  A    between atoms: O_6  and  C_31
REMARK    5  A    between atoms: O_7  and  C_32
REMARK    6  A    between atoms: O_7  and  C_33
REMARK    7  A    between atoms: N_8  and  C_16
REMARK    8  A    between atoms: C_12  and  C_17
REMARK    9  A    between atoms: C_16  and  C_18
REMARK   10  A    between atoms: C_21  and  C_24
REMARK   11  A    between atoms: C_31  and  C_32
REMARK                            x       y       z     vdW  Elec       q    Type
REMARK                         _______ _______ _______ _____ _____    ______ ____
ROOT
ATOM      8  N   UNL     1      13.804   9.100  19.059  0.00  0.00    -0.287 NA
ATOM     12  C   UNL     1      13.824   7.796  19.752  0.00  0.00    +0.146 C 
ATOM     13  C   UNL     1      12.719   6.972  19.067  0.00  0.00    +0.030 C 
ATOM     14  C   UNL     1      12.095   7.914  18.046  0.00  0.00    +0.017 C 
ATOM     15  C   UNL     1      12.435   9.291  18.578  0.00  0.00    +0.085 C 
ENDROOT
BRANCH  12  17
ATOM      4  O   UNL     1      15.412   6.334  18.608  0.00  0.00    -0.336 OA
ATOM      9  N   UNL     1      16.178   7.186  20.533  0.00  0.00    -0.190 NA
ATOM     10  N   UNL     1      16.709   5.828  18.770  0.00  0.00    -0.056 NA
ATOM     17  C   UNL     1      15.179   7.123  19.689  0.00  0.00    +0.245 A 
ATOM     21  C   UNL     1      17.093   6.376  19.927  0.00  0.00    +0.204 A 
BRANCH  21  24
ATOM     11  N   UNL     1      20.462   4.899  20.470  0.00  0.00    -0.221 NA
ATOM     24  C   UNL     1      18.385   6.135  20.503  0.00  0.00    +0.041 A 
ATOM     26  C   UNL     1      18.821   6.854  21.609  0.00  0.00    +0.018 A 
ATOM     27  C   UNL     1      19.235   5.176  19.976  0.00  0.00    +0.126 A 
ATOM     28  C   UNL     1      20.078   6.597  22.147  0.00  0.00    +0.068 A 
ATOM     29  C   UNL     1      20.853   5.619  21.547  0.00  0.00    +0.215 A 
BRANCH  29   6
ATOM      6  O   UNL     1      22.094   5.347  22.058  0.00  0.00    -0.474 OA
BRANCH   6  31
ATOM     31  C   UNL     1      22.365   3.992  22.394  0.00  0.00    +0.258 C 
BRANCH  31  32
ATOM     32  C   UNL     1      22.981   3.940  23.779  0.00  0.00    +0.200 C 
BRANCH  32   7
ATOM      7  O   UNL     1      22.122   4.611  24.695  0.00  0.00    -0.380 OA
ATOM     33  C   UNL     1      22.844   5.512  25.522  0.00  0.00    +0.194 C 
ENDBRANCH  32   7
ENDBRANCH  31  32
ENDBRANCH   6  31
ENDBRANCH  29   6
ENDBRANCH  21  24
ENDBRANCH  12  17
BRANCH   8  16
ATOM     16  C   UNL     1      14.249  10.204  19.899  0.00  0.00    +0.120 C 
BRANCH  16  18
ATOM     18  C   UNL     1      13.220  10.566  20.938  0.00  0.00    -0.033 A 
ATOM     19  C   UNL     1      13.089   9.791  22.090  0.00  0.00    +0.008 A 
ATOM     20  C   UNL     1      12.398  11.676  20.747  0.00  0.00    +0.008 A 
ATOM     22  C   UNL     1      12.137  10.127  23.053  0.00  0.00    +0.046 A 
ATOM     23  C   UNL     1      11.445  12.011  21.709  0.00  0.00    +0.046 A 
ATOM     25  C   UNL     1      11.314  11.237  22.862  0.00  0.00    +0.130 A 
BRANCH  25   5
ATOM      5  O   UNL     1      10.385  11.565  23.800  0.00  0.00    -0.406 OA
BRANCH   5  30
ATOM      1  F   UNL     1       9.833  13.691  24.318  0.00  0.00    -0.133 F 
ATOM      2  F   UNL     1      10.411  12.354  25.946  0.00  0.00    -0.133 F 
ATOM      3  F   UNL     1      11.926  13.095  24.518  0.00  0.00    -0.133 F 
ATOM     30  C   UNL     1      10.652  12.670  24.657  0.00  0.00    +0.575 C 
ENDBRANCH   5  30
ENDBRANCH  25   5
ENDBRANCH  16  18
ENDBRANCH   8  16
TORSDOF 10
ENDMDL
MODEL 9
REMARK VINA RESULT:      -6.3     15.365     17.867
REMARK  Name = 45783542
REMARK  11 active torsions:
REMARK  status: ('A' for Active; 'I' for Inactive)
REMARK    1  A    between atoms: O_5  and  C_25
REMARK    2  A    between atoms: O_5  and  C_30
REMARK    3  A    between atoms: O_6  and  C_29
REMARK    4  A    between atoms: O_6  and  C_31
REMARK    5  A    between atoms: O_7  and  C_32
REMARK    6  A    between atoms: O_7  and  C_33
REMARK    7  A    between atoms: N_8  and  C_16
REMARK    8  A    between atoms: C_12  and  C_17
REMARK    9  A    between atoms: C_16  and  C_18
REMARK   10  A    between atoms: C_21  and  C_24
REMARK   11  A    between atoms: C_31  and  C_32
REMARK                            x       y       z     vdW  Elec       q    Type
REMARK                         _______ _______ _______ _____ _____    ______ ____
ROOT
ATOM      8  N   UNL     1       9.627   7.385   5.787  0.00  0.00    -0.287 NA
ATOM     12  C   UNL     1      10.486   8.344   6.511  0.00  0.00    +0.146 C 
ATOM     13  C   UNL     1       9.983   8.299   7.965  0.00  0.00    +0.030 C 
ATOM     14  C   UNL     1       8.804   7.335   7.949  0.00  0.00    +0.017 C 
ATOM     15  C   UNL     1       8.352   7.350   6.503  0.00  0.00    +0.085 C 
ENDROOT
BRANCH  12  17
ATOM      4  O   UNL     1      12.381   6.894   7.034  0.00  0.00    -0.336 OA
ATOM      9  N   UNL     1      12.905   8.655   5.752  0.00  0.00    -0.190 NA
ATOM     10  N   UNL     1      13.757   6.798   6.783  0.00  0.00    -0.056 NA
ATOM     17  C   UNL     1      11.959   8.013   6.391  0.00  0.00    +0.245 A 
ATOM     21  C   UNL     1      13.989   7.871   6.021  0.00  0.00    +0.204 A 
BRANCH  21  24
ATOM     11  N   UNL     1      16.963   7.899   3.790  0.00  0.00    -0.221 NA
ATOM     24  C   UNL     1      15.292   8.188   5.513  0.00  0.00    +0.041 A 
ATOM     26  C   UNL     1      16.139   9.049   6.201  0.00  0.00    +0.018 A 
ATOM     27  C   UNL     1      15.748   7.643   4.323  0.00  0.00    +0.126 A 
ATOM     28  C   UNL     1      17.398   9.337   5.684  0.00  0.00    +0.068 A 
ATOM     29  C   UNL     1      17.760   8.742   4.487  0.00  0.00    +0.215 A 
BRANCH  29   6
ATOM      6  O   UNL     1      18.994   9.009   3.957  0.00  0.00    -0.474 OA
BRANCH   6  31
ATOM     31  C   UNL     1      19.669   7.926   3.328  0.00  0.00    +0.258 C 
BRANCH  31  32
ATOM     32  C   UNL     1      20.456   7.159   4.372  0.00  0.00    +0.200 C 
BRANCH  32   7
ATOM      7  O   UNL     1      21.144   8.083   5.207  0.00  0.00    -0.380 OA
ATOM     33  C   UNL     1      20.885   7.837   6.582  0.00  0.00    +0.194 C 
ENDBRANCH  32   7
ENDBRANCH  31  32
ENDBRANCH   6  31
ENDBRANCH  29   6
ENDBRANCH  21  24
ENDBRANCH  12  17
BRANCH   8  16
ATOM     16  C   UNL     1       9.456   7.717   4.379  0.00  0.00    +0.120 C 
BRANCH  16  18
ATOM     18  C   UNL     1       9.978   6.627   3.479  0.00  0.00    -0.033 A 
ATOM     19  C   UNL     1       9.943   6.789   2.095  0.00  0.00    +0.008 A 
ATOM     20  C   UNL     1      10.496   5.456   4.032  0.00  0.00    +0.008 A 
ATOM     22  C   UNL     1      10.427   5.779   1.262  0.00  0.00    +0.046 A 
ATOM     23  C   UNL     1      10.980   4.447   3.200  0.00  0.00    +0.046 A 
ATOM     25  C   UNL     1      10.946   4.608   1.815  0.00  0.00    +0.130 A 
BRANCH  25   5
ATOM      5  O   UNL     1      11.418   3.624   1.003  0.00  0.00    -0.406 OA
BRANCH   5  30
ATOM      1  F   UNL     1      13.355   2.843   1.860  0.00  0.00    -0.133 F 
ATOM      2  F   UNL     1      13.117   2.842  -0.313  0.00  0.00    -0.133 F 
ATOM      3  F   UNL     1      13.401   4.742   0.779  0.00  0.00    -0.133 F 
ATOM     30  C   UNL     1      12.826   3.522   0.816  0.00  0.00    +0.575 C 
ENDBRANCH   5  30
ENDBRANCH  25   5
ENDBRANCH  16  18
ENDBRANCH   8  16
TORSDOF 10
ENDMDL
MODEL 10
REMARK VINA RESULT:      -6.2     16.185     19.791
REMARK  Name = 45783542
REMARK  11 active torsions:
REMARK  status: ('A' for Active; 'I' for Inactive)
REMARK    1  A    between atoms: O_5  and  C_25
REMARK    2  A    between atoms: O_5  and  C_30
REMARK    3  A    between atoms: O_6  and  C_29
REMARK    4  A    between atoms: O_6  and  C_31
REMARK    5  A    between atoms: O_7  and  C_32
REMARK    6  A    between atoms: O_7  and  C_33
REMARK    7  A    between atoms: N_8  and  C_16
REMARK    8  A    between atoms: C_12  and  C_17
REMARK    9  A    between atoms: C_16  and  C_18
REMARK   10  A    between atoms: C_21  and  C_24
REMARK   11  A    between atoms: C_31  and  C_32
REMARK                            x       y       z     vdW  Elec       q    Type
REMARK                         _______ _______ _______ _____ _____    ______ ____
ROOT
ATOM      8  N   UNL     1      13.518   7.648   4.727  0.00  0.00    -0.287 NA
ATOM     12  C   UNL     1      14.289   7.767   3.473  0.00  0.00    +0.146 C 
ATOM     13  C   UNL     1      15.751   7.926   3.926  0.00  0.00    +0.030 C 
ATOM     14  C   UNL     1      15.697   7.944   5.448  0.00  0.00    +0.017 C 
ATOM     15  C   UNL     1      14.275   8.373   5.748  0.00  0.00    +0.085 C 
ENDROOT
BRANCH  12  17
ATOM      4  O   UNL     1      15.045   5.621   2.585  0.00  0.00    -0.336 OA
ATOM      9  N   UNL     1      13.115   6.344   1.707  0.00  0.00    -0.190 NA
ATOM     10  N   UNL     1      14.647   4.646   1.660  0.00  0.00    -0.056 NA
ATOM     17  C   UNL     1      14.088   6.584   2.551  0.00  0.00    +0.245 A 
ATOM     21  C   UNL     1      13.502   5.144   1.186  0.00  0.00    +0.204 A 
BRANCH  21  24
ATOM     11  N   UNL     1      10.552   4.013  -0.774  0.00  0.00    -0.221 NA
ATOM     24  C   UNL     1      12.721   4.467   0.191  0.00  0.00    +0.041 A 
ATOM     26  C   UNL     1      13.321   3.635  -0.747  0.00  0.00    +0.018 A 
ATOM     27  C   UNL     1      11.345   4.621   0.136  0.00  0.00    +0.126 A 
ATOM     28  C   UNL     1      12.537   2.991  -1.699  0.00  0.00    +0.068 A 
ATOM     29  C   UNL     1      11.170   3.211  -1.670  0.00  0.00    +0.215 A 
BRANCH  29   6
ATOM      6  O   UNL     1      10.377   2.588  -2.597  0.00  0.00    -0.474 OA
BRANCH   6  31
ATOM     31  C   UNL     1      10.562   2.967  -3.956  0.00  0.00    +0.258 C 
BRANCH  31  32
ATOM     32  C   UNL     1       9.243   3.466  -4.515  0.00  0.00    +0.200 C 
BRANCH  32   7
ATOM      7  O   UNL     1       8.808   4.585  -3.752  0.00  0.00    -0.380 OA
ATOM     33  C   UNL     1       9.412   5.789  -4.202  0.00  0.00    +0.194 C 
ENDBRANCH  32   7
ENDBRANCH  31  32
ENDBRANCH   6  31
ENDBRANCH  29   6
ENDBRANCH  21  24
ENDBRANCH  12  17
BRANCH   8  16
ATOM     16  C   UNL     1      12.150   8.135   4.610  0.00  0.00    +0.120 C 
BRANCH  16  18
ATOM     18  C   UNL     1      11.246   7.519   5.645  0.00  0.00    -0.033 A 
ATOM     19  C   UNL     1      10.813   8.276   6.733  0.00  0.00    +0.008 A 
ATOM     20  C   UNL     1      10.843   6.190   5.515  0.00  0.00    +0.008 A 
ATOM     22  C   UNL     1       9.976   7.704   7.692  0.00  0.00    +0.046 A 
ATOM     23  C   UNL     1      10.006   5.618   6.474  0.00  0.00    +0.046 A 
ATOM     25  C   UNL     1       9.572   6.375   7.562  0.00  0.00    +0.130 A 
BRANCH  25   5
ATOM      5  O   UNL     1       8.756   5.818   8.496  0.00  0.00    -0.406 OA
BRANCH   5  30
ATOM      1  F   UNL     1       8.494   4.813  10.501  0.00  0.00    -0.133 F 
ATOM      2  F   UNL     1       9.478   3.687   8.908  0.00  0.00    -0.133 F 
ATOM      3  F   UNL     1      10.516   5.374   9.889  0.00  0.00    -0.133 F 
ATOM     30  C   UNL     1       9.327   4.918   9.440  0.00  0.00    +0.575 C 
ENDBRANCH   5  30
ENDBRANCH  25   5
ENDBRANCH  16  18
ENDBRANCH   8  16
TORSDOF 10
ENDMDL
