MODEL 1
REMARK VINA RESULT:      -7.1      0.000      0.000
REMARK  Name = 11879567
REMARK  7 active torsions:
REMARK  status: ('A' for Active; 'I' for Inactive)
REMARK    1  A    between atoms: O_3  and  C_20
REMARK    2  A    between atoms: O_3  and  C_25
REMARK    3  A    between atoms: N_6  and  C_15
REMARK    4  A    between atoms: N_7  and  C_16
REMARK    5  A    between atoms: N_12  and  C_28
REMARK    6  A    between atoms: N_12  and  C_31
REMARK    7  A    between atoms: N_12  and  C_32
REMARK                            x       y       z     vdW  Elec       q    Type
REMARK                         _______ _______ _______ _____ _____    ______ ____
ROOT
ATOM      1  O   UNL     1      14.116   7.328  17.696  0.00  0.00    -0.370 OA
ATOM      2  O   UNL     1      13.812   8.353  20.655  0.00  0.00    -0.370 OA
ATOM     13  C   UNL     1      14.373   8.918  19.455  0.00  0.00    +0.176 C 
ATOM     14  C   UNL     1      15.039   7.786  18.696  0.00  0.00    +0.171 C 
ATOM     15  C   UNL     1      13.259   9.392  18.540  0.00  0.00    +0.171 C 
ATOM     16  C   UNL     1      15.257   6.714  19.740  0.00  0.00    +0.131 C 
ATOM     17  C   UNL     1      12.940   8.148  17.717  0.00  0.00    +0.190 C 
ATOM     18  C   UNL     1      14.097   6.948  20.691  0.00  0.00    +0.185 C 
ENDROOT
BRANCH  16   7
ATOM      4  O   UNL     1      17.684   5.504  18.992  0.00  0.00    -0.253 OA
ATOM      5  O   UNL     1      21.344   7.357  21.728  0.00  0.00    -0.377 OA
ATOM      7  N   UNL     1      16.526   6.885  20.411  0.00  0.00    -0.292 N 
ATOM      9  N   UNL     1      18.837   6.509  20.735  0.00  0.00    -0.281 N 
ATOM     19  C   UNL     1      17.683   6.250  19.977  0.00  0.00    +0.303 C 
ATOM     21  C   UNL     1      20.060   5.753  20.456  0.00  0.00    +0.137 C 
ATOM     22  C   UNL     1      18.921   7.380  21.916  0.00  0.00    +0.137 C 
ATOM     23  C   UNL     1      21.280   6.660  20.483  0.00  0.00    +0.179 C 
ATOM     24  C   UNL     1      20.204   8.202  21.895  0.00  0.00    +0.179 C 
ATOM     33  H   UNL     1      16.504   7.350  21.308  0.00  0.00    +0.151 HD
ENDBRANCH  16   7
BRANCH  15   6
ATOM      6  N   UNL     1      13.638  10.573  17.759  0.00  0.00    -0.187 N 
ATOM      8  N   UNL     1      13.644  10.539  16.423  0.00  0.00    -0.041 NA
ATOM     10  N   UNL     1      14.265  12.550  17.156  0.00  0.00    -0.071 NA
ATOM     11  N   UNL     1      14.029  11.756  16.057  0.00  0.00    -0.020 NA
ATOM     20  C   UNL     1      14.016  11.795  18.200  0.00  0.00    +0.342 A 
BRANCH  20   3
ATOM      3  O   UNL     1      14.112  12.146  19.469  0.00  0.00    -0.423 OA
BRANCH   3  25
ATOM     25  C   UNL     1      13.006  12.486  20.236  0.00  0.00    +0.134 A 
ATOM     26  C   UNL     1      12.581  11.615  21.221  0.00  0.00    +0.069 A 
ATOM     27  C   UNL     1      12.365  13.685  19.993  0.00  0.00    +0.046 A 
ATOM     28  C   UNL     1      11.469  11.956  21.992  0.00  0.00    +0.033 A 
ATOM     29  C   UNL     1      11.253  14.026  20.764  0.00  0.00    +0.005 A 
ATOM     30  C   UNL     1      10.806  13.162  21.764  0.00  0.00    +0.023 A 
BRANCH  28  12
ATOM     12  N   UNL     1      11.017  11.082  23.002  0.00  0.00    -0.336 N 
ATOM     31  C   UNL     1      10.662   9.714  22.683  0.00  0.00    +0.129 C 
ATOM     32  C   UNL     1      10.888  11.545  24.369  0.00  0.00    +0.129 C 
ENDBRANCH  28  12
ENDBRANCH   3  25
ENDBRANCH  20   3
ENDBRANCH  15   6
TORSDOF 5
ENDMDL
MODEL 2
REMARK VINA RESULT:      -7.1      3.063      6.885
REMARK  Name = 11879567
REMARK  7 active torsions:
REMARK  status: ('A' for Active; 'I' for Inactive)
REMARK    1  A    between atoms: O_3  and  C_20
REMARK    2  A    between atoms: O_3  and  C_25
REMARK    3  A    between atoms: N_6  and  C_15
REMARK    4  A    between atoms: N_7  and  C_16
REMARK    5  A    between atoms: N_12  and  C_28
REMARK    6  A    between atoms: N_12  and  C_31
REMARK    7  A    between atoms: N_12  and  C_32
REMARK                            x       y       z     vdW  Elec       q    Type
REMARK                         _______ _______ _______ _____ _____    ______ ____
ROOT
ATOM      1  O   UNL     1      13.879  12.886  17.742  0.00  0.00    -0.370 OA
ATOM      2  O   UNL     1      15.766  11.329  19.719  0.00  0.00    -0.370 OA
ATOM     13  C   UNL     1      14.583  10.973  18.980  0.00  0.00    +0.176 C 
ATOM     14  C   UNL     1      13.674  12.187  18.980  0.00  0.00    +0.171 C 
ATOM     15  C   UNL     1      14.934  10.754  17.520  0.00  0.00    +0.171 C 
ATOM     16  C   UNL     1      14.164  13.022  20.141  0.00  0.00    +0.131 C 
ATOM     17  C   UNL     1      14.798  12.151  16.922  0.00  0.00    +0.190 C 
ATOM     18  C   UNL     1      15.643  12.680  20.183  0.00  0.00    +0.185 C 
ENDROOT
BRANCH  16   7
ATOM      4  O   UNL     1      12.922  14.790  21.942  0.00  0.00    -0.253 OA
ATOM      5  O   UNL     1      10.568  12.198  25.414  0.00  0.00    -0.377 OA
ATOM      7  N   UNL     1      13.505  12.647  21.372  0.00  0.00    -0.292 N 
ATOM      9  N   UNL     1      12.319  13.067  23.372  0.00  0.00    -0.281 N 
ATOM     19  C   UNL     1      12.914  13.584  22.209  0.00  0.00    +0.303 C 
ATOM     21  C   UNL     1      11.822  13.993  24.393  0.00  0.00    +0.137 C 
ATOM     22  C   UNL     1      12.266  11.651  23.763  0.00  0.00    +0.137 C 
ATOM     23  C   UNL     1      10.475  13.540  24.932  0.00  0.00    +0.179 C 
ATOM     24  C   UNL     1      10.905  11.302  24.354  0.00  0.00    +0.179 C 
ATOM     33  H   UNL     1      13.641  11.694  21.684  0.00  0.00    +0.151 HD
ENDBRANCH  16   7
BRANCH  15   6
ATOM      6  N   UNL     1      14.102   9.726  16.891  0.00  0.00    -0.187 N 
ATOM      8  N   UNL     1      13.163  10.055  15.998  0.00  0.00    -0.041 NA
ATOM     10  N   UNL     1      13.206   7.847  16.309  0.00  0.00    -0.071 NA
ATOM     11  N   UNL     1      12.616   8.898  15.644  0.00  0.00    -0.020 NA
ATOM     20  C   UNL     1      14.125   8.386  17.077  0.00  0.00    +0.342 A 
BRANCH  20   3
ATOM      3  O   UNL     1      14.940   7.748  17.897  0.00  0.00    -0.423 OA
BRANCH   3  25
ATOM     25  C   UNL     1      14.714   7.669  19.264  0.00  0.00    +0.134 A 
ATOM     26  C   UNL     1      13.421   7.491  19.719  0.00  0.00    +0.069 A 
ATOM     27  C   UNL     1      15.786   7.769  20.129  0.00  0.00    +0.046 A 
ATOM     28  C   UNL     1      13.192   7.412  21.093  0.00  0.00    +0.033 A 
ATOM     29  C   UNL     1      15.557   7.690  21.502  0.00  0.00    +0.005 A 
ATOM     30  C   UNL     1      14.261   7.510  21.985  0.00  0.00    +0.023 A 
BRANCH  28  12
ATOM     12  N   UNL     1      11.881   7.232  21.580  0.00  0.00    -0.336 N 
ATOM     31  C   UNL     1      11.145   8.348  22.139  0.00  0.00    +0.129 C 
ATOM     32  C   UNL     1      11.258   5.924  21.539  0.00  0.00    +0.129 C 
ENDBRANCH  28  12
ENDBRANCH   3  25
ENDBRANCH  20   3
ENDBRANCH  15   6
TORSDOF 5
ENDMDL
MODEL 3
REMARK VINA RESULT:      -6.8      3.460      6.474
REMARK  Name = 11879567
REMARK  7 active torsions:
REMARK  status: ('A' for Active; 'I' for Inactive)
REMARK    1  A    between atoms: O_3  and  C_20
REMARK    2  A    between atoms: O_3  and  C_25
REMARK    3  A    between atoms: N_6  and  C_15
REMARK    4  A    between atoms: N_7  and  C_16
REMARK    5  A    between atoms: N_12  and  C_28
REMARK    6  A    between atoms: N_12  and  C_31
REMARK    7  A    between atoms: N_12  and  C_32
REMARK                            x       y       z     vdW  Elec       q    Type
REMARK                         _______ _______ _______ _____ _____    ______ ____
ROOT
ATOM      1  O   UNL     1      11.480   9.190  16.711  0.00  0.00    -0.370 OA
ATOM      2  O   UNL     1      14.296   7.795  16.851  0.00  0.00    -0.370 OA
ATOM     13  C   UNL     1      13.466   8.467  17.816  0.00  0.00    +0.176 C 
ATOM     14  C   UNL     1      12.793   9.623  17.100  0.00  0.00    +0.171 C 
ATOM     15  C   UNL     1      12.325   7.558  18.236  0.00  0.00    +0.171 C 
ATOM     16  C   UNL     1      13.653   9.857  15.879  0.00  0.00    +0.131 C 
ATOM     17  C   UNL     1      11.246   7.864  17.204  0.00  0.00    +0.190 C 
ATOM     18  C   UNL     1      14.188   8.466  15.589  0.00  0.00    +0.185 C 
ENDROOT
BRANCH  16   7
ATOM      4  O   UNL     1      15.262  11.141  13.962  0.00  0.00    -0.253 OA
ATOM      5  O   UNL     1      18.143  14.456  16.204  0.00  0.00    -0.377 OA
ATOM      7  N   UNL     1      14.727  10.782  16.163  0.00  0.00    -0.292 N 
ATOM      9  N   UNL     1      16.490  12.246  15.589  0.00  0.00    -0.281 N 
ATOM     19  C   UNL     1      15.477  11.376  15.156  0.00  0.00    +0.303 C 
ATOM     21  C   UNL     1      17.438  12.784  14.609  0.00  0.00    +0.137 C 
ATOM     22  C   UNL     1      16.811  12.578  16.984  0.00  0.00    +0.137 C 
ATOM     23  C   UNL     1      17.704  14.260  14.859  0.00  0.00    +0.179 C 
ATOM     24  C   UNL     1      17.129  14.062  17.130  0.00  0.00    +0.179 C 
ATOM     33  H   UNL     1      15.022  10.848  17.128  0.00  0.00    +0.151 HD
ENDBRANCH  16   7
BRANCH  15   6
ATOM      6  N   UNL     1      11.927   7.765  19.631  0.00  0.00    -0.187 N 
ATOM      8  N   UNL     1      10.841   8.482  19.935  0.00  0.00    -0.041 NA
ATOM     10  N   UNL     1      11.829   7.737  21.789  0.00  0.00    -0.071 NA
ATOM     11  N   UNL     1      10.785   8.461  21.262  0.00  0.00    -0.020 NA
ATOM     20  C   UNL     1      12.524   7.315  20.759  0.00  0.00    +0.342 A 
BRANCH  20   3
ATOM      3  O   UNL     1      13.620   6.578  20.794  0.00  0.00    -0.423 OA
BRANCH   3  25
ATOM     25  C   UNL     1      14.892   7.132  20.825  0.00  0.00    +0.134 A 
ATOM     26  C   UNL     1      15.062   8.388  21.376  0.00  0.00    +0.069 A 
ATOM     27  C   UNL     1      15.950   6.412  20.305  0.00  0.00    +0.046 A 
ATOM     28  C   UNL     1      16.341   8.946  21.407  0.00  0.00    +0.033 A 
ATOM     29  C   UNL     1      17.228   6.970  20.337  0.00  0.00    +0.005 A 
ATOM     30  C   UNL     1      17.424   8.236  20.888  0.00  0.00    +0.023 A 
BRANCH  28  12
ATOM     12  N   UNL     1      16.537  10.227  21.964  0.00  0.00    -0.336 N 
ATOM     31  C   UNL     1      17.841  10.857  21.912  0.00  0.00    +0.129 C 
ATOM     32  C   UNL     1      15.440  10.922  22.606  0.00  0.00    +0.129 C 
ENDBRANCH  28  12
ENDBRANCH   3  25
ENDBRANCH  20   3
ENDBRANCH  15   6
TORSDOF 5
ENDMDL
MODEL 4
REMARK VINA RESULT:      -6.7     27.716     29.879
REMARK  Name = 11879567
REMARK  7 active torsions:
REMARK  status: ('A' for Active; 'I' for Inactive)
REMARK    1  A    between atoms: O_3  and  C_20
REMARK    2  A    between atoms: O_3  and  C_25
REMARK    3  A    between atoms: N_6  and  C_15
REMARK    4  A    between atoms: N_7  and  C_16
REMARK    5  A    between atoms: N_12  and  C_28
REMARK    6  A    between atoms: N_12  and  C_31
REMARK    7  A    between atoms: N_12  and  C_32
REMARK                            x       y       z     vdW  Elec       q    Type
REMARK                         _______ _______ _______ _____ _____    ______ ____
ROOT
ATOM      1  O   UNL     1      -4.677 -12.954  17.190  0.00  0.00    -0.370 OA
ATOM      2  O   UNL     1      -3.888  -9.911  17.060  0.00  0.00    -0.370 OA
ATOM     13  C   UNL     1      -5.141 -10.615  17.142  0.00  0.00    +0.176 C 
ATOM     14  C   UNL     1      -5.004 -11.872  16.304  0.00  0.00    +0.171 C 
ATOM     15  C   UNL     1      -5.359 -11.118  18.557  0.00  0.00    +0.171 C 
ATOM     16  C   UNL     1      -3.843 -11.580  15.380  0.00  0.00    +0.131 C 
ATOM     17  C   UNL     1      -4.678 -12.482  18.544  0.00  0.00    +0.190 C 
ATOM     18  C   UNL     1      -2.989 -10.647  16.219  0.00  0.00    +0.185 C 
ENDROOT
BRANCH  16   7
ATOM      4  O   UNL     1      -2.361 -11.363  12.999  0.00  0.00    -0.253 OA
ATOM      5  O   UNL     1      -5.222  -9.458   9.463  0.00  0.00    -0.377 OA
ATOM      7  N   UNL     1      -4.288 -10.933  14.166  0.00  0.00    -0.292 N 
ATOM      9  N   UNL     1      -4.061 -10.202  11.931  0.00  0.00    -0.281 N 
ATOM     19  C   UNL     1      -3.493 -10.869  13.029  0.00  0.00    +0.303 C 
ATOM     21  C   UNL     1      -3.235  -9.937  10.750  0.00  0.00    +0.137 C 
ATOM     22  C   UNL     1      -5.395  -9.588  11.884  0.00  0.00    +0.137 C 
ATOM     23  C   UNL     1      -4.007 -10.210   9.470  0.00  0.00    +0.179 C 
ATOM     24  C   UNL     1      -6.069  -9.854  10.543  0.00  0.00    +0.179 C 
ATOM     33  H   UNL     1      -5.133 -10.381  14.232  0.00  0.00    +0.151 HD
ENDBRANCH  16   7
BRANCH  15   6
ATOM      6  N   UNL     1      -6.774 -11.133  18.936  0.00  0.00    -0.187 N 
ATOM      8  N   UNL     1      -7.234 -12.009  19.835  0.00  0.00    -0.041 NA
ATOM     10  N   UNL     1      -8.886 -10.705  19.099  0.00  0.00    -0.071 NA
ATOM     11  N   UNL     1      -8.531 -11.742  19.931  0.00  0.00    -0.020 NA
ATOM     20  C   UNL     1      -7.779 -10.344  18.491  0.00  0.00    +0.342 A 
BRANCH  20   3
ATOM      3  O   UNL     1      -7.648  -9.381  17.598  0.00  0.00    -0.423 OA
BRANCH   3  25
ATOM     25  C   UNL     1      -8.477  -9.271  16.490  0.00  0.00    +0.134 A 
ATOM     26  C   UNL     1      -9.416  -8.258  16.455  0.00  0.00    +0.069 A 
ATOM     27  C   UNL     1      -8.339 -10.177  15.456  0.00  0.00    +0.046 A 
ATOM     28  C   UNL     1     -10.251  -8.147  15.342  0.00  0.00    +0.033 A 
ATOM     29  C   UNL     1      -9.173 -10.066  14.344  0.00  0.00    +0.005 A 
ATOM     30  C   UNL     1     -10.129  -9.051  14.286  0.00  0.00    +0.023 A 
BRANCH  28  12
ATOM     12  N   UNL     1     -11.217  -7.121  15.285  0.00  0.00    -0.336 N 
ATOM     31  C   UNL     1     -11.244  -6.082  16.294  0.00  0.00    +0.129 C 
ATOM     32  C   UNL     1     -12.203  -7.102  14.223  0.00  0.00    +0.129 C 
ENDBRANCH  28  12
ENDBRANCH   3  25
ENDBRANCH  20   3
ENDBRANCH  15   6
TORSDOF 5
ENDMDL
MODEL 5
REMARK VINA RESULT:      -6.7      2.903      3.862
REMARK  Name = 11879567
REMARK  7 active torsions:
REMARK  status: ('A' for Active; 'I' for Inactive)
REMARK    1  A    between atoms: O_3  and  C_20
REMARK    2  A    between atoms: O_3  and  C_25
REMARK    3  A    between atoms: N_6  and  C_15
REMARK    4  A    between atoms: N_7  and  C_16
REMARK    5  A    between atoms: N_12  and  C_28
REMARK    6  A    between atoms: N_12  and  C_31
REMARK    7  A    between atoms: N_12  and  C_32
REMARK                            x       y       z     vdW  Elec       q    Type
REMARK                         _______ _______ _______ _____ _____    ______ ____
ROOT
ATOM      1  O   UNL     1      13.912   6.638  19.592  0.00  0.00    -0.370 OA
ATOM      2  O   UNL     1      14.232   9.488  20.884  0.00  0.00    -0.370 OA
ATOM     13  C   UNL     1      14.596   8.922  19.612  0.00  0.00    +0.176 C 
ATOM     14  C   UNL     1      15.034   7.493  19.866  0.00  0.00    +0.171 C 
ATOM     15  C   UNL     1      13.365   8.798  18.732  0.00  0.00    +0.171 C 
ATOM     16  C   UNL     1      15.370   7.462  21.340  0.00  0.00    +0.131 C 
ATOM     17  C   UNL     1      12.817   7.424  19.103  0.00  0.00    +0.190 C 
ATOM     18  C   UNL     1      14.425   8.504  21.909  0.00  0.00    +0.185 C 
ENDROOT
BRANCH  16   7
ATOM      4  O   UNL     1      17.616   5.982  20.514  0.00  0.00    -0.253 OA
ATOM      5  O   UNL     1      21.706   8.587  21.407  0.00  0.00    -0.377 OA
ATOM      7  N   UNL     1      16.750   7.825  21.570  0.00  0.00    -0.292 N 
ATOM      9  N   UNL     1      19.089   7.518  21.434  0.00  0.00    -0.281 N 
ATOM     19  C   UNL     1      17.806   7.037  21.128  0.00  0.00    +0.303 C 
ATOM     21  C   UNL     1      20.254   6.672  21.160  0.00  0.00    +0.137 C 
ATOM     22  C   UNL     1      19.401   8.758  22.159  0.00  0.00    +0.137 C 
ATOM     23  C   UNL     1      21.388   7.484  20.556  0.00  0.00    +0.179 C 
ATOM     24  C   UNL     1      20.591   9.472  21.527  0.00  0.00    +0.179 C 
ATOM     33  H   UNL     1      16.915   8.587  22.214  0.00  0.00    +0.151 HD
ENDBRANCH  16   7
BRANCH  15   6
ATOM      6  N   UNL     1      13.671   8.982  17.311  0.00  0.00    -0.187 N 
ATOM      8  N   UNL     1      13.638   7.949  16.463  0.00  0.00    -0.041 NA
ATOM     10  N   UNL     1      14.193   9.823  15.390  0.00  0.00    -0.071 NA
ATOM     11  N   UNL     1      13.960   8.471  15.285  0.00  0.00    -0.020 NA
ATOM     20  C   UNL     1      14.007  10.117  16.656  0.00  0.00    +0.342 A 
BRANCH  20   3
ATOM      3  O   UNL     1      14.125  11.308  17.215  0.00  0.00    -0.423 OA
BRANCH   3  25
ATOM     25  C   UNL     1      15.356  11.901  17.458  0.00  0.00    +0.134 A 
ATOM     26  C   UNL     1      15.880  11.854  18.736  0.00  0.00    +0.069 A 
ATOM     27  C   UNL     1      16.020  12.520  16.417  0.00  0.00    +0.046 A 
ATOM     28  C   UNL     1      17.118  12.451  18.982  0.00  0.00    +0.033 A 
ATOM     29  C   UNL     1      17.257  13.116  16.664  0.00  0.00    +0.005 A 
ATOM     30  C   UNL     1      17.806  13.081  17.945  0.00  0.00    +0.023 A 
BRANCH  28  12
ATOM     12  N   UNL     1      17.671  12.416  20.279  0.00  0.00    -0.336 N 
ATOM     31  C   UNL     1      18.831  13.222  20.604  0.00  0.00    +0.129 C 
ATOM     32  C   UNL     1      17.095  11.563  21.299  0.00  0.00    +0.129 C 
ENDBRANCH  28  12
ENDBRANCH   3  25
ENDBRANCH  20   3
ENDBRANCH  15   6
TORSDOF 5
ENDMDL
MODEL 6
REMARK VINA RESULT:      -6.6      3.127      5.809
REMARK  Name = 11879567
REMARK  7 active torsions:
REMARK  status: ('A' for Active; 'I' for Inactive)
REMARK    1  A    between atoms: O_3  and  C_20
REMARK    2  A    between atoms: O_3  and  C_25
REMARK    3  A    between atoms: N_6  and  C_15
REMARK    4  A    between atoms: N_7  and  C_16
REMARK    5  A    between atoms: N_12  and  C_28
REMARK    6  A    between atoms: N_12  and  C_31
REMARK    7  A    between atoms: N_12  and  C_32
REMARK                            x       y       z     vdW  Elec       q    Type
REMARK                         _______ _______ _______ _____ _____    ______ ____
ROOT
ATOM      1  O   UNL     1      12.296   6.762  18.831  0.00  0.00    -0.370 OA
ATOM      2  O   UNL     1      14.940   7.995  20.008  0.00  0.00    -0.370 OA
ATOM     13  C   UNL     1      13.546   8.337  20.114  0.00  0.00    +0.176 C 
ATOM     14  C   UNL     1      12.913   8.058  18.764  0.00  0.00    +0.171 C 
ATOM     15  C   UNL     1      12.852   7.383  21.069  0.00  0.00    +0.171 C 
ATOM     16  C   UNL     1      14.079   8.036  17.802  0.00  0.00    +0.131 C 
ATOM     17  C   UNL     1      12.426   6.237  20.159  0.00  0.00    +0.190 C 
ATOM     18  C   UNL     1      15.211   7.532  18.678  0.00  0.00    +0.185 C 
ENDROOT
BRANCH  16   7
ATOM      4  O   UNL     1      13.484   8.952  15.210  0.00  0.00    -0.253 OA
ATOM      5  O   UNL     1      14.426  13.784  14.930  0.00  0.00    -0.377 OA
ATOM      7  N   UNL     1      14.362   9.358  17.290  0.00  0.00    -0.292 N 
ATOM      9  N   UNL     1      14.379  11.048  15.639  0.00  0.00    -0.281 N 
ATOM     19  C   UNL     1      14.035   9.733  15.993  0.00  0.00    +0.303 C 
ATOM     21  C   UNL     1      14.229  11.476  14.246  0.00  0.00    +0.137 C 
ATOM     22  C   UNL     1      15.034  12.037  16.507  0.00  0.00    +0.137 C 
ATOM     23  C   UNL     1      13.636  12.874  14.164  0.00  0.00    +0.179 C 
ATOM     24  C   UNL     1      14.423  13.420  16.311  0.00  0.00    +0.179 C 
ATOM     33  H   UNL     1      14.960   9.943  17.857  0.00  0.00    +0.151 HD
ENDBRANCH  16   7
BRANCH  15   6
ATOM      6  N   UNL     1      11.764   8.025  21.811  0.00  0.00    -0.187 N 
ATOM      8  N   UNL     1      10.666   7.340  22.147  0.00  0.00    -0.041 NA
ATOM     10  N   UNL     1      10.525   9.445  22.869  0.00  0.00    -0.071 NA
ATOM     11  N   UNL     1       9.909   8.216  22.797  0.00  0.00    -0.020 NA
ATOM     20  C   UNL     1      11.675   9.302  22.250  0.00  0.00    +0.342 A 
BRANCH  20   3
ATOM      3  O   UNL     1      12.597  10.229  22.075  0.00  0.00    -0.423 OA
BRANCH   3  25
ATOM     25  C   UNL     1      12.319  11.460  21.496  0.00  0.00    +0.134 A 
ATOM     26  C   UNL     1      11.325  12.248  22.043  0.00  0.00    +0.069 A 
ATOM     27  C   UNL     1      13.045  11.861  20.391  0.00  0.00    +0.046 A 
ATOM     28  C   UNL     1      11.044  13.485  21.461  0.00  0.00    +0.033 A 
ATOM     29  C   UNL     1      12.764  13.097  19.810  0.00  0.00    +0.005 A 
ATOM     30  C   UNL     1      11.764  13.910  20.345  0.00  0.00    +0.023 A 
BRANCH  28  12
ATOM     12  N   UNL     1      10.032  14.305  22.003  0.00  0.00    -0.336 N 
ATOM     31  C   UNL     1       9.205  15.120  21.136  0.00  0.00    +0.129 C 
ATOM     32  C   UNL     1       9.817  14.353  23.435  0.00  0.00    +0.129 C 
ENDBRANCH  28  12
ENDBRANCH   3  25
ENDBRANCH  20   3
ENDBRANCH  15   6
TORSDOF 5
ENDMDL
MODEL 7
REMARK VINA RESULT:      -6.5     27.103     30.507
REMARK  Name = 11879567
REMARK  7 active torsions:
REMARK  status: ('A' for Active; 'I' for Inactive)
REMARK    1  A    between atoms: O_3  and  C_20
REMARK    2  A    between atoms: O_3  and  C_25
REMARK    3  A    between atoms: N_6  and  C_15
REMARK    4  A    between atoms: N_7  and  C_16
REMARK    5  A    between atoms: N_12  and  C_28
REMARK    6  A    between atoms: N_12  and  C_31
REMARK    7  A    between atoms: N_12  and  C_32
REMARK                            x       y       z     vdW  Elec       q    Type
REMARK                         _______ _______ _______ _____ _____    ______ ____
ROOT
ATOM      1  O   UNL     1     -14.606   4.703  21.976  0.00  0.00    -0.370 OA
ATOM      2  O   UNL     1     -17.483   5.292  23.105  0.00  0.00    -0.370 OA
ATOM     13  C   UNL     1     -16.210   5.952  23.223  0.00  0.00    +0.176 C 
ATOM     14  C   UNL     1     -15.149   4.871  23.296  0.00  0.00    +0.171 C 
ATOM     15  C   UNL     1     -15.901   6.710  21.945  0.00  0.00    +0.171 C 
ATOM     16  C   UNL     1     -15.908   3.631  23.713  0.00  0.00    +0.131 C 
ATOM     17  C   UNL     1     -15.195   5.664  21.089  0.00  0.00    +0.190 C 
ATOM     18  C   UNL     1     -17.279   3.872  23.108  0.00  0.00    +0.185 C 
ENDROOT
BRANCH  16   7
ATOM      4  O   UNL     1     -16.458   1.277  25.152  0.00  0.00    -0.253 OA
ATOM      5  O   UNL     1     -15.850   2.129  29.970  0.00  0.00    -0.377 OA
ATOM      7  N   UNL     1     -15.983   3.521  25.152  0.00  0.00    -0.292 N 
ATOM      9  N   UNL     1     -16.306   2.371  27.191  0.00  0.00    -0.281 N 
ATOM     19  C   UNL     1     -16.260   2.317  25.788  0.00  0.00    +0.303 C 
ATOM     21  C   UNL     1     -16.757   1.193  27.936  0.00  0.00    +0.137 C 
ATOM     22  C   UNL     1     -16.084   3.563  28.021  0.00  0.00    +0.137 C 
ATOM     23  C   UNL     1     -15.886   0.954  29.159  0.00  0.00    +0.179 C 
ATOM     24  C   UNL     1     -15.261   3.218  29.257  0.00  0.00    +0.179 C 
ATOM     33  H   UNL     1     -15.993   4.388  25.671  0.00  0.00    +0.151 HD
ENDBRANCH  16   7
BRANCH  15   6
ATOM      6  N   UNL     1     -15.133   7.934  22.190  0.00  0.00    -0.187 N 
ATOM      8  N   UNL     1     -14.955   8.394  23.433  0.00  0.00    -0.041 NA
ATOM     10  N   UNL     1     -13.950   9.726  21.954  0.00  0.00    -0.071 NA
ATOM     11  N   UNL     1     -14.228   9.495  23.282  0.00  0.00    -0.020 NA
ATOM     20  C   UNL     1     -14.522   8.744  21.296  0.00  0.00    +0.342 A 
BRANCH  20   3
ATOM      3  O   UNL     1     -14.516   8.562  19.988  0.00  0.00    -0.423 OA
BRANCH   3  25
ATOM     25  C   UNL     1     -13.358   8.274  19.280  0.00  0.00    +0.134 A 
ATOM     26  C   UNL     1     -13.230   8.745  17.987  0.00  0.00    +0.069 A 
ATOM     27  C   UNL     1     -12.368   7.526  19.887  0.00  0.00    +0.046 A 
ATOM     28  C   UNL     1     -12.066   8.455  17.273  0.00  0.00    +0.033 A 
ATOM     29  C   UNL     1     -11.205   7.237  19.173  0.00  0.00    +0.005 A 
ATOM     30  C   UNL     1     -11.053   7.702  17.867  0.00  0.00    +0.023 A 
BRANCH  28  12
ATOM     12  N   UNL     1     -11.915   8.926  15.952  0.00  0.00    -0.336 N 
ATOM     31  C   UNL     1     -10.887   9.895  15.631  0.00  0.00    +0.129 C 
ATOM     32  C   UNL     1     -12.794   8.454  14.901  0.00  0.00    +0.129 C 
ENDBRANCH  28  12
ENDBRANCH   3  25
ENDBRANCH  20   3
ENDBRANCH  15   6
TORSDOF 5
ENDMDL
MODEL 8
REMARK VINA RESULT:      -6.5     28.218     30.922
REMARK  Name = 11879567
REMARK  7 active torsions:
REMARK  status: ('A' for Active; 'I' for Inactive)
REMARK    1  A    between atoms: O_3  and  C_20
REMARK    2  A    between atoms: O_3  and  C_25
REMARK    3  A    between atoms: N_6  and  C_15
REMARK    4  A    between atoms: N_7  and  C_16
REMARK    5  A    between atoms: N_12  and  C_28
REMARK    6  A    between atoms: N_12  and  C_31
REMARK    7  A    between atoms: N_12  and  C_32
REMARK                            x       y       z     vdW  Elec       q    Type
REMARK                         _______ _______ _______ _____ _____    ______ ____
ROOT
ATOM      1  O   UNL     1      -6.183 -10.071  16.734  0.00  0.00    -0.370 OA
ATOM      2  O   UNL     1      -5.017 -11.483  19.292  0.00  0.00    -0.370 OA
ATOM     13  C   UNL     1      -5.360 -11.937  17.970  0.00  0.00    +0.176 C 
ATOM     14  C   UNL     1      -6.604 -11.180  17.544  0.00  0.00    +0.171 C 
ATOM     15  C   UNL     1      -4.290 -11.506  16.983  0.00  0.00    +0.171 C 
ATOM     16  C   UNL     1      -7.202 -10.686  18.842  0.00  0.00    +0.131 C 
ATOM     17  C   UNL     1      -4.762 -10.122  16.550  0.00  0.00    +0.190 C 
ATOM     18  C   UNL     1      -5.974 -10.502  19.715  0.00  0.00    +0.185 C 
ENDROOT
BRANCH  16   7
ATOM      4  O   UNL     1      -9.958 -10.318  19.265  0.00  0.00    -0.253 OA
ATOM      5  O   UNL     1     -11.973 -14.583  20.702  0.00  0.00    -0.377 OA
ATOM      7  N   UNL     1      -8.105 -11.661  19.409  0.00  0.00    -0.292 N 
ATOM      9  N   UNL     1     -10.206 -12.445  20.154  0.00  0.00    -0.281 N 
ATOM     19  C   UNL     1      -9.458 -11.401  19.585  0.00  0.00    +0.303 C 
ATOM     21  C   UNL     1     -11.600 -12.202  20.533  0.00  0.00    +0.137 C 
ATOM     22  C   UNL     1      -9.690 -13.760  20.561  0.00  0.00    +0.137 C 
ATOM     23  C   UNL     1     -12.486 -13.373  20.141  0.00  0.00    +0.179 C 
ATOM     24  C   UNL     1     -10.670 -14.867  20.190  0.00  0.00    +0.179 C 
ATOM     33  H   UNL     1      -7.682 -12.478  19.828  0.00  0.00    +0.151 HD
ENDBRANCH  16   7
BRANCH  15   6
ATOM      6  N   UNL     1      -4.109 -12.469  15.894  0.00  0.00    -0.187 N 
ATOM      8  N   UNL     1      -4.623 -13.701  15.977  0.00  0.00    -0.041 NA
ATOM     10  N   UNL     1      -3.544 -13.431  14.044  0.00  0.00    -0.071 NA
ATOM     11  N   UNL     1      -4.273 -14.287  14.838  0.00  0.00    -0.020 NA
ATOM     20  C   UNL     1      -3.456 -12.309  14.721  0.00  0.00    +0.342 A 
BRANCH  20   3
ATOM      3  O   UNL     1      -2.840 -11.205  14.341  0.00  0.00    -0.423 OA
BRANCH   3  25
ATOM     25  C   UNL     1      -3.056 -10.617  13.103  0.00  0.00    +0.134 A 
ATOM     26  C   UNL     1      -4.344 -10.268  12.743  0.00  0.00    +0.069 A 
ATOM     27  C   UNL     1      -1.979 -10.397  12.267  0.00  0.00    +0.046 A 
ATOM     28  C   UNL     1      -4.563  -9.677  11.498  0.00  0.00    +0.033 A 
ATOM     29  C   UNL     1      -2.198  -9.806  11.022  0.00  0.00    +0.005 A 
ATOM     30  C   UNL     1      -3.490  -9.445  10.638  0.00  0.00    +0.023 A 
BRANCH  28  12
ATOM     12  N   UNL     1      -5.870  -9.315  11.111  0.00  0.00    -0.336 N 
ATOM     31  C   UNL     1      -6.187  -9.094   9.714  0.00  0.00    +0.129 C 
ATOM     32  C   UNL     1      -6.909  -9.144  12.107  0.00  0.00    +0.129 C 
ENDBRANCH  28  12
ENDBRANCH   3  25
ENDBRANCH  20   3
ENDBRANCH  15   6
TORSDOF 5
ENDMDL
MODEL 9
REMARK VINA RESULT:      -6.1      3.621      6.242
REMARK  Name = 11879567
REMARK  7 active torsions:
REMARK  status: ('A' for Active; 'I' for Inactive)
REMARK    1  A    between atoms: O_3  and  C_20
REMARK    2  A    between atoms: O_3  and  C_25
REMARK    3  A    between atoms: N_6  and  C_15
REMARK    4  A    between atoms: N_7  and  C_16
REMARK    5  A    between atoms: N_12  and  C_28
REMARK    6  A    between atoms: N_12  and  C_31
REMARK    7  A    between atoms: N_12  and  C_32
REMARK                            x       y       z     vdW  Elec       q    Type
REMARK                         _______ _______ _______ _____ _____    ______ ____
ROOT
ATOM      1  O   UNL     1      12.830  10.121  18.193  0.00  0.00    -0.370 OA
ATOM      2  O   UNL     1      13.573   8.502  15.600  0.00  0.00    -0.370 OA
ATOM     13  C   UNL     1      14.150   8.601  16.915  0.00  0.00    +0.176 C 
ATOM     14  C   UNL     1      14.000  10.042  17.363  0.00  0.00    +0.171 C 
ATOM     15  C   UNL     1      13.321   7.801  17.903  0.00  0.00    +0.171 C 
ATOM     16  C   UNL     1      13.785  10.812  16.080  0.00  0.00    +0.131 C 
ATOM     17  C   UNL     1      12.276   8.809  18.367  0.00  0.00    +0.190 C 
ATOM     18  C   UNL     1      13.084   9.791  15.203  0.00  0.00    +0.185 C 
ENDROOT
BRANCH  16   7
ATOM      4  O   UNL     1      14.270  13.261  14.782  0.00  0.00    -0.253 OA
ATOM      5  O   UNL     1      19.083  13.656  13.786  0.00  0.00    -0.377 OA
ATOM      7  N   UNL     1      15.043  11.224  15.499  0.00  0.00    -0.292 N 
ATOM      9  N   UNL     1      16.481  12.709  14.352  0.00  0.00    -0.281 N 
ATOM     19  C   UNL     1      15.201  12.454  14.873  0.00  0.00    +0.303 C 
ATOM     21  C   UNL     1      16.693  13.902  13.530  0.00  0.00    +0.137 C 
ATOM     22  C   UNL     1      17.639  11.806  14.417  0.00  0.00    +0.137 C 
ATOM     23  C   UNL     1      18.003  14.586  13.888  0.00  0.00    +0.179 C 
ATOM     24  C   UNL     1      18.916  12.583  14.713  0.00  0.00    +0.179 C 
ATOM     33  H   UNL     1      15.757  10.512  15.415  0.00  0.00    +0.151 HD
ENDBRANCH  16   7
BRANCH  15   6
ATOM      6  N   UNL     1      14.134   7.213  18.971  0.00  0.00    -0.187 N 
ATOM      8  N   UNL     1      15.408   6.870  18.753  0.00  0.00    -0.041 NA
ATOM     10  N   UNL     1      14.825   6.414  20.856  0.00  0.00    -0.071 NA
ATOM     11  N   UNL     1      15.827   6.380  19.914  0.00  0.00    -0.020 NA
ATOM     20  C   UNL     1      13.784   6.935  20.247  0.00  0.00    +0.342 A 
BRANCH  20   3
ATOM      3  O   UNL     1      12.593   7.156  20.772  0.00  0.00    -0.423 OA
BRANCH   3  25
ATOM     25  C   UNL     1      12.300   8.296  21.508  0.00  0.00    +0.134 A 
ATOM     26  C   UNL     1      13.322   9.170  21.822  0.00  0.00    +0.069 A 
ATOM     27  C   UNL     1      10.996   8.522  21.904  0.00  0.00    +0.046 A 
ATOM     28  C   UNL     1      13.029  10.316  22.563  0.00  0.00    +0.033 A 
ATOM     29  C   UNL     1      10.703   9.667  22.645  0.00  0.00    +0.005 A 
ATOM     30  C   UNL     1      11.719  10.565  22.974  0.00  0.00    +0.023 A 
BRANCH  28  12
ATOM     12  N   UNL     1      14.057  11.222  22.896  0.00  0.00    -0.336 N 
ATOM     31  C   UNL     1      14.912  11.774  21.864  0.00  0.00    +0.129 C 
ATOM     32  C   UNL     1      14.280  11.603  24.277  0.00  0.00    +0.129 C 
ENDBRANCH  28  12
ENDBRANCH   3  25
ENDBRANCH  20   3
ENDBRANCH  15   6
TORSDOF 5
ENDMDL
MODEL 10
REMARK VINA RESULT:      -6.1     28.843     31.822
REMARK  Name = 11879567
REMARK  7 active torsions:
REMARK  status: ('A' for Active; 'I' for Inactive)
REMARK    1  A    between atoms: O_3  and  C_20
REMARK    2  A    between atoms: O_3  and  C_25
REMARK    3  A    between atoms: N_6  and  C_15
REMARK    4  A    between atoms: N_7  and  C_16
REMARK    5  A    between atoms: N_12  and  C_28
REMARK    6  A    between atoms: N_12  and  C_31
REMARK    7  A    between atoms: N_12  and  C_32
REMARK                            x       y       z     vdW  Elec       q    Type
REMARK                         _______ _______ _______ _____ _____    ______ ____
ROOT
ATOM      1  O   UNL     1     -11.327  -6.593   7.216  0.00  0.00    -0.370 OA
ATOM      2  O   UNL     1      -9.222  -4.926   8.855  0.00  0.00    -0.370 OA
ATOM     13  C   UNL     1      -9.547  -6.326   8.781  0.00  0.00    +0.176 C 
ATOM     14  C   UNL     1     -11.052  -6.428   8.617  0.00  0.00    +0.171 C 
ATOM     15  C   UNL     1      -8.979  -6.920   7.506  0.00  0.00    +0.171 C 
ATOM     16  C   UNL     1     -11.572  -5.094   9.101  0.00  0.00    +0.131 C 
ATOM     17  C   UNL     1     -10.093  -6.684   6.492  0.00  0.00    +0.190 C 
ATOM     18  C   UNL     1     -10.428  -4.157   8.756  0.00  0.00    +0.185 C 
ENDROOT
BRANCH  16   7
ATOM      4  O   UNL     1     -13.988  -5.841  10.332  0.00  0.00    -0.253 OA
ATOM      5  O   UNL     1     -13.342  -6.027  15.217  0.00  0.00    -0.377 OA
ATOM      7  N   UNL     1     -11.822  -5.113  10.524  0.00  0.00    -0.292 N 
ATOM      9  N   UNL     1     -13.139  -5.457  12.456  0.00  0.00    -0.281 N 
ATOM     19  C   UNL     1     -13.047  -5.496  11.055  0.00  0.00    +0.303 C 
ATOM     21  C   UNL     1     -14.439  -5.679  13.093  0.00  0.00    +0.137 C 
ATOM     22  C   UNL     1     -12.071  -5.061  13.384  0.00  0.00    +0.137 C 
ATOM     23  C   UNL     1     -14.304  -6.575  14.313  0.00  0.00    +0.179 C 
ATOM     24  C   UNL     1     -12.051  -5.969  14.608  0.00  0.00    +0.179 C 
ATOM     33  H   UNL     1     -11.125  -4.674  11.111  0.00  0.00    +0.151 HD
ENDBRANCH  16   7
BRANCH  15   6
ATOM      6  N   UNL     1      -8.575  -8.319   7.670  0.00  0.00    -0.187 N 
ATOM      8  N   UNL     1      -9.255  -9.304   7.073  0.00  0.00    -0.041 NA
ATOM     10  N   UNL     1      -7.553 -10.132   8.251  0.00  0.00    -0.071 NA
ATOM     11  N   UNL     1      -8.623 -10.415   7.433  0.00  0.00    -0.020 NA
ATOM     20  C   UNL     1      -7.544  -8.826   8.384  0.00  0.00    +0.342 A 
BRANCH  20   3
ATOM      3  O   UNL     1      -6.686  -8.111   9.088  0.00  0.00    -0.423 OA
BRANCH   3  25
ATOM     25  C   UNL     1      -5.635  -8.683   9.791  0.00  0.00    +0.134 A 
ATOM     26  C   UNL     1      -5.867  -9.173  11.062  0.00  0.00    +0.069 A 
ATOM     27  C   UNL     1      -4.388  -8.747   9.198  0.00  0.00    +0.046 A 
ATOM     28  C   UNL     1      -4.810  -9.748  11.769  0.00  0.00    +0.033 A 
ATOM     29  C   UNL     1      -3.332  -9.322   9.905  0.00  0.00    +0.005 A 
ATOM     30  C   UNL     1      -3.543  -9.823  11.190  0.00  0.00    +0.023 A 
BRANCH  28  12
ATOM     12  N   UNL     1      -5.024 -10.253  13.068  0.00  0.00    -0.336 N 
ATOM     31  C   UNL     1      -3.901 -10.631  13.903  0.00  0.00    +0.129 C 
ATOM     32  C   UNL     1      -6.370 -10.413  13.579  0.00  0.00    +0.129 C 
ENDBRANCH  28  12
ENDBRANCH   3  25
ENDBRANCH  20   3
ENDBRANCH  15   6
TORSDOF 5
ENDMDL
