MODEL 1
REMARK VINA RESULT:      -5.8      0.000      0.000
REMARK  Name = 75536508
REMARK  7 active torsions:
REMARK  status: ('A' for Active; 'I' for Inactive)
REMARK    1  A    between atoms: O_2  and  C_8
REMARK    2  A    between atoms: N_4  and  C_7
REMARK    3  A    between atoms: N_4  and  C_12
REMARK    4  A    between atoms: N_5  and  C_11
REMARK    5  A    between atoms: C_9  and  C_11
REMARK    6  A    between atoms: C_12  and  C_13
REMARK    7  A    between atoms: C_14  and  C_17
REMARK                            x       y       z     vdW  Elec       q    Type
REMARK                         _______ _______ _______ _____ _____    ______ ____
ROOT
ATOM      1  O   UNL     1      15.016   8.379  19.684  0.00  0.00    -0.371 OA
ATOM      7  C   UNL     1      13.294   7.438  21.022  0.00  0.00    +0.111 C 
ATOM      8  C   UNL     1      12.862   7.407  19.567  0.00  0.00    +0.164 C 
ATOM      9  C   UNL     1      14.207   7.523  18.860  0.00  0.00    +0.165 C 
ATOM     10  C   UNL     1      14.407   8.472  20.983  0.00  0.00    +0.181 C 
ENDROOT
BRANCH   8   2
ATOM      2  O   UNL     1      12.186   6.214  19.223  0.00  0.00    -0.388 OA
ATOM     21  H   UNL     1      12.713   5.747  18.552  0.00  0.00    +0.210 HD
ENDBRANCH   8   2
BRANCH   7   4
ATOM      4  N   UNL     1      12.224   7.793  21.940  0.00  0.00    -0.305 NA
ATOM     20  H   UNL     1      12.625   8.244  22.763  0.00  0.00    +0.123 HD
BRANCH   4  12
ATOM     12  C   UNL     1      11.276   8.707  21.315  0.00  0.00    +0.118 C 
BRANCH  12  13
ATOM      6  N   UNL     1      10.773  11.316  24.011  0.00  0.00    -0.263 NA
ATOM     13  C   UNL     1      11.243  10.042  22.011  0.00  0.00    -0.015 A 
ATOM     15  C   UNL     1      11.629  11.203  21.352  0.00  0.00    +0.008 A 
ATOM     16  C   UNL     1      10.827  10.150  23.328  0.00  0.00    +0.115 A 
ATOM     18  C   UNL     1      11.587  12.421  22.021  0.00  0.00    +0.020 A 
ATOM     19  C   UNL     1      11.156  12.425  23.338  0.00  0.00    +0.111 A 
ENDBRANCH  12  13
ENDBRANCH   4  12
ENDBRANCH   7   4
BRANCH   9  11
ATOM     11  C   UNL     1      14.101   8.105  17.462  0.00  0.00    +0.138 C 
BRANCH  11   5
ATOM      3  O   UNL     1      13.115   9.643  15.206  0.00  0.00    -0.276 OA
ATOM      5  N   UNL     1      12.734   8.336  17.096  0.00  0.00    -0.313 N 
ATOM     14  C   UNL     1      12.351   9.091  15.992  0.00  0.00    +0.210 C 
ATOM     17  C   UNL     1      10.856   9.152  15.825  0.00  0.00    +0.109 C 
ATOM     22  H   UNL     1      12.013   7.926  17.682  0.00  0.00    +0.149 HD
ENDBRANCH  11   5
ENDBRANCH   9  11
TORSDOF 6
ENDMDL
MODEL 2
REMARK VINA RESULT:      -5.5     13.191     17.888
REMARK  Name = 75536508
REMARK  7 active torsions:
REMARK  status: ('A' for Active; 'I' for Inactive)
REMARK    1  A    between atoms: O_2  and  C_8
REMARK    2  A    between atoms: N_4  and  C_7
REMARK    3  A    between atoms: N_4  and  C_12
REMARK    4  A    between atoms: N_5  and  C_11
REMARK    5  A    between atoms: C_9  and  C_11
REMARK    6  A    between atoms: C_12  and  C_13
REMARK    7  A    between atoms: C_14  and  C_17
REMARK                            x       y       z     vdW  Elec       q    Type
REMARK                         _______ _______ _______ _____ _____    ______ ____
ROOT
ATOM      1  O   UNL     1       9.175   7.035   4.606  0.00  0.00    -0.371 OA
ATOM      7  C   UNL     1      10.241   5.030   3.909  0.00  0.00    +0.111 C 
ATOM      8  C   UNL     1      10.319   5.132   5.422  0.00  0.00    +0.164 C 
ATOM      9  C   UNL     1       9.188   6.112   5.708  0.00  0.00    +0.165 C 
ATOM     10  C   UNL     1       9.938   6.469   3.526  0.00  0.00    +0.181 C 
ENDROOT
BRANCH   8   2
ATOM      2  O   UNL     1      10.115   3.889   6.065  0.00  0.00    -0.388 OA
ATOM     21  H   UNL     1      10.984   3.483   6.227  0.00  0.00    +0.210 HD
ENDBRANCH   8   2
BRANCH   7   4
ATOM      4  N   UNL     1      11.458   4.524   3.296  0.00  0.00    -0.305 NA
ATOM     20  H   UNL     1      11.890   3.844   3.922  0.00  0.00    +0.123 HD
BRANCH   4  12
ATOM     12  C   UNL     1      11.174   3.877   2.020  0.00  0.00    +0.118 C 
BRANCH  12  13
ATOM      6  N   UNL     1      13.235   4.134  -1.144  0.00  0.00    -0.263 NA
ATOM     13  C   UNL     1      12.365   3.906   1.100  0.00  0.00    -0.015 A 
ATOM     15  C   UNL     1      13.655   3.742   1.592  0.00  0.00    +0.008 A 
ATOM     16  C   UNL     1      12.210   4.098  -0.264  0.00  0.00    +0.115 A 
ATOM     18  C   UNL     1      14.735   3.772   0.718  0.00  0.00    +0.020 A 
ATOM     19  C   UNL     1      14.475   3.970  -0.629  0.00  0.00    +0.111 A 
ENDBRANCH  12  13
ENDBRANCH   4  12
ENDBRANCH   7   4
BRANCH   9  11
ATOM     11  C   UNL     1       9.368   6.871   7.011  0.00  0.00    +0.138 C 
BRANCH  11   5
ATOM      3  O   UNL     1      10.985   5.316   8.852  0.00  0.00    -0.276 OA
ATOM      5  N   UNL     1       8.914   6.098   8.130  0.00  0.00    -0.313 N 
ATOM     14  C   UNL     1       9.764   5.380   8.963  0.00  0.00    +0.210 C 
ATOM     17  C   UNL     1       9.030   4.680  10.075  0.00  0.00    +0.109 C 
ATOM     22  H   UNL     1       7.915   6.078   8.315  0.00  0.00    +0.149 HD
ENDBRANCH  11   5
ENDBRANCH   9  11
TORSDOF 6
ENDMDL
MODEL 3
REMARK VINA RESULT:      -5.4      3.429      5.775
REMARK  Name = 75536508
REMARK  7 active torsions:
REMARK  status: ('A' for Active; 'I' for Inactive)
REMARK    1  A    between atoms: O_2  and  C_8
REMARK    2  A    between atoms: N_4  and  C_7
REMARK    3  A    between atoms: N_4  and  C_12
REMARK    4  A    between atoms: N_5  and  C_11
REMARK    5  A    between atoms: C_9  and  C_11
REMARK    6  A    between atoms: C_12  and  C_13
REMARK    7  A    between atoms: C_14  and  C_17
REMARK                            x       y       z     vdW  Elec       q    Type
REMARK                         _______ _______ _______ _____ _____    ______ ____
ROOT
ATOM      1  O   UNL     1      13.697   7.846  18.373  0.00  0.00    -0.371 OA
ATOM      7  C   UNL     1      14.632   6.518  20.105  0.00  0.00    +0.111 C 
ATOM      8  C   UNL     1      13.277   7.034  20.554  0.00  0.00    +0.164 C 
ATOM      9  C   UNL     1      12.634   7.371  19.215  0.00  0.00    +0.165 C 
ATOM     10  C   UNL     1      14.952   7.468  18.963  0.00  0.00    +0.181 C 
ENDROOT
BRANCH   8   2
ATOM      2  O   UNL     1      12.533   6.067  21.268  0.00  0.00    -0.388 OA
ATOM     21  H   UNL     1      11.978   5.579  20.635  0.00  0.00    +0.210 HD
ENDBRANCH   8   2
BRANCH   7   4
ATOM      4  N   UNL     1      15.639   6.533  21.154  0.00  0.00    -0.305 NA
ATOM     20  H   UNL     1      15.482   5.742  21.778  0.00  0.00    +0.123 HD
BRANCH   4  12
ATOM     12  C   UNL     1      16.982   6.436  20.595  0.00  0.00    +0.118 C 
BRANCH  12  13
ATOM      6  N   UNL     1      19.953   7.639  22.608  0.00  0.00    -0.263 NA
ATOM     13  C   UNL     1      17.946   7.361  21.289  0.00  0.00    -0.015 A 
ATOM     15  C   UNL     1      17.756   8.738  21.272  0.00  0.00    +0.008 A 
ATOM     16  C   UNL     1      19.050   6.866  21.965  0.00  0.00    +0.115 A 
ATOM     18  C   UNL     1      18.663   9.567  21.923  0.00  0.00    +0.020 A 
ATOM     19  C   UNL     1      19.735   8.974  22.570  0.00  0.00    +0.111 A 
ENDBRANCH  12  13
ENDBRANCH   4  12
ENDBRANCH   7   4
BRANCH   9  11
ATOM     11  C   UNL     1      11.549   8.429  19.320  0.00  0.00    +0.138 C 
BRANCH  11   5
ATOM      3  O   UNL     1      11.854  10.845  20.899  0.00  0.00    -0.276 OA
ATOM      5  N   UNL     1      11.153   8.635  20.682  0.00  0.00    -0.313 N 
ATOM     14  C   UNL     1      11.339   9.832  21.364  0.00  0.00    +0.210 C 
ATOM     17  C   UNL     1      10.808   9.785  22.772  0.00  0.00    +0.109 C 
ATOM     22  H   UNL     1      10.716   7.858  21.169  0.00  0.00    +0.149 HD
ENDBRANCH  11   5
ENDBRANCH   9  11
TORSDOF 6
ENDMDL
MODEL 4
REMARK VINA RESULT:      -5.3     25.464     27.354
REMARK  Name = 75536508
REMARK  7 active torsions:
REMARK  status: ('A' for Active; 'I' for Inactive)
REMARK    1  A    between atoms: O_2  and  C_8
REMARK    2  A    between atoms: N_4  and  C_7
REMARK    3  A    between atoms: N_4  and  C_12
REMARK    4  A    between atoms: N_5  and  C_11
REMARK    5  A    between atoms: C_9  and  C_11
REMARK    6  A    between atoms: C_12  and  C_13
REMARK    7  A    between atoms: C_14  and  C_17
REMARK                            x       y       z     vdW  Elec       q    Type
REMARK                         _______ _______ _______ _____ _____    ______ ____
ROOT
ATOM      1  O   UNL     1      -5.081 -11.630  15.893  0.00  0.00    -0.371 OA
ATOM      7  C   UNL     1      -3.074 -11.152  14.716  0.00  0.00    +0.111 C 
ATOM      8  C   UNL     1      -2.900 -10.757  16.171  0.00  0.00    +0.164 C 
ATOM      9  C   UNL     1      -3.994 -11.586  16.833  0.00  0.00    +0.165 C 
ATOM     10  C   UNL     1      -4.587 -11.227  14.603  0.00  0.00    +0.181 C 
ENDROOT
BRANCH   8   2
ATOM      2  O   UNL     1      -1.619 -11.076  16.675  0.00  0.00    -0.388 OA
ATOM     21  H   UNL     1      -1.104 -10.254  16.747  0.00  0.00    +0.210 HD
ENDBRANCH   8   2
BRANCH   7   4
ATOM      4  N   UNL     1      -2.482 -10.209  13.781  0.00  0.00    -0.305 NA
ATOM     20  H   UNL     1      -1.744  -9.689  14.255  0.00  0.00    +0.123 HD
BRANCH   4  12
ATOM     12  C   UNL     1      -1.910 -10.899  12.631  0.00  0.00    +0.118 C 
BRANCH  12  13
ATOM      6  N   UNL     1      -4.198 -11.675   9.716  0.00  0.00    -0.263 NA
ATOM     13  C   UNL     1      -2.746 -10.712  11.393  0.00  0.00    -0.015 A 
ATOM     15  C   UNL     1      -2.856  -9.467  10.784  0.00  0.00    +0.008 A 
ATOM     16  C   UNL     1      -3.431 -11.774  10.825  0.00  0.00    +0.115 A 
ATOM     18  C   UNL     1      -3.635  -9.324   9.641  0.00  0.00    +0.020 A 
ATOM     19  C   UNL     1      -4.280 -10.448   9.151  0.00  0.00    +0.111 A 
ENDBRANCH  12  13
ENDBRANCH   4  12
ENDBRANCH   7   4
BRANCH   9  11
ATOM     11  C   UNL     1      -4.477 -11.001  18.148  0.00  0.00    +0.138 C 
BRANCH  11   5
ATOM      3  O   UNL     1      -6.108 -11.161  20.544  0.00  0.00    -0.276 OA
ATOM      5  N   UNL     1      -5.908 -11.011  18.229  0.00  0.00    -0.313 N 
ATOM     14  C   UNL     1      -6.611 -11.091  19.426  0.00  0.00    +0.210 C 
ATOM     17  C   UNL     1      -8.102 -11.057  19.226  0.00  0.00    +0.109 C 
ATOM     22  H   UNL     1      -6.430 -10.960  17.358  0.00  0.00    +0.149 HD
ENDBRANCH  11   5
ENDBRANCH   9  11
TORSDOF 6
ENDMDL
MODEL 5
REMARK VINA RESULT:      -5.3     26.238     27.917
REMARK  Name = 75536508
REMARK  7 active torsions:
REMARK  status: ('A' for Active; 'I' for Inactive)
REMARK    1  A    between atoms: O_2  and  C_8
REMARK    2  A    between atoms: N_4  and  C_7
REMARK    3  A    between atoms: N_4  and  C_12
REMARK    4  A    between atoms: N_5  and  C_11
REMARK    5  A    between atoms: C_9  and  C_11
REMARK    6  A    between atoms: C_12  and  C_13
REMARK    7  A    between atoms: C_14  and  C_17
REMARK                            x       y       z     vdW  Elec       q    Type
REMARK                         _______ _______ _______ _____ _____    ______ ____
ROOT
ATOM      1  O   UNL     1      -7.521 -12.990  18.676  0.00  0.00    -0.371 OA
ATOM      7  C   UNL     1      -5.521 -11.728  18.896  0.00  0.00    +0.111 C 
ATOM      8  C   UNL     1      -6.711 -10.818  19.147  0.00  0.00    +0.164 C 
ATOM      9  C   UNL     1      -7.791 -11.837  19.490  0.00  0.00    +0.165 C 
ATOM     10  C   UNL     1      -6.179 -12.889  18.169  0.00  0.00    +0.181 C 
ENDROOT
BRANCH   8   2
ATOM      2  O   UNL     1      -6.489  -9.908  20.205  0.00  0.00    -0.388 OA
ATOM     21  H   UNL     1      -6.605  -9.005  19.862  0.00  0.00    +0.210 HD
ENDBRANCH   8   2
BRANCH   7   4
ATOM      4  N   UNL     1      -4.462 -11.102  18.122  0.00  0.00    -0.305 NA
ATOM     20  H   UNL     1      -3.709 -11.776  17.981  0.00  0.00    +0.123 HD
BRANCH   4  12
ATOM     12  C   UNL     1      -4.951 -10.662  16.821  0.00  0.00    +0.118 C 
BRANCH  12  13
ATOM      6  N   UNL     1      -3.207 -10.582  13.463  0.00  0.00    -0.263 NA
ATOM     13  C   UNL     1      -3.853 -10.627  15.792  0.00  0.00    -0.015 A 
ATOM     15  C   UNL     1      -2.516 -10.605  16.172  0.00  0.00    +0.008 A 
ATOM     16  C   UNL     1      -4.143 -10.614  14.437  0.00  0.00    +0.115 A 
ATOM     18  C   UNL     1      -1.523 -10.574  15.199  0.00  0.00    +0.020 A 
ATOM     19  C   UNL     1      -1.917 -10.563  13.870  0.00  0.00    +0.111 A 
ENDBRANCH  12  13
ENDBRANCH   4  12
ENDBRANCH   7   4
BRANCH   9  11
ATOM     11  C   UNL     1      -9.197 -11.333  19.218  0.00  0.00    +0.138 C 
BRANCH  11   5
ATOM      3  O   UNL     1     -10.724 -10.253  16.997  0.00  0.00    -0.276 OA
ATOM      5  N   UNL     1      -9.183  -9.987  18.723  0.00  0.00    -0.313 N 
ATOM     14  C   UNL     1      -9.951  -9.555  17.647  0.00  0.00    +0.210 C 
ATOM     17  C   UNL     1      -9.763  -8.091  17.354  0.00  0.00    +0.109 C 
ATOM     22  H   UNL     1      -8.572  -9.321  19.187  0.00  0.00    +0.149 HD
ENDBRANCH  11   5
ENDBRANCH   9  11
TORSDOF 6
ENDMDL
MODEL 6
REMARK VINA RESULT:      -5.2     25.411     27.032
REMARK  Name = 75536508
REMARK  7 active torsions:
REMARK  status: ('A' for Active; 'I' for Inactive)
REMARK    1  A    between atoms: O_2  and  C_8
REMARK    2  A    between atoms: N_4  and  C_7
REMARK    3  A    between atoms: N_4  and  C_12
REMARK    4  A    between atoms: N_5  and  C_11
REMARK    5  A    between atoms: C_9  and  C_11
REMARK    6  A    between atoms: C_12  and  C_13
REMARK    7  A    between atoms: C_14  and  C_17
REMARK                            x       y       z     vdW  Elec       q    Type
REMARK                         _______ _______ _______ _____ _____    ______ ____
ROOT
ATOM      1  O   UNL     1     -16.429   6.701  20.346  0.00  0.00    -0.371 OA
ATOM      7  C   UNL     1     -14.080   6.753  20.692  0.00  0.00    +0.111 C 
ATOM      8  C   UNL     1     -14.694   5.718  21.618  0.00  0.00    +0.164 C 
ATOM      9  C   UNL     1     -16.019   5.447  20.916  0.00  0.00    +0.165 C 
ATOM     10  C   UNL     1     -15.296   7.587  20.325  0.00  0.00    +0.181 C 
ENDROOT
BRANCH   8   2
ATOM      2  O   UNL     1     -13.907   4.548  21.728  0.00  0.00    -0.388 OA
ATOM     21  H   UNL     1     -13.422   4.426  20.894  0.00  0.00    +0.210 HD
ENDBRANCH   8   2
BRANCH   7   4
ATOM      4  N   UNL     1     -13.023   7.535  21.313  0.00  0.00    -0.305 NA
ATOM     20  H   UNL     1     -13.091   7.442  22.326  0.00  0.00    +0.123 HD
BRANCH   4  12
ATOM     12  C   UNL     1     -11.708   7.075  20.883  0.00  0.00    +0.118 C 
BRANCH  12  13
ATOM      6  N   UNL     1     -10.230   9.905  18.850  0.00  0.00    -0.263 NA
ATOM     13  C   UNL     1     -11.197   7.861  19.705  0.00  0.00    -0.015 A 
ATOM     15  C   UNL     1     -11.205   7.320  18.424  0.00  0.00    +0.008 A 
ATOM     16  C   UNL     1     -10.703   9.146  19.863  0.00  0.00    +0.115 A 
ATOM     18  C   UNL     1     -10.728   8.070  17.356  0.00  0.00    +0.020 A 
ATOM     19  C   UNL     1     -10.255   9.345  17.618  0.00  0.00    +0.111 A 
ENDBRANCH  12  13
ENDBRANCH   4  12
ENDBRANCH   7   4
BRANCH   9  11
ATOM     11  C   UNL     1     -17.098   4.931  21.851  0.00  0.00    +0.138 C 
BRANCH  11   5
ATOM      3  O   UNL     1     -16.785   2.220  22.843  0.00  0.00    -0.276 OA
ATOM      5  N   UNL     1     -16.545   4.521  23.109  0.00  0.00    -0.313 N 
ATOM     14  C   UNL     1     -16.434   3.193  23.504  0.00  0.00    +0.210 C 
ATOM     17  C   UNL     1     -15.795   3.044  24.859  0.00  0.00    +0.109 C 
ATOM     22  H   UNL     1     -16.223   5.248  23.741  0.00  0.00    +0.149 HD
ENDBRANCH  11   5
ENDBRANCH   9  11
TORSDOF 6
ENDMDL
MODEL 7
REMARK VINA RESULT:      -5.1      1.974      2.660
REMARK  Name = 75536508
REMARK  7 active torsions:
REMARK  status: ('A' for Active; 'I' for Inactive)
REMARK    1  A    between atoms: O_2  and  C_8
REMARK    2  A    between atoms: N_4  and  C_7
REMARK    3  A    between atoms: N_4  and  C_12
REMARK    4  A    between atoms: N_5  and  C_11
REMARK    5  A    between atoms: C_9  and  C_11
REMARK    6  A    between atoms: C_12  and  C_13
REMARK    7  A    between atoms: C_14  and  C_17
REMARK                            x       y       z     vdW  Elec       q    Type
REMARK                         _______ _______ _______ _____ _____    ______ ____
ROOT
ATOM      1  O   UNL     1      13.188   6.894  20.425  0.00  0.00    -0.371 OA
ATOM      7  C   UNL     1      11.117   7.895  21.016  0.00  0.00    +0.111 C 
ATOM      8  C   UNL     1      11.531   8.388  19.641  0.00  0.00    +0.164 C 
ATOM      9  C   UNL     1      12.513   7.301  19.224  0.00  0.00    +0.165 C 
ATOM     10  C   UNL     1      12.436   7.369  21.556  0.00  0.00    +0.181 C 
ENDROOT
BRANCH   8   2
ATOM      2  O   UNL     1      10.441   8.487  18.745  0.00  0.00    -0.388 OA
ATOM     21  H   UNL     1      10.245   7.597  18.403  0.00  0.00    +0.210 HD
ENDBRANCH   8   2
BRANCH   7   4
ATOM      4  N   UNL     1      10.534   8.930  21.855  0.00  0.00    -0.305 NA
ATOM     20  H   UNL     1      10.661   8.675  22.835  0.00  0.00    +0.123 HD
BRANCH   4  12
ATOM     12  C   UNL     1      11.169  10.220  21.616  0.00  0.00    +0.118 C 
BRANCH  12  13
ATOM      6  N   UNL     1      13.520  11.673  24.203  0.00  0.00    -0.263 NA
ATOM     13  C   UNL     1      11.664  10.846  22.893  0.00  0.00    -0.015 A 
ATOM     15  C   UNL     1      10.783  11.176  23.917  0.00  0.00    +0.008 A 
ATOM     16  C   UNL     1      13.010  11.113  23.083  0.00  0.00    +0.115 A 
ATOM     18  C   UNL     1      11.269  11.752  25.085  0.00  0.00    +0.020 A 
ATOM     19  C   UNL     1      12.633  11.979  25.178  0.00  0.00    +0.111 A 
ENDBRANCH  12  13
ENDBRANCH   4  12
ENDBRANCH   7   4
BRANCH   9  11
ATOM     11  C   UNL     1      13.529   7.773  18.198  0.00  0.00    +0.138 C 
BRANCH  11   5
ATOM      3  O   UNL     1      13.579  10.613  17.598  0.00  0.00    -0.276 OA
ATOM      5  N   UNL     1      14.404   8.765  18.751  0.00  0.00    -0.313 N 
ATOM     14  C   UNL     1      14.358  10.110  18.403  0.00  0.00    +0.210 C 
ATOM     17  C   UNL     1      15.371  10.936  19.151  0.00  0.00    +0.109 C 
ATOM     22  H   UNL     1      15.095   8.458  19.430  0.00  0.00    +0.149 HD
ENDBRANCH  11   5
ENDBRANCH   9  11
TORSDOF 6
ENDMDL
MODEL 8
REMARK VINA RESULT:      -5.1     25.203     26.494
REMARK  Name = 75536508
REMARK  7 active torsions:
REMARK  status: ('A' for Active; 'I' for Inactive)
REMARK    1  A    between atoms: O_2  and  C_8
REMARK    2  A    between atoms: N_4  and  C_7
REMARK    3  A    between atoms: N_4  and  C_12
REMARK    4  A    between atoms: N_5  and  C_11
REMARK    5  A    between atoms: C_9  and  C_11
REMARK    6  A    between atoms: C_12  and  C_13
REMARK    7  A    between atoms: C_14  and  C_17
REMARK                            x       y       z     vdW  Elec       q    Type
REMARK                         _______ _______ _______ _____ _____    ______ ____
ROOT
ATOM      1  O   UNL     1      -1.493  -9.972  13.339  0.00  0.00    -0.371 OA
ATOM      7  C   UNL     1      -2.447 -11.759  14.578  0.00  0.00    +0.111 C 
ATOM      8  C   UNL     1      -3.256 -11.548  13.312  0.00  0.00    +0.164 C 
ATOM      9  C   UNL     1      -2.252 -10.802  12.443  0.00  0.00    +0.165 C 
ATOM     10  C   UNL     1      -1.703 -10.439  14.683  0.00  0.00    +0.181 C 
ENDROOT
BRANCH   8   2
ATOM      2  O   UNL     1      -3.667 -12.764  12.717  0.00  0.00    -0.388 OA
ATOM     21  H   UNL     1      -3.212 -12.854  11.861  0.00  0.00    +0.210 HD
ENDBRANCH   8   2
BRANCH   7   4
ATOM      4  N   UNL     1      -3.260 -12.046  15.749  0.00  0.00    -0.305 NA
ATOM     20  H   UNL     1      -2.891 -12.874  16.217  0.00  0.00    +0.123 HD
BRANCH   4  12
ATOM     12  C   UNL     1      -3.245 -10.928  16.685  0.00  0.00    +0.118 C 
BRANCH  12  13
ATOM      6  N   UNL     1      -6.735  -9.464  16.592  0.00  0.00    -0.263 NA
ATOM     13  C   UNL     1      -4.634 -10.540  17.117  0.00  0.00    -0.015 A 
ATOM     15  C   UNL     1      -5.111 -10.873  18.380  0.00  0.00    +0.008 A 
ATOM     16  C   UNL     1      -5.478  -9.842  16.268  0.00  0.00    +0.115 A 
ATOM     18  C   UNL     1      -6.398 -10.501  18.750  0.00  0.00    +0.020 A 
ATOM     19  C   UNL     1      -7.164  -9.805  17.829  0.00  0.00    +0.111 A 
ENDBRANCH  12  13
ENDBRANCH   4  12
ENDBRANCH   7   4
BRANCH   9  11
ATOM     11  C   UNL     1      -2.905  -9.941  11.376  0.00  0.00    +0.138 C 
BRANCH  11   5
ATOM      3  O   UNL     1      -4.237  -9.026   8.964  0.00  0.00    -0.276 OA
ATOM      5  N   UNL     1      -3.501 -10.747  10.350  0.00  0.00    -0.313 N 
ATOM     14  C   UNL     1      -4.122 -10.221   9.223  0.00  0.00    +0.210 C 
ATOM     17  C   UNL     1      -4.639 -11.289   8.296  0.00  0.00    +0.109 C 
ATOM     22  H   UNL     1      -3.466 -11.756  10.464  0.00  0.00    +0.149 HD
ENDBRANCH  11   5
ENDBRANCH   9  11
TORSDOF 6
ENDMDL
MODEL 9
REMARK VINA RESULT:      -5.1     25.412     27.082
REMARK  Name = 75536508
REMARK  7 active torsions:
REMARK  status: ('A' for Active; 'I' for Inactive)
REMARK    1  A    between atoms: O_2  and  C_8
REMARK    2  A    between atoms: N_4  and  C_7
REMARK    3  A    between atoms: N_4  and  C_12
REMARK    4  A    between atoms: N_5  and  C_11
REMARK    5  A    between atoms: C_9  and  C_11
REMARK    6  A    between atoms: C_12  and  C_13
REMARK    7  A    between atoms: C_14  and  C_17
REMARK                            x       y       z     vdW  Elec       q    Type
REMARK                         _______ _______ _______ _____ _____    ______ ____
ROOT
ATOM      1  O   UNL     1     -16.006   5.186  22.350  0.00  0.00    -0.371 OA
ATOM      7  C   UNL     1     -13.894   5.913  21.544  0.00  0.00    +0.111 C 
ATOM      8  C   UNL     1     -13.700   5.210  22.875  0.00  0.00    +0.164 C 
ATOM      9  C   UNL     1     -14.979   4.387  22.961  0.00  0.00    +0.165 C 
ATOM     10  C   UNL     1     -15.379   6.230  21.585  0.00  0.00    +0.181 C 
ENDROOT
BRANCH   8   2
ATOM      2  O   UNL     1     -12.545   4.394  22.899  0.00  0.00    -0.388 OA
ATOM     21  H   UNL     1     -11.871   4.802  22.328  0.00  0.00    +0.210 HD
ENDBRANCH   8   2
BRANCH   7   4
ATOM      4  N   UNL     1     -13.066   7.098  21.384  0.00  0.00    -0.305 NA
ATOM     20  H   UNL     1     -12.975   7.565  22.286  0.00  0.00    +0.123 HD
BRANCH   4  12
ATOM     12  C   UNL     1     -11.737   6.748  20.896  0.00  0.00    +0.118 C 
BRANCH  12  13
ATOM      6  N   UNL     1     -11.005   8.055  17.420  0.00  0.00    -0.263 NA
ATOM     13  C   UNL     1     -11.287   7.663  19.789  0.00  0.00    -0.015 A 
ATOM     15  C   UNL     1     -10.758   8.918  20.068  0.00  0.00    +0.008 A 
ATOM     16  C   UNL     1     -11.389   7.282  18.461  0.00  0.00    +0.115 A 
ATOM     18  C   UNL     1     -10.350   9.741  19.024  0.00  0.00    +0.020 A 
ATOM     19  C   UNL     1     -10.494   9.268  17.730  0.00  0.00    +0.111 A 
ENDBRANCH  12  13
ENDBRANCH   4  12
ENDBRANCH   7   4
BRANCH   9  11
ATOM     11  C   UNL     1     -15.376   4.042  24.385  0.00  0.00    +0.138 C 
BRANCH  11   5
ATOM      3  O   UNL     1     -17.199   2.877  26.322  0.00  0.00    -0.276 OA
ATOM      5  N   UNL     1     -15.763   2.666  24.499  0.00  0.00    -0.313 N 
ATOM     14  C   UNL     1     -16.647   2.194  25.463  0.00  0.00    +0.210 C 
ATOM     17  C   UNL     1     -16.900   0.715  25.342  0.00  0.00    +0.109 C 
ATOM     22  H   UNL     1     -15.363   2.008  23.838  0.00  0.00    +0.149 HD
ENDBRANCH  11   5
ENDBRANCH   9  11
TORSDOF 6
ENDMDL
MODEL 10
REMARK VINA RESULT:      -5.0     23.358     24.632
REMARK  Name = 75536508
REMARK  7 active torsions:
REMARK  status: ('A' for Active; 'I' for Inactive)
REMARK    1  A    between atoms: O_2  and  C_8
REMARK    2  A    between atoms: N_4  and  C_7
REMARK    3  A    between atoms: N_4  and  C_12
REMARK    4  A    between atoms: N_5  and  C_11
REMARK    5  A    between atoms: C_9  and  C_11
REMARK    6  A    between atoms: C_12  and  C_13
REMARK    7  A    between atoms: C_14  and  C_17
REMARK                            x       y       z     vdW  Elec       q    Type
REMARK                         _______ _______ _______ _____ _____    ______ ____
ROOT
ATOM      1  O   UNL     1     -10.384  11.171  16.327  0.00  0.00    -0.371 OA
ATOM      7  C   UNL     1      -9.801   9.644  18.049  0.00  0.00    +0.111 C 
ATOM      8  C   UNL     1     -10.644   8.923  17.013  0.00  0.00    +0.164 C 
ATOM      9  C   UNL     1     -10.466   9.834  15.805  0.00  0.00    +0.165 C 
ATOM     10  C   UNL     1     -10.121  11.096  17.739  0.00  0.00    +0.181 C 
ENDROOT
BRANCH   8   2
ATOM      2  O   UNL     1     -10.187   7.610  16.754  0.00  0.00    -0.388 OA
ATOM     21  H   UNL     1      -9.716   7.612  15.903  0.00  0.00    +0.210 HD
ENDBRANCH   8   2
BRANCH   7   4
ATOM      4  N   UNL     1     -10.120   9.274  19.419  0.00  0.00    -0.305 NA
ATOM     20  H   UNL     1      -9.498   9.777  20.053  0.00  0.00    +0.123 HD
BRANCH   4  12
ATOM     12  C   UNL     1     -11.501   9.609  19.746  0.00  0.00    +0.118 C 
BRANCH  12  13
ATOM      6  N   UNL     1     -14.229   7.590  21.421  0.00  0.00    -0.263 NA
ATOM     13  C   UNL     1     -12.215   8.460  20.405  0.00  0.00    -0.015 A 
ATOM     15  C   UNL     1     -11.575   7.243  20.612  0.00  0.00    +0.008 A 
ATOM     16  C   UNL     1     -13.530   8.581  20.824  0.00  0.00    +0.115 A 
ATOM     18  C   UNL     1     -12.260   6.199  21.224  0.00  0.00    +0.020 A 
ATOM     19  C   UNL     1     -13.573   6.421  21.606  0.00  0.00    +0.111 A 
ENDBRANCH  12  13
ENDBRANCH   4  12
ENDBRANCH   7   4
BRANCH   9  11
ATOM     11  C   UNL     1     -11.609   9.741  14.810  0.00  0.00    +0.138 C 
BRANCH  11   5
ATOM      3  O   UNL     1     -13.270   7.505  13.992  0.00  0.00    -0.276 OA
ATOM      5  N   UNL     1     -12.810   9.271  15.438  0.00  0.00    -0.313 N 
ATOM     14  C   UNL     1     -13.546   8.186  14.975  0.00  0.00    +0.210 C 
ATOM     17  C   UNL     1     -14.746   7.892  15.835  0.00  0.00    +0.109 C 
ATOM     22  H   UNL     1     -13.134   9.766  16.264  0.00  0.00    +0.149 HD
ENDBRANCH  11   5
ENDBRANCH   9  11
TORSDOF 6
ENDMDL
