MODEL 1
REMARK VINA RESULT:      -7.0      0.000      0.000
REMARK  Name = 45361384
REMARK  14 active torsions:
REMARK  status: ('A' for Active; 'I' for Inactive)
REMARK    1  A    between atoms: O_1  and  C_11
REMARK    2  A    between atoms: O_4  and  C_32
REMARK    3  A    between atoms: O_4  and  C_34
REMARK    4  A    between atoms: N_5  and  C_15
REMARK    5  A    between atoms: N_6  and  C_25
REMARK    6  A    between atoms: N_6  and  C_26
REMARK    7  A    between atoms: C_8  and  C_18
REMARK    8  A    between atoms: C_10  and  C_20
REMARK    9  A    between atoms: C_13  and  C_19
REMARK   10  A    between atoms: C_19  and  C_21
REMARK   11  A    between atoms: C_19  and  C_22
REMARK   12  A    between atoms: C_23  and  C_24
REMARK   13  A    between atoms: C_25  and  C_27
REMARK   14  A    between atoms: C_27  and  C_33
REMARK                            x       y       z     vdW  Elec       q    Type
REMARK                         _______ _______ _______ _____ _____    ______ ____
ROOT
ATOM      8  C   UNL     1      -4.703 -11.556  17.696  0.00  0.00    -0.027 C 
ATOM      9  C   UNL     1      -5.523 -10.488  16.900  0.00  0.00    +0.028 C 
ATOM     10  C   UNL     1      -7.018 -10.454  17.386  0.00  0.00    +0.012 C 
ATOM     11  C   UNL     1      -5.324 -10.650  15.366  0.00  0.00    +0.122 C 
ATOM     12  C   UNL     1      -3.217 -11.485  17.274  0.00  0.00    +0.007 C 
ATOM     13  C   UNL     1      -3.832 -10.683  14.961  0.00  0.00    +0.029 C 
ATOM     14  C   UNL     1      -4.780 -11.230  19.205  0.00  0.00    +0.009 C 
ATOM     15  C   UNL     1      -7.079 -10.200  18.919  0.00  0.00    +0.076 C 
ATOM     16  C   UNL     1      -3.014 -11.683  15.777  0.00  0.00    +0.007 C 
ATOM     17  C   UNL     1      -6.208 -11.158  19.729  0.00  0.00    +0.023 C 
ATOM     18  C   UNL     1      -5.218 -12.999  17.459  0.00  0.00    +0.011 C 
ATOM     20  C   UNL     1      -7.877  -9.403  16.663  0.00  0.00    +0.010 C 
ENDROOT
BRANCH  15   5
ATOM      3  O   UNL     1      -8.664 -12.577  19.215  0.00  0.00    -0.270 OA
ATOM      5  N   UNL     1      -8.436 -10.278  19.420  0.00  0.00    -0.308 N 
ATOM     23  C   UNL     1      -9.118 -11.478  19.525  0.00  0.00    +0.244 C 
ATOM     35  H   UNL     1      -8.914  -9.399  19.585  0.00  0.00    +0.149 HD
BRANCH  23  24
ATOM     24  C   UNL     1     -10.511 -11.386  20.032  0.00  0.00    +0.037 A 
ATOM     28  C   UNL     1     -11.159 -12.529  20.501  0.00  0.00    +0.016 A 
ATOM     29  C   UNL     1     -11.172 -10.157  20.038  0.00  0.00    +0.016 A 
ATOM     30  C   UNL     1     -12.469 -12.443  20.975  0.00  0.00    +0.046 A 
ATOM     31  C   UNL     1     -12.480 -10.072  20.512  0.00  0.00    +0.046 A 
ATOM     32  C   UNL     1     -13.129 -11.215  20.981  0.00  0.00    +0.120 A 
BRANCH  32   4
ATOM      4  O   UNL     1     -14.406 -11.130  21.444  0.00  0.00    -0.495 OA
ATOM     34  C   UNL     1     -14.804 -12.083  22.428  0.00  0.00    +0.277 C 
ENDBRANCH  32   4
ENDBRANCH  23  24
ENDBRANCH  15   5
BRANCH  11   1
ATOM      1  O   UNL     1      -5.907  -9.538  14.688  0.00  0.00    -0.391 OA
ATOM     36  H   UNL     1      -6.753  -9.329  15.121  0.00  0.00    +0.210 HD
ENDBRANCH  11   1
BRANCH  13  19
ATOM     19  C   UNL     1      -3.654 -10.975  13.466  0.00  0.00    +0.078 C 
ATOM     21  C   UNL     1      -3.567 -12.487  13.248  0.00  0.00    +0.017 C 
BRANCH  19  22
ATOM      2  O   UNL     1      -1.474 -10.019  13.730  0.00  0.00    -0.275 OA
ATOM      6  N   UNL     1      -2.355  -9.923  11.593  0.00  0.00    -0.303 N 
ATOM     22  C   UNL     1      -2.397 -10.272  12.947  0.00  0.00    +0.219 C 
ATOM     26  C   UNL     1      -1.181  -9.233  11.071  0.00  0.00    +0.132 C 
BRANCH   6  25
ATOM     25  C   UNL     1      -3.383 -10.217  10.597  0.00  0.00    +0.122 C 
BRANCH  25  27
ATOM     27  C   UNL     1      -4.213  -8.990  10.237  0.00  0.00    +0.137 C 
BRANCH  27  33
ATOM      7  N   UNL     1      -6.271  -8.694  11.850  0.00  0.00    -0.197 NA
ATOM     33  C   UNL     1      -5.364  -8.824  11.138  0.00  0.00    +0.064 C 
ENDBRANCH  27  33
ENDBRANCH  25  27
ENDBRANCH   6  25
ENDBRANCH  19  22
ENDBRANCH  13  19
TORSDOF 9
ENDMDL
MODEL 2
REMARK VINA RESULT:      -6.8      1.858      2.194
REMARK  Name = 45361384
REMARK  14 active torsions:
REMARK  status: ('A' for Active; 'I' for Inactive)
REMARK    1  A    between atoms: O_1  and  C_11
REMARK    2  A    between atoms: O_4  and  C_32
REMARK    3  A    between atoms: O_4  and  C_34
REMARK    4  A    between atoms: N_5  and  C_15
REMARK    5  A    between atoms: N_6  and  C_25
REMARK    6  A    between atoms: N_6  and  C_26
REMARK    7  A    between atoms: C_8  and  C_18
REMARK    8  A    between atoms: C_10  and  C_20
REMARK    9  A    between atoms: C_13  and  C_19
REMARK   10  A    between atoms: C_19  and  C_21
REMARK   11  A    between atoms: C_19  and  C_22
REMARK   12  A    between atoms: C_23  and  C_24
REMARK   13  A    between atoms: C_25  and  C_27
REMARK   14  A    between atoms: C_27  and  C_33
REMARK                            x       y       z     vdW  Elec       q    Type
REMARK                         _______ _______ _______ _____ _____    ______ ____
ROOT
ATOM      8  C   UNL     1      -5.178 -11.126  17.528  0.00  0.00    -0.027 C 
ATOM      9  C   UNL     1      -5.835 -10.334  16.349  0.00  0.00    +0.028 C 
ATOM     10  C   UNL     1      -7.403 -10.370  16.456  0.00  0.00    +0.012 C 
ATOM     11  C   UNL     1      -5.250 -10.775  14.977  0.00  0.00    +0.122 C 
ATOM     12  C   UNL     1      -3.640 -10.975  17.456  0.00  0.00    +0.007 C 
ATOM     13  C   UNL     1      -3.704 -10.723  14.946  0.00  0.00    +0.029 C 
ATOM     14  C   UNL     1      -5.648 -10.517  18.868  0.00  0.00    +0.009 C 
ATOM     15  C   UNL     1      -7.860  -9.825  17.839  0.00  0.00    +0.076 C 
ATOM     16  C   UNL     1      -3.058 -11.444  16.128  0.00  0.00    +0.007 C 
ATOM     17  C   UNL     1      -7.164 -10.500  19.019  0.00  0.00    +0.023 C 
ATOM     18  C   UNL     1      -5.532 -12.635  17.501  0.00  0.00    +0.011 C 
ATOM     20  C   UNL     1      -8.115  -9.585  15.341  0.00  0.00    +0.010 C 
ENDROOT
BRANCH  15   5
ATOM      3  O   UNL     1      -9.818  -7.749  17.518  0.00  0.00    -0.270 OA
ATOM      5  N   UNL     1      -9.292  -9.952  18.017  0.00  0.00    -0.308 N 
ATOM     23  C   UNL     1     -10.156  -8.886  17.839  0.00  0.00    +0.244 C 
ATOM     35  H   UNL     1      -9.630 -10.830  18.394  0.00  0.00    +0.149 HD
BRANCH  23  24
ATOM     24  C   UNL     1     -11.593  -9.172  18.086  0.00  0.00    +0.037 A 
ATOM     28  C   UNL     1     -12.539  -8.898  17.098  0.00  0.00    +0.016 A 
ATOM     29  C   UNL     1     -11.997  -9.711  19.308  0.00  0.00    +0.016 A 
ATOM     30  C   UNL     1     -13.888  -9.164  17.331  0.00  0.00    +0.046 A 
ATOM     31  C   UNL     1     -13.345  -9.977  19.541  0.00  0.00    +0.046 A 
ATOM     32  C   UNL     1     -14.291  -9.704  18.553  0.00  0.00    +0.120 A 
BRANCH  32   4
ATOM      4  O   UNL     1     -15.608  -9.964  18.781  0.00  0.00    -0.495 OA
ATOM     34  C   UNL     1     -16.397  -8.901  19.311  0.00  0.00    +0.277 C 
ENDBRANCH  32   4
ENDBRANCH  23  24
ENDBRANCH  15   5
BRANCH  11   1
ATOM      1  O   UNL     1      -5.709  -9.891  13.955  0.00  0.00    -0.391 OA
ATOM     36  H   UNL     1      -5.150  -9.095  13.970  0.00  0.00    +0.210 HD
ENDBRANCH  11   1
BRANCH  13  19
ATOM     19  C   UNL     1      -3.142 -11.284  13.634  0.00  0.00    +0.078 C 
ATOM     21  C   UNL     1      -2.577 -12.684  13.880  0.00  0.00    +0.017 C 
BRANCH  19  22
ATOM      2  O   UNL     1      -1.241  -9.846  13.866  0.00  0.00    -0.275 OA
ATOM      6  N   UNL     1      -2.069 -10.070  11.717  0.00  0.00    -0.303 N 
ATOM     22  C   UNL     1      -2.064 -10.344  13.089  0.00  0.00    +0.219 C 
ATOM     26  C   UNL     1      -1.069  -9.162  11.168  0.00  0.00    +0.132 C 
BRANCH   6  25
ATOM     25  C   UNL     1      -2.981 -10.643  10.728  0.00  0.00    +0.122 C 
BRANCH  25  27
ATOM     27  C   UNL     1      -3.707  -9.577   9.918  0.00  0.00    +0.137 C 
BRANCH  27  33
ATOM      7  N   UNL     1      -5.619  -8.422  11.310  0.00  0.00    -0.197 NA
ATOM     33  C   UNL     1      -4.776  -8.931  10.695  0.00  0.00    +0.064 C 
ENDBRANCH  27  33
ENDBRANCH  25  27
ENDBRANCH   6  25
ENDBRANCH  19  22
ENDBRANCH  13  19
TORSDOF 9
ENDMDL
MODEL 3
REMARK VINA RESULT:      -6.5     26.035     28.281
REMARK  Name = 45361384
REMARK  14 active torsions:
REMARK  status: ('A' for Active; 'I' for Inactive)
REMARK    1  A    between atoms: O_1  and  C_11
REMARK    2  A    between atoms: O_4  and  C_32
REMARK    3  A    between atoms: O_4  and  C_34
REMARK    4  A    between atoms: N_5  and  C_15
REMARK    5  A    between atoms: N_6  and  C_25
REMARK    6  A    between atoms: N_6  and  C_26
REMARK    7  A    between atoms: C_8  and  C_18
REMARK    8  A    between atoms: C_10  and  C_20
REMARK    9  A    between atoms: C_13  and  C_19
REMARK   10  A    between atoms: C_19  and  C_21
REMARK   11  A    between atoms: C_19  and  C_22
REMARK   12  A    between atoms: C_23  and  C_24
REMARK   13  A    between atoms: C_25  and  C_27
REMARK   14  A    between atoms: C_27  and  C_33
REMARK                            x       y       z     vdW  Elec       q    Type
REMARK                         _______ _______ _______ _____ _____    ______ ____
ROOT
ATOM      8  C   UNL     1       9.539   5.831   6.013  0.00  0.00    -0.027 C 
ATOM      9  C   UNL     1      10.470   7.001   5.553  0.00  0.00    +0.028 C 
ATOM     10  C   UNL     1       9.919   8.385   6.054  0.00  0.00    +0.012 C 
ATOM     11  C   UNL     1      10.774   6.916   4.030  0.00  0.00    +0.122 C 
ATOM     12  C   UNL     1      10.167   4.479   5.601  0.00  0.00    +0.007 C 
ATOM     13  C   UNL     1      11.304   5.526   3.606  0.00  0.00    +0.029 C 
ATOM     14  C   UNL     1       9.429   5.849   7.554  0.00  0.00    +0.009 C 
ATOM     15  C   UNL     1       9.742   8.365   7.599  0.00  0.00    +0.076 C 
ATOM     16  C   UNL     1      10.429   4.376   4.104  0.00  0.00    +0.007 C 
ATOM     17  C   UNL     1       8.924   7.177   8.102  0.00  0.00    +0.023 C 
ATOM     18  C   UNL     1       8.118   5.926   5.399  0.00  0.00    +0.011 C 
ATOM     20  C   UNL     1      10.804   9.579   5.661  0.00  0.00    +0.010 C 
ENDROOT
BRANCH  15   5
ATOM      3  O   UNL     1      11.009  10.431   9.140  0.00  0.00    -0.270 OA
ATOM      5  N   UNL     1       9.127   9.584   8.083  0.00  0.00    -0.308 N 
ATOM     23  C   UNL     1       9.826  10.522   8.822  0.00  0.00    +0.244 C 
ATOM     35  H   UNL     1       8.124   9.671   7.957  0.00  0.00    +0.149 HD
BRANCH  23  24
ATOM     24  C   UNL     1       9.045  11.705   9.267  0.00  0.00    +0.037 A 
ATOM     28  C   UNL     1       8.668  11.829  10.604  0.00  0.00    +0.016 A 
ATOM     29  C   UNL     1       8.686  12.691   8.347  0.00  0.00    +0.016 A 
ATOM     30  C   UNL     1       7.933  12.939  11.022  0.00  0.00    +0.046 A 
ATOM     31  C   UNL     1       7.951  13.799   8.764  0.00  0.00    +0.046 A 
ATOM     32  C   UNL     1       7.575  13.924  10.102  0.00  0.00    +0.120 A 
BRANCH  32   4
ATOM      4  O   UNL     1       6.857  15.007  10.509  0.00  0.00    -0.495 OA
ATOM     34  C   UNL     1       5.441  14.944  10.352  0.00  0.00    +0.277 C 
ENDBRANCH  32   4
ENDBRANCH  23  24
ENDBRANCH  15   5
BRANCH  11   1
ATOM      1  O   UNL     1      11.788   7.861   3.691  0.00  0.00    -0.391 OA
ATOM     36  H   UNL     1      11.353   8.669   3.368  0.00  0.00    +0.210 HD
ENDBRANCH  11   1
BRANCH  13  19
ATOM     19  C   UNL     1      11.473   5.420   2.086  0.00  0.00    +0.078 C 
ATOM     21  C   UNL     1      10.168   4.922   1.461  0.00  0.00    +0.017 C 
BRANCH  19  22
ATOM      2  O   UNL     1      12.448   3.256   1.772  0.00  0.00    -0.275 OA
ATOM      6  N   UNL     1      13.878   5.050   1.470  0.00  0.00    -0.303 N 
ATOM     22  C   UNL     1      12.634   4.478   1.757  0.00  0.00    +0.219 C 
ATOM     26  C   UNL     1      15.010   4.180   1.175  0.00  0.00    +0.132 C 
BRANCH   6  25
ATOM     25  C   UNL     1      14.171   6.480   1.396  0.00  0.00    +0.122 C 
BRANCH  25  27
ATOM     27  C   UNL     1      15.381   6.870   2.236  0.00  0.00    +0.137 C 
BRANCH  27  33
ATOM      7  N   UNL     1      14.728   7.330   4.743  0.00  0.00    -0.197 NA
ATOM     33  C   UNL     1      15.016   7.128   3.637  0.00  0.00    +0.064 C 
ENDBRANCH  27  33
ENDBRANCH  25  27
ENDBRANCH   6  25
ENDBRANCH  19  22
ENDBRANCH  13  19
TORSDOF 9
ENDMDL
MODEL 4
REMARK VINA RESULT:      -6.4     18.327     20.044
REMARK  Name = 45361384
REMARK  14 active torsions:
REMARK  status: ('A' for Active; 'I' for Inactive)
REMARK    1  A    between atoms: O_1  and  C_11
REMARK    2  A    between atoms: O_4  and  C_32
REMARK    3  A    between atoms: O_4  and  C_34
REMARK    4  A    between atoms: N_5  and  C_15
REMARK    5  A    between atoms: N_6  and  C_25
REMARK    6  A    between atoms: N_6  and  C_26
REMARK    7  A    between atoms: C_8  and  C_18
REMARK    8  A    between atoms: C_10  and  C_20
REMARK    9  A    between atoms: C_13  and  C_19
REMARK   10  A    between atoms: C_19  and  C_21
REMARK   11  A    between atoms: C_19  and  C_22
REMARK   12  A    between atoms: C_23  and  C_24
REMARK   13  A    between atoms: C_25  and  C_27
REMARK   14  A    between atoms: C_27  and  C_33
REMARK                            x       y       z     vdW  Elec       q    Type
REMARK                         _______ _______ _______ _____ _____    ______ ____
ROOT
ATOM      8  C   UNL     1     -16.423   7.108  20.427  0.00  0.00    -0.027 C 
ATOM      9  C   UNL     1     -15.006   6.492  20.675  0.00  0.00    +0.028 C 
ATOM     10  C   UNL     1     -14.921   5.845  22.106  0.00  0.00    +0.012 C 
ATOM     11  C   UNL     1     -13.880   7.509  20.335  0.00  0.00    +0.122 C 
ATOM     12  C   UNL     1     -16.509   7.633  18.974  0.00  0.00    +0.007 C 
ATOM     13  C   UNL     1     -14.031   8.110  18.918  0.00  0.00    +0.029 C 
ATOM     14  C   UNL     1     -17.490   6.003  20.591  0.00  0.00    +0.009 C 
ATOM     15  C   UNL     1     -16.046   4.788  22.286  0.00  0.00    +0.076 C 
ATOM     16  C   UNL     1     -15.431   8.660  18.649  0.00  0.00    +0.007 C 
ATOM     17  C   UNL     1     -17.439   5.320  21.952  0.00  0.00    +0.023 C 
ATOM     18  C   UNL     1     -16.742   8.275  21.397  0.00  0.00    +0.011 C 
ATOM     20  C   UNL     1     -13.561   5.193  22.407  0.00  0.00    +0.010 C 
ENDROOT
BRANCH  15   5
ATOM      3  O   UNL     1     -16.696   2.099  23.055  0.00  0.00    -0.270 OA
ATOM      5  N   UNL     1     -16.070   4.255  23.633  0.00  0.00    -0.308 N 
ATOM     23  C   UNL     1     -16.398   2.938  23.901  0.00  0.00    +0.244 C 
ATOM     35  H   UNL     1     -15.948   4.919  24.390  0.00  0.00    +0.149 HD
BRANCH  23  24
ATOM     24  C   UNL     1     -16.402   2.554  25.336  0.00  0.00    +0.037 A 
ATOM     28  C   UNL     1     -16.065   3.494  26.311  0.00  0.00    +0.016 A 
ATOM     29  C   UNL     1     -16.741   1.253  25.709  0.00  0.00    +0.016 A 
ATOM     30  C   UNL     1     -16.067   3.132  27.658  0.00  0.00    +0.046 A 
ATOM     31  C   UNL     1     -16.743   0.892  27.056  0.00  0.00    +0.046 A 
ATOM     32  C   UNL     1     -16.406   1.831  28.030  0.00  0.00    +0.120 A 
BRANCH  32   4
ATOM      4  O   UNL     1     -16.409   1.478  29.345  0.00  0.00    -0.495 OA
ATOM     34  C   UNL     1     -15.300   0.713  29.814  0.00  0.00    +0.277 C 
ENDBRANCH  32   4
ENDBRANCH  23  24
ENDBRANCH  15   5
BRANCH  11   1
ATOM      1  O   UNL     1     -12.614   6.849  20.366  0.00  0.00    -0.391 OA
ATOM     36  H   UNL     1     -12.011   7.323  19.767  0.00  0.00    +0.210 HD
ENDBRANCH  11   1
BRANCH  13  19
ATOM     19  C   UNL     1     -12.991   9.204  18.649  0.00  0.00    +0.078 C 
ATOM     21  C   UNL     1     -13.653  10.578  18.772  0.00  0.00    +0.017 C 
BRANCH  19  22
ATOM      2  O   UNL     1     -13.039   8.442  16.380  0.00  0.00    -0.275 OA
ATOM      6  N   UNL     1     -11.078   9.473  17.047  0.00  0.00    -0.303 N 
ATOM     22  C   UNL     1     -12.381   9.010  17.259  0.00  0.00    +0.219 C 
ATOM     26  C   UNL     1     -10.459   9.283  15.740  0.00  0.00    +0.132 C 
BRANCH   6  25
ATOM     25  C   UNL     1     -10.248  10.184  18.017  0.00  0.00    +0.122 C 
BRANCH  25  27
ATOM     27  C   UNL     1      -9.849  11.573  17.536  0.00  0.00    +0.137 C 
BRANCH  27  33
ATOM      7  N   UNL     1     -11.380  13.446  18.572  0.00  0.00    -0.197 NA
ATOM     33  C   UNL     1     -10.705  12.620  18.114  0.00  0.00    +0.064 C 
ENDBRANCH  27  33
ENDBRANCH  25  27
ENDBRANCH   6  25
ENDBRANCH  19  22
ENDBRANCH  13  19
TORSDOF 9
ENDMDL
MODEL 5
REMARK VINA RESULT:      -6.2     17.722     19.625
REMARK  Name = 45361384
REMARK  14 active torsions:
REMARK  status: ('A' for Active; 'I' for Inactive)
REMARK    1  A    between atoms: O_1  and  C_11
REMARK    2  A    between atoms: O_4  and  C_32
REMARK    3  A    between atoms: O_4  and  C_34
REMARK    4  A    between atoms: N_5  and  C_15
REMARK    5  A    between atoms: N_6  and  C_25
REMARK    6  A    between atoms: N_6  and  C_26
REMARK    7  A    between atoms: C_8  and  C_18
REMARK    8  A    between atoms: C_10  and  C_20
REMARK    9  A    between atoms: C_13  and  C_19
REMARK   10  A    between atoms: C_19  and  C_21
REMARK   11  A    between atoms: C_19  and  C_22
REMARK   12  A    between atoms: C_23  and  C_24
REMARK   13  A    between atoms: C_25  and  C_27
REMARK   14  A    between atoms: C_27  and  C_33
REMARK                            x       y       z     vdW  Elec       q    Type
REMARK                         _______ _______ _______ _____ _____    ______ ____
ROOT
ATOM      8  C   UNL     1     -15.371   7.728  20.573  0.00  0.00    -0.027 C 
ATOM      9  C   UNL     1     -14.109   6.822  20.757  0.00  0.00    +0.028 C 
ATOM     10  C   UNL     1     -14.188   6.021  22.107  0.00  0.00    +0.012 C 
ATOM     11  C   UNL     1     -12.798   7.628  20.535  0.00  0.00    +0.122 C 
ATOM     12  C   UNL     1     -15.316   8.414  19.188  0.00  0.00    +0.007 C 
ATOM     13  C   UNL     1     -12.793   8.396  19.192  0.00  0.00    +0.029 C 
ATOM     14  C   UNL     1     -16.638   6.844  20.611  0.00  0.00    +0.009 C 
ATOM     15  C   UNL     1     -15.502   5.193  22.166  0.00  0.00    +0.076 C 
ATOM     16  C   UNL     1     -14.051   9.237  18.981  0.00  0.00    +0.007 C 
ATOM     17  C   UNL     1     -16.755   6.022  21.888  0.00  0.00    +0.023 C 
ATOM     18  C   UNL     1     -15.481   8.823  21.666  0.00  0.00    +0.011 C 
ATOM     20  C   UNL     1     -12.989   5.085  22.339  0.00  0.00    +0.010 C 
ENDROOT
BRANCH  15   5
ATOM      3  O   UNL     1     -16.597   2.578  22.621  0.00  0.00    -0.270 OA
ATOM      5  N   UNL     1     -15.663   4.533  23.446  0.00  0.00    -0.308 N 
ATOM     23  C   UNL     1     -16.205   3.266  23.561  0.00  0.00    +0.244 C 
ATOM     35  H   UNL     1     -15.469   5.087  24.273  0.00  0.00    +0.149 HD
BRANCH  23  24
ATOM     24  C   UNL     1     -16.327   2.739  24.944  0.00  0.00    +0.037 A 
ATOM     28  C   UNL     1     -16.752   1.428  25.157  0.00  0.00    +0.016 A 
ATOM     29  C   UNL     1     -16.020   3.558  26.032  0.00  0.00    +0.016 A 
ATOM     30  C   UNL     1     -16.870   0.934  26.457  0.00  0.00    +0.046 A 
ATOM     31  C   UNL     1     -16.137   3.065  27.331  0.00  0.00    +0.046 A 
ATOM     32  C   UNL     1     -16.562   1.753  27.543  0.00  0.00    +0.120 A 
BRANCH  32   4
ATOM      4  O   UNL     1     -16.676   1.271  28.812  0.00  0.00    -0.495 OA
ATOM     34  C   UNL     1     -16.130   2.070  29.860  0.00  0.00    +0.277 C 
ENDBRANCH  32   4
ENDBRANCH  23  24
ENDBRANCH  15   5
BRANCH  11   1
ATOM      1  O   UNL     1     -11.687   6.732  20.497  0.00  0.00    -0.391 OA
ATOM     36  H   UNL     1     -11.745   6.146  21.271  0.00  0.00    +0.210 HD
ENDBRANCH  11   1
BRANCH  13  19
ATOM     19  C   UNL     1     -11.553   9.287  19.050  0.00  0.00    +0.078 C 
ATOM     21  C   UNL     1     -11.254   9.964  20.389  0.00  0.00    +0.017 C 
BRANCH  19  22
ATOM      2  O   UNL     1     -12.303  11.409  18.234  0.00  0.00    -0.275 OA
ATOM      6  N   UNL     1     -11.406   9.987  16.644  0.00  0.00    -0.303 N 
ATOM     22  C   UNL     1     -11.783  10.324  17.949  0.00  0.00    +0.219 C 
ATOM     26  C   UNL     1     -11.632  10.945  15.568  0.00  0.00    +0.132 C 
BRANCH   6  25
ATOM     25  C   UNL     1     -10.754   8.746  16.230  0.00  0.00    +0.122 C 
BRANCH  25  27
ATOM     27  C   UNL     1     -11.505   8.039  15.108  0.00  0.00    +0.137 C 
BRANCH  27  33
ATOM      7  N   UNL     1      -9.933   7.481  13.074  0.00  0.00    -0.197 NA
ATOM     33  C   UNL     1     -10.627   7.729  13.971  0.00  0.00    +0.064 C 
ENDBRANCH  27  33
ENDBRANCH  25  27
ENDBRANCH   6  25
ENDBRANCH  19  22
ENDBRANCH  13  19
TORSDOF 9
ENDMDL
MODEL 6
REMARK VINA RESULT:      -6.1     25.336     29.941
REMARK  Name = 45361384
REMARK  14 active torsions:
REMARK  status: ('A' for Active; 'I' for Inactive)
REMARK    1  A    between atoms: O_1  and  C_11
REMARK    2  A    between atoms: O_4  and  C_32
REMARK    3  A    between atoms: O_4  and  C_34
REMARK    4  A    between atoms: N_5  and  C_15
REMARK    5  A    between atoms: N_6  and  C_25
REMARK    6  A    between atoms: N_6  and  C_26
REMARK    7  A    between atoms: C_8  and  C_18
REMARK    8  A    between atoms: C_10  and  C_20
REMARK    9  A    between atoms: C_13  and  C_19
REMARK   10  A    between atoms: C_19  and  C_21
REMARK   11  A    between atoms: C_19  and  C_22
REMARK   12  A    between atoms: C_23  and  C_24
REMARK   13  A    between atoms: C_25  and  C_27
REMARK   14  A    between atoms: C_27  and  C_33
REMARK                            x       y       z     vdW  Elec       q    Type
REMARK                         _______ _______ _______ _____ _____    ______ ____
ROOT
ATOM      8  C   UNL     1      13.679   6.958   2.463  0.00  0.00    -0.027 C 
ATOM      9  C   UNL     1      12.493   5.998   2.810  0.00  0.00    +0.028 C 
ATOM     10  C   UNL     1      11.698   5.599   1.515  0.00  0.00    +0.012 C 
ATOM     11  C   UNL     1      11.631   6.564   3.975  0.00  0.00    +0.122 C 
ATOM     12  C   UNL     1      14.506   7.239   3.739  0.00  0.00    +0.007 C 
ATOM     13  C   UNL     1      12.478   6.943   5.212  0.00  0.00    +0.029 C 
ATOM     14  C   UNL     1      14.609   6.262   1.443  0.00  0.00    +0.009 C 
ATOM     15  C   UNL     1      12.659   4.968   0.467  0.00  0.00    +0.076 C 
ATOM     16  C   UNL     1      13.672   7.832   4.869  0.00  0.00    +0.007 C 
ATOM     17  C   UNL     1      13.888   5.827   0.175  0.00  0.00    +0.023 C 
ATOM     18  C   UNL     1      13.197   8.309   1.874  0.00  0.00    +0.011 C 
ATOM     20  C   UNL     1      10.533   4.631   1.781  0.00  0.00    +0.010 C 
ENDROOT
BRANCH  15   5
ATOM      3  O   UNL     1      12.773   2.531  -1.047  0.00  0.00    -0.270 OA
ATOM      5  N   UNL     1      11.982   4.695  -0.784  0.00  0.00    -0.308 N 
ATOM     23  C   UNL     1      12.102   3.482  -1.439  0.00  0.00    +0.244 C 
ATOM     35  H   UNL     1      11.503   5.473  -1.225  0.00  0.00    +0.149 HD
BRANCH  23  24
ATOM     24  C   UNL     1      11.366   3.369  -2.725  0.00  0.00    +0.037 A 
ATOM     28  C   UNL     1      10.301   2.476  -2.843  0.00  0.00    +0.016 A 
ATOM     29  C   UNL     1      11.743   4.153  -3.816  0.00  0.00    +0.016 A 
ATOM     30  C   UNL     1       9.612   2.367  -4.051  0.00  0.00    +0.046 A 
ATOM     31  C   UNL     1      11.054   4.044  -5.024  0.00  0.00    +0.046 A 
ATOM     32  C   UNL     1       9.988   3.151  -5.141  0.00  0.00    +0.120 A 
BRANCH  32   4
ATOM      4  O   UNL     1       9.316   3.046  -6.320  0.00  0.00    -0.495 OA
ATOM     34  C   UNL     1       9.974   2.360  -7.383  0.00  0.00    +0.277 C 
ENDBRANCH  32   4
ENDBRANCH  23  24
ENDBRANCH  15   5
BRANCH  11   1
ATOM      1  O   UNL     1      10.699   5.572   4.405  0.00  0.00    -0.391 OA
ATOM     36  H   UNL     1      11.124   5.038   5.098  0.00  0.00    +0.210 HD
ENDBRANCH  11   1
BRANCH  13  19
ATOM     19  C   UNL     1      11.631   7.619   6.297  0.00  0.00    +0.078 C 
ATOM     21  C   UNL     1      12.404   8.801   6.884  0.00  0.00    +0.017 C 
BRANCH  19  22
ATOM      2  O   UNL     1      12.164   5.902   7.879  0.00  0.00    -0.275 OA
ATOM      6  N   UNL     1       9.930   6.495   7.760  0.00  0.00    -0.303 N 
ATOM     22  C   UNL     1      11.273   6.602   7.384  0.00  0.00    +0.219 C 
ATOM     26  C   UNL     1       9.552   5.520   8.778  0.00  0.00    +0.132 C 
BRANCH   6  25
ATOM     25  C   UNL     1       8.826   7.306   7.253  0.00  0.00    +0.122 C 
BRANCH  25  27
ATOM     27  C   UNL     1       8.122   6.657   6.067  0.00  0.00    +0.137 C 
BRANCH  27  33
ATOM      7  N   UNL     1       8.094   8.234   3.961  0.00  0.00    -0.197 NA
ATOM     33  C   UNL     1       8.106   7.539   4.890  0.00  0.00    +0.064 C 
ENDBRANCH  27  33
ENDBRANCH  25  27
ENDBRANCH   6  25
ENDBRANCH  19  22
ENDBRANCH  13  19
TORSDOF 9
ENDMDL
MODEL 7
REMARK VINA RESULT:      -6.0      6.345     11.167
REMARK  Name = 45361384
REMARK  14 active torsions:
REMARK  status: ('A' for Active; 'I' for Inactive)
REMARK    1  A    between atoms: O_1  and  C_11
REMARK    2  A    between atoms: O_4  and  C_32
REMARK    3  A    between atoms: O_4  and  C_34
REMARK    4  A    between atoms: N_5  and  C_15
REMARK    5  A    between atoms: N_6  and  C_25
REMARK    6  A    between atoms: N_6  and  C_26
REMARK    7  A    between atoms: C_8  and  C_18
REMARK    8  A    between atoms: C_10  and  C_20
REMARK    9  A    between atoms: C_13  and  C_19
REMARK   10  A    between atoms: C_19  and  C_21
REMARK   11  A    between atoms: C_19  and  C_22
REMARK   12  A    between atoms: C_23  and  C_24
REMARK   13  A    between atoms: C_25  and  C_27
REMARK   14  A    between atoms: C_27  and  C_33
REMARK                            x       y       z     vdW  Elec       q    Type
REMARK                         _______ _______ _______ _____ _____    ______ ____
ROOT
ATOM      8  C   UNL     1      -5.602 -11.948   5.685  0.00  0.00    -0.027 C 
ATOM      9  C   UNL     1      -6.038 -10.537   6.204  0.00  0.00    +0.028 C 
ATOM     10  C   UNL     1      -5.982 -10.476   7.773  0.00  0.00    +0.012 C 
ATOM     11  C   UNL     1      -7.386 -10.094   5.566  0.00  0.00    +0.122 C 
ATOM     12  C   UNL     1      -5.559 -11.938   4.139  0.00  0.00    +0.007 C 
ATOM     13  C   UNL     1      -7.372 -10.187   4.023  0.00  0.00    +0.029 C 
ATOM     14  C   UNL     1      -4.174 -12.252   6.193  0.00  0.00    +0.009 C 
ATOM     15  C   UNL     1      -4.561 -10.857   8.276  0.00  0.00    +0.076 C 
ATOM     16  C   UNL     1      -6.890 -11.543   3.511  0.00  0.00    +0.007 C 
ATOM     17  C   UNL     1      -4.051 -12.182   7.710  0.00  0.00    +0.023 C 
ATOM     18  C   UNL     1      -6.560 -13.074   6.150  0.00  0.00    +0.011 C 
ATOM     20  C   UNL     1      -6.372  -9.105   8.351  0.00  0.00    +0.010 C 
ENDROOT
BRANCH  15   5
ATOM      3  O   UNL     1      -2.941  -9.235  10.005  0.00  0.00    -0.270 OA
ATOM      5  N   UNL     1      -4.504 -10.924   9.722  0.00  0.00    -0.308 N 
ATOM     23  C   UNL     1      -3.687 -10.094  10.468  0.00  0.00    +0.244 C 
ATOM     35  H   UNL     1      -5.005 -11.687  10.164  0.00  0.00    +0.149 HD
BRANCH  23  24
ATOM     24  C   UNL     1      -3.723 -10.306  11.938  0.00  0.00    +0.037 A 
ATOM     28  C   UNL     1      -4.942 -10.284  12.616  0.00  0.00    +0.016 A 
ATOM     29  C   UNL     1      -2.537 -10.525  12.641  0.00  0.00    +0.016 A 
ATOM     30  C   UNL     1      -4.975 -10.480  13.998  0.00  0.00    +0.046 A 
ATOM     31  C   UNL     1      -2.571 -10.721  14.021  0.00  0.00    +0.046 A 
ATOM     32  C   UNL     1      -3.790 -10.699  14.699  0.00  0.00    +0.120 A 
BRANCH  32   4
ATOM      4  O   UNL     1      -3.823 -10.891  16.047  0.00  0.00    -0.495 OA
ATOM     34  C   UNL     1      -4.815 -10.176  16.781  0.00  0.00    +0.277 C 
ENDBRANCH  32   4
ENDBRANCH  23  24
ENDBRANCH  15   5
BRANCH  11   1
ATOM      1  O   UNL     1      -7.641  -8.727   5.891  0.00  0.00    -0.391 OA
ATOM     36  H   UNL     1      -8.449  -8.691   6.432  0.00  0.00    +0.210 HD
ENDBRANCH  11   1
BRANCH  13  19
ATOM     19  C   UNL     1      -8.747  -9.872   3.421  0.00  0.00    +0.078 C 
ATOM     21  C   UNL     1      -9.174 -11.016   2.498  0.00  0.00    +0.017 C 
BRANCH  19  22
ATOM      2  O   UNL     1      -7.631  -8.198   2.123  0.00  0.00    -0.275 OA
ATOM      6  N   UNL     1      -9.848  -7.762   2.625  0.00  0.00    -0.303 N 
ATOM     22  C   UNL     1      -8.689  -8.545   2.661  0.00  0.00    +0.219 C 
ATOM     26  C   UNL     1      -9.820  -6.481   1.928  0.00  0.00    +0.132 C 
BRANCH   6  25
ATOM     25  C   UNL     1     -11.144  -8.114   3.201  0.00  0.00    +0.122 C 
BRANCH  25  27
ATOM     27  C   UNL     1     -11.606  -7.112   4.252  0.00  0.00    +0.137 C 
BRANCH  27  33
ATOM      7  N   UNL     1      -9.946  -6.993   6.289  0.00  0.00    -0.197 NA
ATOM     33  C   UNL     1     -10.679  -7.045   5.391  0.00  0.00    +0.064 C 
ENDBRANCH  27  33
ENDBRANCH  25  27
ENDBRANCH   6  25
ENDBRANCH  19  22
ENDBRANCH  13  19
TORSDOF 9
ENDMDL
MODEL 8
REMARK VINA RESULT:      -6.0     25.070     32.527
REMARK  Name = 45361384
REMARK  14 active torsions:
REMARK  status: ('A' for Active; 'I' for Inactive)
REMARK    1  A    between atoms: O_1  and  C_11
REMARK    2  A    between atoms: O_4  and  C_32
REMARK    3  A    between atoms: O_4  and  C_34
REMARK    4  A    between atoms: N_5  and  C_15
REMARK    5  A    between atoms: N_6  and  C_25
REMARK    6  A    between atoms: N_6  and  C_26
REMARK    7  A    between atoms: C_8  and  C_18
REMARK    8  A    between atoms: C_10  and  C_20
REMARK    9  A    between atoms: C_13  and  C_19
REMARK   10  A    between atoms: C_19  and  C_21
REMARK   11  A    between atoms: C_19  and  C_22
REMARK   12  A    between atoms: C_23  and  C_24
REMARK   13  A    between atoms: C_25  and  C_27
REMARK   14  A    between atoms: C_27  and  C_33
REMARK                            x       y       z     vdW  Elec       q    Type
REMARK                         _______ _______ _______ _____ _____    ______ ____
ROOT
ATOM      8  C   UNL     1      14.096   7.112   2.279  0.00  0.00    -0.027 C 
ATOM      9  C   UNL     1      14.246   7.525   3.780  0.00  0.00    +0.028 C 
ATOM     10  C   UNL     1      15.744   7.411   4.245  0.00  0.00    +0.012 C 
ATOM     11  C   UNL     1      13.212   6.786   4.676  0.00  0.00    +0.122 C 
ATOM     12  C   UNL     1      12.636   7.343   1.824  0.00  0.00    +0.007 C 
ATOM     13  C   UNL     1      11.763   6.934   4.156  0.00  0.00    +0.029 C 
ATOM     14  C   UNL     1      15.007   8.012   1.414  0.00  0.00    +0.009 C 
ATOM     15  C   UNL     1      16.660   8.262   3.321  0.00  0.00    +0.076 C 
ATOM     16  C   UNL     1      11.622   6.589   2.675  0.00  0.00    +0.007 C 
ATOM     17  C   UNL     1      16.470   7.964   1.834  0.00  0.00    +0.023 C 
ATOM     18  C   UNL     1      14.464   5.626   2.032  0.00  0.00    +0.011 C 
ATOM     20  C   UNL     1      15.969   7.831   5.707  0.00  0.00    +0.010 C 
ENDROOT
BRANCH  15   5
ATOM      3  O   UNL     1      18.580  10.343   3.795  0.00  0.00    -0.270 OA
ATOM      5  N   UNL     1      18.060   8.088   3.648  0.00  0.00    -0.308 N 
ATOM     23  C   UNL     1      18.908   9.161   3.859  0.00  0.00    +0.244 C 
ATOM     35  H   UNL     1      18.427   7.144   3.603  0.00  0.00    +0.149 HD
BRANCH  23  24
ATOM     24  C   UNL     1      20.322   8.816   4.159  0.00  0.00    +0.037 A 
ATOM     28  C   UNL     1      21.287   9.821   4.219  0.00  0.00    +0.016 A 
ATOM     29  C   UNL     1      20.685   7.487   4.378  0.00  0.00    +0.016 A 
ATOM     30  C   UNL     1      22.616   9.497   4.498  0.00  0.00    +0.046 A 
ATOM     31  C   UNL     1      22.012   7.163   4.657  0.00  0.00    +0.046 A 
ATOM     32  C   UNL     1      22.977   8.168   4.718  0.00  0.00    +0.120 A 
BRANCH  32   4
ATOM      4  O   UNL     1      24.273   7.852   4.991  0.00  0.00    -0.495 OA
ATOM     34  C   UNL     1      25.106   8.898   5.486  0.00  0.00    +0.277 C 
ENDBRANCH  32   4
ENDBRANCH  23  24
ENDBRANCH  15   5
BRANCH  11   1
ATOM      1  O   UNL     1      13.234   7.343   5.990  0.00  0.00    -0.391 OA
ATOM     36  H   UNL     1      13.421   6.625   6.620  0.00  0.00    +0.210 HD
ENDBRANCH  11   1
BRANCH  13  19
ATOM     19  C   UNL     1      10.775   6.093   4.974  0.00  0.00    +0.078 C 
ATOM     21  C   UNL     1      10.039   5.125   4.047  0.00  0.00    +0.017 C 
BRANCH  19  22
ATOM      2  O   UNL     1       9.071   7.774   5.047  0.00  0.00    -0.275 OA
ATOM      6  N   UNL     1       9.764   6.962   7.101  0.00  0.00    -0.303 N 
ATOM     22  C   UNL     1       9.791   7.012   5.703  0.00  0.00    +0.219 C 
ATOM     26  C   UNL     1       8.853   7.841   7.826  0.00  0.00    +0.132 C 
BRANCH   6  25
ATOM     25  C   UNL     1      10.552   6.068   7.946  0.00  0.00    +0.122 C 
BRANCH  25  27
ATOM     27  C   UNL     1       9.877   4.719   8.156  0.00  0.00    +0.137 C 
BRANCH  27  33
ATOM      7  N   UNL     1       8.721   4.557  10.514  0.00  0.00    -0.197 NA
ATOM     33  C   UNL     1       9.231   4.627   9.474  0.00  0.00    +0.064 C 
ENDBRANCH  27  33
ENDBRANCH  25  27
ENDBRANCH   6  25
ENDBRANCH  19  22
ENDBRANCH  13  19
TORSDOF 9
ENDMDL
MODEL 9
REMARK VINA RESULT:      -5.9      4.345     10.288
REMARK  Name = 45361384
REMARK  14 active torsions:
REMARK  status: ('A' for Active; 'I' for Inactive)
REMARK    1  A    between atoms: O_1  and  C_11
REMARK    2  A    between atoms: O_4  and  C_32
REMARK    3  A    between atoms: O_4  and  C_34
REMARK    4  A    between atoms: N_5  and  C_15
REMARK    5  A    between atoms: N_6  and  C_25
REMARK    6  A    between atoms: N_6  and  C_26
REMARK    7  A    between atoms: C_8  and  C_18
REMARK    8  A    between atoms: C_10  and  C_20
REMARK    9  A    between atoms: C_13  and  C_19
REMARK   10  A    between atoms: C_19  and  C_21
REMARK   11  A    between atoms: C_19  and  C_22
REMARK   12  A    between atoms: C_23  and  C_24
REMARK   13  A    between atoms: C_25  and  C_27
REMARK   14  A    between atoms: C_27  and  C_33
REMARK                            x       y       z     vdW  Elec       q    Type
REMARK                         _______ _______ _______ _____ _____    ______ ____
ROOT
ATOM      8  C   UNL     1      -3.590 -11.415  11.467  0.00  0.00    -0.027 C 
ATOM      9  C   UNL     1      -5.036 -11.052  11.940  0.00  0.00    +0.028 C 
ATOM     10  C   UNL     1      -5.781 -10.192  10.856  0.00  0.00    +0.012 C 
ATOM     11  C   UNL     1      -5.028 -10.454  13.376  0.00  0.00    +0.122 C 
ATOM     12  C   UNL     1      -2.929 -12.353  12.504  0.00  0.00    +0.007 C 
ATOM     13  C   UNL     1      -4.273 -11.348  14.388  0.00  0.00    +0.029 C 
ATOM     14  C   UNL     1      -3.674 -12.179  10.127  0.00  0.00    +0.009 C 
ATOM     15  C   UNL     1      -5.793 -10.939   9.492  0.00  0.00    +0.076 C 
ATOM     16  C   UNL     1      -2.882 -11.754  13.904  0.00  0.00    +0.007 C 
ATOM     17  C   UNL     1      -4.409 -11.404   9.041  0.00  0.00    +0.023 C 
ATOM     18  C   UNL     1      -2.693 -10.163  11.286  0.00  0.00    +0.011 C 
ATOM     20  C   UNL     1      -7.222  -9.823  11.244  0.00  0.00    +0.010 C 
ENDROOT
BRANCH  15   5
ATOM      3  O   UNL     1      -7.906 -11.695   7.701  0.00  0.00    -0.270 OA
ATOM      5  N   UNL     1      -6.368 -10.125   8.441  0.00  0.00    -0.308 N 
ATOM     23  C   UNL     1      -7.389 -10.583   7.626  0.00  0.00    +0.244 C 
ATOM     35  H   UNL     1      -5.913  -9.240   8.246  0.00  0.00    +0.149 HD
BRANCH  23  24
ATOM     24  C   UNL     1      -7.851  -9.637   6.578  0.00  0.00    +0.037 A 
ATOM     28  C   UNL     1      -9.197  -9.277   6.509  0.00  0.00    +0.016 A 
ATOM     29  C   UNL     1      -6.940  -9.112   5.661  0.00  0.00    +0.016 A 
ATOM     30  C   UNL     1      -9.632  -8.391   5.522  0.00  0.00    +0.046 A 
ATOM     31  C   UNL     1      -7.374  -8.226   4.676  0.00  0.00    +0.046 A 
ATOM     32  C   UNL     1      -8.720  -7.866   4.607  0.00  0.00    +0.120 A 
BRANCH  32   4
ATOM      4  O   UNL     1      -9.144  -7.000   3.644  0.00  0.00    -0.495 OA
ATOM     34  C   UNL     1      -8.630  -7.192   2.328  0.00  0.00    +0.277 C 
ENDBRANCH  32   4
ENDBRANCH  23  24
ENDBRANCH  15   5
BRANCH  11   1
ATOM      1  O   UNL     1      -6.369 -10.338  13.853  0.00  0.00    -0.391 OA
ATOM     36  H   UNL     1      -6.959 -10.750  13.199  0.00  0.00    +0.210 HD
ENDBRANCH  11   1
BRANCH  13  19
ATOM     19  C   UNL     1      -4.163 -10.682  15.764  0.00  0.00    +0.078 C 
ATOM     21  C   UNL     1      -2.689 -10.573  16.161  0.00  0.00    +0.017 C 
BRANCH  19  22
ATOM      2  O   UNL     1      -4.589 -12.640  17.076  0.00  0.00    -0.275 OA
ATOM      6  N   UNL     1      -6.077 -10.893  17.374  0.00  0.00    -0.303 N 
ATOM     22  C   UNL     1      -4.952 -11.491  16.797  0.00  0.00    +0.219 C 
ATOM     26  C   UNL     1      -6.864 -11.645  18.345  0.00  0.00    +0.132 C 
BRANCH   6  25
ATOM     25  C   UNL     1      -6.551  -9.532  17.127  0.00  0.00    +0.122 C 
BRANCH  25  27
ATOM     27  C   UNL     1      -8.064  -9.410  17.253  0.00  0.00    +0.137 C 
BRANCH  27  33
ATOM      7  N   UNL     1      -9.231  -9.234  14.902  0.00  0.00    -0.197 NA
ATOM     33  C   UNL     1      -8.717  -9.311  15.940  0.00  0.00    +0.064 C 
ENDBRANCH  27  33
ENDBRANCH  25  27
ENDBRANCH   6  25
ENDBRANCH  19  22
ENDBRANCH  13  19
TORSDOF 9
ENDMDL
MODEL 10
REMARK VINA RESULT:      -5.8     21.623     25.256
REMARK  Name = 45361384
REMARK  14 active torsions:
REMARK  status: ('A' for Active; 'I' for Inactive)
REMARK    1  A    between atoms: O_1  and  C_11
REMARK    2  A    between atoms: O_4  and  C_32
REMARK    3  A    between atoms: O_4  and  C_34
REMARK    4  A    between atoms: N_5  and  C_15
REMARK    5  A    between atoms: N_6  and  C_25
REMARK    6  A    between atoms: N_6  and  C_26
REMARK    7  A    between atoms: C_8  and  C_18
REMARK    8  A    between atoms: C_10  and  C_20
REMARK    9  A    between atoms: C_13  and  C_19
REMARK   10  A    between atoms: C_19  and  C_21
REMARK   11  A    between atoms: C_19  and  C_22
REMARK   12  A    between atoms: C_23  and  C_24
REMARK   13  A    between atoms: C_25  and  C_27
REMARK   14  A    between atoms: C_27  and  C_33
REMARK                            x       y       z     vdW  Elec       q    Type
REMARK                         _______ _______ _______ _____ _____    ______ ____
ROOT
ATOM      8  C   UNL     1      -0.216  11.660   4.475  0.00  0.00    -0.027 C 
ATOM      9  C   UNL     1      -0.766  11.168   5.854  0.00  0.00    +0.028 C 
ATOM     10  C   UNL     1      -2.246  10.656   5.716  0.00  0.00    +0.012 C 
ATOM     11  C   UNL     1      -0.527  12.227   6.968  0.00  0.00    +0.122 C 
ATOM     12  C   UNL     1       1.274  12.049   4.623  0.00  0.00    +0.007 C 
ATOM     13  C   UNL     1       0.947  12.690   7.041  0.00  0.00    +0.029 C 
ATOM     14  C   UNL     1      -0.301  10.501   3.455  0.00  0.00    +0.009 C 
ATOM     15  C   UNL     1      -2.331   9.543   4.635  0.00  0.00    +0.076 C 
ATOM     16  C   UNL     1       1.507  13.116   5.685  0.00  0.00    +0.007 C 
ATOM     17  C   UNL     1      -1.710   9.945   3.298  0.00  0.00    +0.023 C 
ATOM     18  C   UNL     1      -0.997  12.881   3.925  0.00  0.00    +0.011 C 
ATOM     20  C   UNL     1      -2.841  10.130   7.034  0.00  0.00    +0.010 C 
ENDROOT
BRANCH  15   5
ATOM      3  O   UNL     1      -3.509   7.024   5.352  0.00  0.00    -0.270 OA
ATOM      5  N   UNL     1      -3.700   9.130   4.399  0.00  0.00    -0.308 N 
ATOM     23  C   UNL     1      -4.173   7.888   4.784  0.00  0.00    +0.244 C 
ATOM     35  H   UNL     1      -4.272   9.745   3.832  0.00  0.00    +0.149 HD
BRANCH  23  24
ATOM     24  C   UNL     1      -5.592   7.606   4.446  0.00  0.00    +0.037 A 
ATOM     28  C   UNL     1      -6.345   8.552   3.749  0.00  0.00    +0.016 A 
ATOM     29  C   UNL     1      -6.173   6.396   4.827  0.00  0.00    +0.016 A 
ATOM     30  C   UNL     1      -7.678   8.288   3.434  0.00  0.00    +0.046 A 
ATOM     31  C   UNL     1      -7.505   6.132   4.512  0.00  0.00    +0.046 A 
ATOM     32  C   UNL     1      -8.258   7.078   3.815  0.00  0.00    +0.120 A 
BRANCH  32   4
ATOM      4  O   UNL     1      -9.559   6.820   3.507  0.00  0.00    -0.495 OA
ATOM     34  C   UNL     1     -10.270   5.944   4.380  0.00  0.00    +0.277 C 
ENDBRANCH  32   4
ENDBRANCH  23  24
ENDBRANCH  15   5
BRANCH  11   1
ATOM      1  O   UNL     1      -0.842  11.662   8.241  0.00  0.00    -0.391 OA
ATOM     36  H   UNL     1      -0.496  12.256   8.929  0.00  0.00    +0.210 HD
ENDBRANCH  11   1
BRANCH  13  19
ATOM     19  C   UNL     1       1.137  13.827   8.053  0.00  0.00    +0.078 C 
ATOM     21  C   UNL     1       1.616  15.084   7.324  0.00  0.00    +0.017 C 
BRANCH  19  22
ATOM      2  O   UNL     1       3.063  12.636   8.831  0.00  0.00    -0.275 OA
ATOM      6  N   UNL     1       1.948  13.886  10.427  0.00  0.00    -0.303 N 
ATOM     22  C   UNL     1       2.138  13.400   9.129  0.00  0.00    +0.219 C 
ATOM     26  C   UNL     1       2.872  13.482  11.481  0.00  0.00    +0.132 C 
BRANCH   6  25
ATOM     25  C   UNL     1       0.907  14.818  10.854  0.00  0.00    +0.122 C 
BRANCH  25  27
ATOM     27  C   UNL     1      -0.141  14.156  11.741  0.00  0.00    +0.137 C 
BRANCH  27  33
ATOM      7  N   UNL     1      -2.216  13.324  10.354  0.00  0.00    -0.197 NA
ATOM     33  C   UNL     1      -1.300  13.691  10.965  0.00  0.00    +0.064 C 
ENDBRANCH  27  33
ENDBRANCH  25  27
ENDBRANCH   6  25
ENDBRANCH  19  22
ENDBRANCH  13  19
TORSDOF 9
ENDMDL
