MODEL 1
REMARK VINA RESULT:      -6.2      0.000      0.000
REMARK  Name = 75536498
REMARK  7 active torsions:
REMARK  status: ('A' for Active; 'I' for Inactive)
REMARK    1  A    between atoms: O_2  and  C_10
REMARK    2  A    between atoms: N_5  and  C_8
REMARK    3  A    between atoms: N_5  and  C_9
REMARK    4  A    between atoms: N_7  and  C_17
REMARK    5  A    between atoms: C_11  and  C_17
REMARK    6  A    between atoms: C_18  and  C_19
REMARK    7  A    between atoms: C_20  and  C_21
REMARK                            x       y       z     vdW  Elec       q    Type
REMARK                         _______ _______ _______ _____ _____    ______ ____
ROOT
ATOM      1  O   UNL     1      18.570   6.015  19.628  0.00  0.00    -0.371 OA
ATOM      8  C   UNL     1      16.369   6.839  19.974  0.00  0.00    +0.111 C 
ATOM     10  C   UNL     1      17.156   6.973  21.264  0.00  0.00    +0.164 C 
ATOM     11  C   UNL     1      18.585   6.923  20.743  0.00  0.00    +0.165 C 
ATOM     14  C   UNL     1      17.206   5.821  19.216  0.00  0.00    +0.181 C 
ENDROOT
BRANCH  10   2
ATOM      2  O   UNL     1      16.885   8.183  21.945  0.00  0.00    -0.388 OA
ATOM     23  H   UNL     1      16.482   7.967  22.803  0.00  0.00    +0.210 HD
ENDBRANCH  10   2
BRANCH   8   5
ATOM      5  N   UNL     1      14.994   6.408  20.171  0.00  0.00    -0.306 NA
ATOM     22  H   UNL     1      14.846   6.137  21.142  0.00  0.00    +0.123 HD
BRANCH   5   9
ATOM      3  O   UNL     1      10.325   8.255  16.623  0.00  0.00    -0.276 OA
ATOM      6  N   UNL     1      12.223   8.651  17.901  0.00  0.00    -0.302 N 
ATOM      9  C   UNL     1      14.060   7.469  19.801  0.00  0.00    +0.057 C 
ATOM     12  C   UNL     1      12.664   6.880  19.558  0.00  0.00    +0.037 C 
ATOM     13  C   UNL     1      14.560   8.198  18.547  0.00  0.00    +0.037 C 
ATOM     15  C   UNL     1      11.695   7.958  19.077  0.00  0.00    +0.109 C 
ATOM     16  C   UNL     1      13.552   9.249  18.086  0.00  0.00    +0.109 C 
ATOM     18  C   UNL     1      11.455   8.736  16.741  0.00  0.00    +0.212 C 
ATOM     19  C   UNL     1      12.071   9.464  15.573  0.00  0.00    +0.109 C 
ENDBRANCH   5   9
ENDBRANCH   8   5
BRANCH  11  17
ATOM     17  C   UNL     1      19.586   6.445  21.780  0.00  0.00    +0.138 C 
BRANCH  17   7
ATOM      4  O   UNL     1      21.555   4.604  22.860  0.00  0.00    -0.276 OA
ATOM      7  N   UNL     1      20.810   6.020  21.165  0.00  0.00    -0.313 N 
ATOM     20  C   UNL     1      21.698   5.129  21.759  0.00  0.00    +0.210 C 
ATOM     21  C   UNL     1      22.890   4.833  20.886  0.00  0.00    +0.109 C 
ATOM     24  H   UNL     1      21.033   6.395  20.247  0.00  0.00    +0.149 HD
ENDBRANCH  17   7
ENDBRANCH  11  17
TORSDOF 5
ENDMDL
MODEL 2
REMARK VINA RESULT:      -6.2      5.117      6.802
REMARK  Name = 75536498
REMARK  7 active torsions:
REMARK  status: ('A' for Active; 'I' for Inactive)
REMARK    1  A    between atoms: O_2  and  C_10
REMARK    2  A    between atoms: N_5  and  C_8
REMARK    3  A    between atoms: N_5  and  C_9
REMARK    4  A    between atoms: N_7  and  C_17
REMARK    5  A    between atoms: C_11  and  C_17
REMARK    6  A    between atoms: C_18  and  C_19
REMARK    7  A    between atoms: C_20  and  C_21
REMARK                            x       y       z     vdW  Elec       q    Type
REMARK                         _______ _______ _______ _____ _____    ______ ____
ROOT
ATOM      1  O   UNL     1      12.139   7.956  19.804  0.00  0.00    -0.371 OA
ATOM      8  C   UNL     1      11.985   9.191  21.827  0.00  0.00    +0.111 C 
ATOM     10  C   UNL     1      13.203   8.289  21.889  0.00  0.00    +0.164 C 
ATOM     11  C   UNL     1      13.440   8.013  20.411  0.00  0.00    +0.165 C 
ATOM     14  C   UNL     1      11.187   8.541  20.708  0.00  0.00    +0.181 C 
ENDROOT
BRANCH  10   2
ATOM      2  O   UNL     1      14.317   8.916  22.494  0.00  0.00    -0.388 OA
ATOM     23  H   UNL     1      15.089   8.334  22.393  0.00  0.00    +0.210 HD
ENDBRANCH  10   2
BRANCH   8   5
ATOM      5  N   UNL     1      11.249   9.266  23.078  0.00  0.00    -0.306 NA
ATOM     22  H   UNL     1      11.837   8.956  23.851  0.00  0.00    +0.123 HD
BRANCH   5   9
ATOM      3  O   UNL     1      12.530  15.276  23.276  0.00  0.00    -0.276 OA
ATOM      6  N   UNL     1      11.329  13.403  23.942  0.00  0.00    -0.302 N 
ATOM      9  C   UNL     1      10.780  10.628  23.324  0.00  0.00    +0.057 C 
ATOM     12  C   UNL     1      11.368  11.584  22.278  0.00  0.00    +0.037 C 
ATOM     13  C   UNL     1      11.173  11.073  24.738  0.00  0.00    +0.037 C 
ATOM     15  C   UNL     1      10.968  13.028  22.573  0.00  0.00    +0.109 C 
ATOM     16  C   UNL     1      10.777  12.529  24.985  0.00  0.00    +0.109 C 
ATOM     18  C   UNL     1      12.107  14.538  24.169  0.00  0.00    +0.212 C 
ATOM     19  C   UNL     1      12.438  14.854  25.606  0.00  0.00    +0.109 C 
ENDBRANCH   5   9
ENDBRANCH   8   5
BRANCH  11  17
ATOM     17  C   UNL     1      14.184   6.714  20.155  0.00  0.00    +0.138 C 
BRANCH  17   7
ATOM      4  O   UNL     1      16.475   5.736  18.662  0.00  0.00    -0.276 OA
ATOM      7  N   UNL     1      15.569   6.827  20.511  0.00  0.00    -0.313 N 
ATOM     20  C   UNL     1      16.606   6.327  19.730  0.00  0.00    +0.210 C 
ATOM     21  C   UNL     1      17.962   6.605  20.324  0.00  0.00    +0.109 C 
ATOM     24  H   UNL     1      15.795   7.299  21.382  0.00  0.00    +0.149 HD
ENDBRANCH  17   7
ENDBRANCH  11  17
TORSDOF 5
ENDMDL
MODEL 3
REMARK VINA RESULT:      -6.1     14.314     18.382
REMARK  Name = 75536498
REMARK  7 active torsions:
REMARK  status: ('A' for Active; 'I' for Inactive)
REMARK    1  A    between atoms: O_2  and  C_10
REMARK    2  A    between atoms: N_5  and  C_8
REMARK    3  A    between atoms: N_5  and  C_9
REMARK    4  A    between atoms: N_7  and  C_17
REMARK    5  A    between atoms: C_11  and  C_17
REMARK    6  A    between atoms: C_18  and  C_19
REMARK    7  A    between atoms: C_20  and  C_21
REMARK                            x       y       z     vdW  Elec       q    Type
REMARK                         _______ _______ _______ _____ _____    ______ ____
ROOT
ATOM      1  O   UNL     1       9.554   7.218   4.446  0.00  0.00    -0.371 OA
ATOM      8  C   UNL     1      10.381   5.131   3.670  0.00  0.00    +0.111 C 
ATOM     10  C   UNL     1      10.402   5.139   5.187  0.00  0.00    +0.164 C 
ATOM     11  C   UNL     1       9.397   6.242   5.489  0.00  0.00    +0.165 C 
ATOM     14  C   UNL     1      10.286   6.617   3.364  0.00  0.00    +0.181 C 
ENDROOT
BRANCH  10   2
ATOM      2  O   UNL     1      10.008   3.900   5.745  0.00  0.00    -0.388 OA
ATOM     23  H   UNL     1       9.108   3.996   6.100  0.00  0.00    +0.210 HD
ENDBRANCH  10   2
BRANCH   8   5
ATOM      5  N   UNL     1      11.549   4.503   3.074  0.00  0.00    -0.306 NA
ATOM     22  H   UNL     1      11.517   3.495   3.215  0.00  0.00    +0.123 HD
BRANCH   5   9
ATOM      3  O   UNL     1       9.976   3.002  -2.677  0.00  0.00    -0.276 OA
ATOM      6  N   UNL     1      11.399   3.968  -1.116  0.00  0.00    -0.302 N 
ATOM      9  C   UNL     1      11.628   4.804   1.646  0.00  0.00    +0.057 C 
ATOM     12  C   UNL     1      10.262   4.580   0.985  0.00  0.00    +0.037 C 
ATOM     13  C   UNL     1      12.697   3.928   0.981  0.00  0.00    +0.037 C 
ATOM     15  C   UNL     1      10.346   4.797  -0.525  0.00  0.00    +0.109 C 
ATOM     16  C   UNL     1      12.732   4.157  -0.529  0.00  0.00    +0.109 C 
ATOM     18  C   UNL     1      11.098   3.117  -2.178  0.00  0.00    +0.212 C 
ATOM     19  C   UNL     1      12.236   2.295  -2.729  0.00  0.00    +0.109 C 
ENDBRANCH   5   9
ENDBRANCH   8   5
BRANCH  11  17
ATOM     17  C   UNL     1       9.613   6.897   6.842  0.00  0.00    +0.138 C 
BRANCH  17   7
ATOM      4  O   UNL     1      11.167   5.419   8.800  0.00  0.00    -0.276 OA
ATOM      7  N   UNL     1       9.117   6.072   7.906  0.00  0.00    -0.313 N 
ATOM     20  C   UNL     1       9.939   5.398   8.802  0.00  0.00    +0.210 C 
ATOM     21  C   UNL     1       9.160   4.626   9.834  0.00  0.00    +0.109 C 
ATOM     24  H   UNL     1       8.109   5.980   8.001  0.00  0.00    +0.149 HD
ENDBRANCH  17   7
ENDBRANCH  11  17
TORSDOF 5
ENDMDL
MODEL 4
REMARK VINA RESULT:      -6.1      2.573      3.266
REMARK  Name = 75536498
REMARK  7 active torsions:
REMARK  status: ('A' for Active; 'I' for Inactive)
REMARK    1  A    between atoms: O_2  and  C_10
REMARK    2  A    between atoms: N_5  and  C_8
REMARK    3  A    between atoms: N_5  and  C_9
REMARK    4  A    between atoms: N_7  and  C_17
REMARK    5  A    between atoms: C_11  and  C_17
REMARK    6  A    between atoms: C_18  and  C_19
REMARK    7  A    between atoms: C_20  and  C_21
REMARK                            x       y       z     vdW  Elec       q    Type
REMARK                         _______ _______ _______ _____ _____    ______ ____
ROOT
ATOM      1  O   UNL     1      17.327   6.815  19.599  0.00  0.00    -0.371 OA
ATOM      8  C   UNL     1      15.071   7.058  20.303  0.00  0.00    +0.111 C 
ATOM     10  C   UNL     1      15.984   7.211  21.505  0.00  0.00    +0.164 C 
ATOM     11  C   UNL     1      17.303   7.558  20.830  0.00  0.00    +0.165 C 
ATOM     14  C   UNL     1      15.992   6.363  19.313  0.00  0.00    +0.181 C 
ENDROOT
BRANCH  10   2
ATOM      2  O   UNL     1      15.558   8.232  22.387  0.00  0.00    -0.388 OA
ATOM     23  H   UNL     1      15.335   7.825  23.241  0.00  0.00    +0.210 HD
ENDBRANCH  10   2
BRANCH   8   5
ATOM      5  N   UNL     1      13.862   6.300  20.581  0.00  0.00    -0.306 NA
ATOM     22  H   UNL     1      13.945   5.821  21.476  0.00  0.00    +0.123 HD
BRANCH   5   9
ATOM      3  O   UNL     1      11.557  11.935  21.437  0.00  0.00    -0.276 OA
ATOM      6  N   UNL     1      11.386   9.619  21.427  0.00  0.00    -0.302 N 
ATOM      9  C   UNL     1      12.691   7.174  20.589  0.00  0.00    +0.057 C 
ATOM     12  C   UNL     1      13.042   8.529  19.961  0.00  0.00    +0.037 C 
ATOM     13  C   UNL     1      12.186   7.363  22.025  0.00  0.00    +0.037 C 
ATOM     15  C   UNL     1      11.859   9.492  20.048  0.00  0.00    +0.109 C 
ATOM     16  C   UNL     1      11.020   8.350  22.071  0.00  0.00    +0.109 C 
ATOM     18  C   UNL     1      11.276  10.880  22.011  0.00  0.00    +0.212 C 
ATOM     19  C   UNL     1      10.785  10.926  23.436  0.00  0.00    +0.109 C 
ENDBRANCH   5   9
ENDBRANCH   8   5
BRANCH  11  17
ATOM     17  C   UNL     1      18.518   7.201  21.668  0.00  0.00    +0.138 C 
BRANCH  17   7
ATOM      4  O   UNL     1      20.800   5.753  22.732  0.00  0.00    -0.276 OA
ATOM      7  N   UNL     1      19.403   6.323  20.956  0.00  0.00    -0.313 N 
ATOM     20  C   UNL     1      20.476   5.668  21.550  0.00  0.00    +0.210 C 
ATOM     21  C   UNL     1      21.223   4.789  20.582  0.00  0.00    +0.109 C 
ATOM     24  H   UNL     1      19.228   6.180  19.965  0.00  0.00    +0.149 HD
ENDBRANCH  17   7
ENDBRANCH  11  17
TORSDOF 5
ENDMDL
MODEL 5
REMARK VINA RESULT:      -5.9     14.037     18.165
REMARK  Name = 75536498
REMARK  7 active torsions:
REMARK  status: ('A' for Active; 'I' for Inactive)
REMARK    1  A    between atoms: O_2  and  C_10
REMARK    2  A    between atoms: N_5  and  C_8
REMARK    3  A    between atoms: N_5  and  C_9
REMARK    4  A    between atoms: N_7  and  C_17
REMARK    5  A    between atoms: C_11  and  C_17
REMARK    6  A    between atoms: C_18  and  C_19
REMARK    7  A    between atoms: C_20  and  C_21
REMARK                            x       y       z     vdW  Elec       q    Type
REMARK                         _______ _______ _______ _____ _____    ______ ____
ROOT
ATOM      1  O   UNL     1       9.350   7.003   4.392  0.00  0.00    -0.371 OA
ATOM      8  C   UNL     1      10.299   4.919   3.761  0.00  0.00    +0.111 C 
ATOM     10  C   UNL     1      10.360   5.053   5.271  0.00  0.00    +0.164 C 
ATOM     11  C   UNL     1       9.289   6.108   5.515  0.00  0.00    +0.165 C 
ATOM     14  C   UNL     1      10.092   6.365   3.339  0.00  0.00    +0.181 C 
ENDROOT
BRANCH  10   2
ATOM      2  O   UNL     1      10.068   3.841   5.939  0.00  0.00    -0.388 OA
ATOM     23  H   UNL     1      10.523   3.848   6.798  0.00  0.00    +0.210 HD
ENDBRANCH  10   2
BRANCH   8   5
ATOM      5  N   UNL     1      11.491   4.325   3.179  0.00  0.00    -0.306 NA
ATOM     22  H   UNL     1      11.367   3.319   3.075  0.00  0.00    +0.123 HD
BRANCH   5   9
ATOM      3  O   UNL     1      13.332   3.560  -2.637  0.00  0.00    -0.276 OA
ATOM      6  N   UNL     1      13.099   4.818  -0.698  0.00  0.00    -0.302 N 
ATOM      9  C   UNL     1      11.792   4.927   1.882  0.00  0.00    +0.057 C 
ATOM     12  C   UNL     1      11.266   4.034   0.752  0.00  0.00    +0.037 C 
ATOM     13  C   UNL     1      13.304   5.140   1.739  0.00  0.00    +0.037 C 
ATOM     15  C   UNL     1      11.654   4.598  -0.614  0.00  0.00    +0.109 C 
ATOM     16  C   UNL     1      13.652   5.682   0.353  0.00  0.00    +0.109 C 
ATOM     18  C   UNL     1      13.827   4.254  -1.746  0.00  0.00    +0.212 C 
ATOM     19  C   UNL     1      15.310   4.525  -1.760  0.00  0.00    +0.109 C 
ENDBRANCH   5   9
ENDBRANCH   8   5
BRANCH  11  17
ATOM     17  C   UNL     1       9.496   6.885   6.804  0.00  0.00    +0.138 C 
BRANCH  17   7
ATOM      4  O   UNL     1      11.065   5.334   8.691  0.00  0.00    -0.276 OA
ATOM      7  N   UNL     1       9.016   6.150   7.939  0.00  0.00    -0.313 N 
ATOM     20  C   UNL     1       9.845   5.432   8.794  0.00  0.00    +0.210 C 
ATOM     21  C   UNL     1       9.087   4.775   9.917  0.00  0.00    +0.109 C 
ATOM     24  H   UNL     1       8.016   6.159   8.119  0.00  0.00    +0.149 HD
ENDBRANCH  17   7
ENDBRANCH  11  17
TORSDOF 5
ENDMDL
MODEL 6
REMARK VINA RESULT:      -5.8     28.594     31.256
REMARK  Name = 75536498
REMARK  7 active torsions:
REMARK  status: ('A' for Active; 'I' for Inactive)
REMARK    1  A    between atoms: O_2  and  C_10
REMARK    2  A    between atoms: N_5  and  C_8
REMARK    3  A    between atoms: N_5  and  C_9
REMARK    4  A    between atoms: N_7  and  C_17
REMARK    5  A    between atoms: C_11  and  C_17
REMARK    6  A    between atoms: C_18  and  C_19
REMARK    7  A    between atoms: C_20  and  C_21
REMARK                            x       y       z     vdW  Elec       q    Type
REMARK                         _______ _______ _______ _____ _____    ______ ____
ROOT
ATOM      1  O   UNL     1     -12.197  -7.822  13.963  0.00  0.00    -0.371 OA
ATOM      8  C   UNL     1     -10.386  -8.140  15.467  0.00  0.00    +0.111 C 
ATOM     10  C   UNL     1     -10.832  -6.691  15.528  0.00  0.00    +0.164 C 
ATOM     11  C   UNL     1     -12.242  -6.794  14.967  0.00  0.00    +0.165 C 
ATOM     14  C   UNL     1     -10.991  -8.585  14.146  0.00  0.00    +0.181 C 
ENDROOT
BRANCH  10   2
ATOM      2  O   UNL     1     -10.825  -6.172  16.844  0.00  0.00    -0.388 OA
ATOM     23  H   UNL     1     -11.323  -5.338  16.847  0.00  0.00    +0.210 HD
ENDBRANCH  10   2
BRANCH   8   5
ATOM      5  N   UNL     1      -8.943  -8.309  15.514  0.00  0.00    -0.306 NA
ATOM     22  H   UNL     1      -8.510  -7.510  15.976  0.00  0.00    +0.123 HD
BRANCH   5   9
ATOM      3  O   UNL     1      -6.346 -10.980  20.405  0.00  0.00    -0.276 OA
ATOM      6  N   UNL     1      -6.988 -10.949  18.173  0.00  0.00    -0.302 N 
ATOM      9  C   UNL     1      -8.587  -9.542  16.213  0.00  0.00    +0.057 C 
ATOM     12  C   UNL     1      -8.839  -9.386  17.718  0.00  0.00    +0.037 C 
ATOM     13  C   UNL     1      -7.117  -9.893  15.948  0.00  0.00    +0.037 C 
ATOM     15  C   UNL     1      -8.384 -10.630  18.478  0.00  0.00    +0.109 C 
ATOM     16  C   UNL     1      -6.696 -11.127  16.745  0.00  0.00    +0.109 C 
ATOM     18  C   UNL     1      -6.068 -11.100  19.209  0.00  0.00    +0.212 C 
ATOM     19  C   UNL     1      -4.650 -11.426  18.812  0.00  0.00    +0.109 C 
ENDBRANCH   5   9
ENDBRANCH   8   5
BRANCH  11  17
ATOM     17  C   UNL     1     -12.740  -5.498  14.351  0.00  0.00    +0.138 C 
BRANCH  17   7
ATOM      4  O   UNL     1     -12.413  -3.113  12.725  0.00  0.00    -0.276 OA
ATOM      7  N   UNL     1     -12.429  -5.433  12.951  0.00  0.00    -0.313 N 
ATOM     20  C   UNL     1     -12.289  -4.239  12.251  0.00  0.00    +0.210 C 
ATOM     21  C   UNL     1     -11.937  -4.457  10.803  0.00  0.00    +0.109 C 
ATOM     24  H   UNL     1     -12.307  -6.310  12.454  0.00  0.00    +0.149 HD
ENDBRANCH  17   7
ENDBRANCH  11  17
TORSDOF 5
ENDMDL
MODEL 7
REMARK VINA RESULT:      -5.7     25.952     28.575
REMARK  Name = 75536498
REMARK  7 active torsions:
REMARK  status: ('A' for Active; 'I' for Inactive)
REMARK    1  A    between atoms: O_2  and  C_10
REMARK    2  A    between atoms: N_5  and  C_8
REMARK    3  A    between atoms: N_5  and  C_9
REMARK    4  A    between atoms: N_7  and  C_17
REMARK    5  A    between atoms: C_11  and  C_17
REMARK    6  A    between atoms: C_18  and  C_19
REMARK    7  A    between atoms: C_20  and  C_21
REMARK                            x       y       z     vdW  Elec       q    Type
REMARK                         _______ _______ _______ _____ _____    ______ ____
ROOT
ATOM      1  O   UNL     1      -4.072 -13.537  13.967  0.00  0.00    -0.371 OA
ATOM      8  C   UNL     1      -4.117 -12.025  15.799  0.00  0.00    +0.111 C 
ATOM     10  C   UNL     1      -3.040 -11.589  14.824  0.00  0.00    +0.164 C 
ATOM     11  C   UNL     1      -3.496 -12.287  13.551  0.00  0.00    +0.165 C 
ATOM     14  C   UNL     1      -4.335 -13.470  15.379  0.00  0.00    +0.181 C 
ENDROOT
BRANCH  10   2
ATOM      2  O   UNL     1      -2.985 -10.184  14.663  0.00  0.00    -0.388 OA
ATOM     23  H   UNL     1      -3.586  -9.779  15.311  0.00  0.00    +0.210 HD
ENDBRANCH  10   2
BRANCH   8   5
ATOM      5  N   UNL     1      -3.731 -11.892  17.194  0.00  0.00    -0.306 NA
ATOM     22  H   UNL     1      -2.800 -11.482  17.263  0.00  0.00    +0.123 HD
BRANCH   5   9
ATOM      3  O   UNL     1      -9.106 -11.529  20.155  0.00  0.00    -0.276 OA
ATOM      6  N   UNL     1      -7.381 -10.614  18.898  0.00  0.00    -0.302 N 
ATOM      9  C   UNL     1      -4.694 -11.070  17.923  0.00  0.00    +0.057 C 
ATOM     12  C   UNL     1      -5.261 -11.854  19.113  0.00  0.00    +0.037 C 
ATOM     13  C   UNL     1      -5.823 -10.625  16.985  0.00  0.00    +0.037 C 
ATOM     15  C   UNL     1      -6.340 -11.047  19.832  0.00  0.00    +0.109 C 
ATOM     16  C   UNL     1      -6.892  -9.843  17.747  0.00  0.00    +0.109 C 
ATOM     18  C   UNL     1      -8.718 -10.909  19.162  0.00  0.00    +0.212 C 
ATOM     19  C   UNL     1      -9.729 -10.432  18.150  0.00  0.00    +0.109 C 
ENDBRANCH   5   9
ENDBRANCH   8   5
BRANCH  11  17
ATOM     17  C   UNL     1      -2.366 -12.545  12.569  0.00  0.00    +0.138 C 
BRANCH  17   7
ATOM      4  O   UNL     1      -3.061 -10.431  10.703  0.00  0.00    -0.276 OA
ATOM      7  N   UNL     1      -1.628 -11.344  12.298  0.00  0.00    -0.313 N 
ATOM     20  C   UNL     1      -2.040 -10.381  11.383  0.00  0.00    +0.210 C 
ATOM     21  C   UNL     1      -1.094  -9.211  11.311  0.00  0.00    +0.109 C 
ATOM     24  H   UNL     1      -0.760 -11.199  12.805  0.00  0.00    +0.149 HD
ENDBRANCH  17   7
ENDBRANCH  11  17
TORSDOF 5
ENDMDL
MODEL 8
REMARK VINA RESULT:      -5.7      4.396      7.236
REMARK  Name = 75536498
REMARK  7 active torsions:
REMARK  status: ('A' for Active; 'I' for Inactive)
REMARK    1  A    between atoms: O_2  and  C_10
REMARK    2  A    between atoms: N_5  and  C_8
REMARK    3  A    between atoms: N_5  and  C_9
REMARK    4  A    between atoms: N_7  and  C_17
REMARK    5  A    between atoms: C_11  and  C_17
REMARK    6  A    between atoms: C_18  and  C_19
REMARK    7  A    between atoms: C_20  and  C_21
REMARK                            x       y       z     vdW  Elec       q    Type
REMARK                         _______ _______ _______ _____ _____    ______ ____
ROOT
ATOM      1  O   UNL     1      14.650   7.784  18.766  0.00  0.00    -0.371 OA
ATOM      8  C   UNL     1      13.885   7.418  20.985  0.00  0.00    +0.111 C 
ATOM     10  C   UNL     1      12.701   7.362  20.038  0.00  0.00    +0.164 C 
ATOM     11  C   UNL     1      13.397   7.081  18.714  0.00  0.00    +0.165 C 
ATOM     14  C   UNL     1      14.917   8.139  20.134  0.00  0.00    +0.181 C 
ENDROOT
BRANCH  10   2
ATOM      2  O   UNL     1      11.779   6.344  20.376  0.00  0.00    -0.388 OA
ATOM     23  H   UNL     1      11.196   6.679  21.078  0.00  0.00    +0.210 HD
ENDBRANCH  10   2
BRANCH   8   5
ATOM      5  N   UNL     1      13.601   8.105  22.234  0.00  0.00    -0.306 NA
ATOM     22  H   UNL     1      14.433   8.124  22.822  0.00  0.00    +0.123 HD
BRANCH   5   9
ATOM      3  O   UNL     1      12.584  13.763  24.414  0.00  0.00    -0.276 OA
ATOM      6  N   UNL     1      12.144  12.005  22.961  0.00  0.00    -0.302 N 
ATOM      9  C   UNL     1      13.136   9.467  21.984  0.00  0.00    +0.057 C 
ATOM     12  C   UNL     1      14.057  10.475  22.682  0.00  0.00    +0.037 C 
ATOM     13  C   UNL     1      11.692   9.629  22.476  0.00  0.00    +0.037 C 
ATOM     15  C   UNL     1      13.533  11.900  22.512  0.00  0.00    +0.109 C 
ATOM     16  C   UNL     1      11.215  11.072  22.310  0.00  0.00    +0.109 C 
ATOM     18  C   UNL     1      11.790  12.967  23.907  0.00  0.00    +0.212 C 
ATOM     19  C   UNL     1      10.340  13.008  24.320  0.00  0.00    +0.109 C 
ENDBRANCH   5   9
ENDBRANCH   8   5
BRANCH  11  17
ATOM     17  C   UNL     1      12.599   7.542  17.507  0.00  0.00    +0.138 C 
BRANCH  17   7
ATOM      4  O   UNL     1      13.743   8.464  15.001  0.00  0.00    -0.276 OA
ATOM      7  N   UNL     1      12.934   8.890  17.145  0.00  0.00    -0.313 N 
ATOM     20  C   UNL     1      13.480   9.241  15.916  0.00  0.00    +0.210 C 
ATOM     21  C   UNL     1      13.710  10.724  15.788  0.00  0.00    +0.109 C 
ATOM     24  H   UNL     1      12.760   9.619  17.831  0.00  0.00    +0.149 HD
ENDBRANCH  17   7
ENDBRANCH  11  17
TORSDOF 5
ENDMDL
MODEL 9
REMARK VINA RESULT:      -5.7      2.334      8.263
REMARK  Name = 75536498
REMARK  7 active torsions:
REMARK  status: ('A' for Active; 'I' for Inactive)
REMARK    1  A    between atoms: O_2  and  C_10
REMARK    2  A    between atoms: N_5  and  C_8
REMARK    3  A    between atoms: N_5  and  C_9
REMARK    4  A    between atoms: N_7  and  C_17
REMARK    5  A    between atoms: C_11  and  C_17
REMARK    6  A    between atoms: C_18  and  C_19
REMARK    7  A    between atoms: C_20  and  C_21
REMARK                            x       y       z     vdW  Elec       q    Type
REMARK                         _______ _______ _______ _____ _____    ______ ____
ROOT
ATOM      1  O   UNL     1      13.930   8.992  18.204  0.00  0.00    -0.371 OA
ATOM      8  C   UNL     1      15.468   8.143  19.803  0.00  0.00    +0.111 C 
ATOM     10  C   UNL     1      14.094   7.563  20.082  0.00  0.00    +0.164 C 
ATOM     11  C   UNL     1      13.414   7.759  18.734  0.00  0.00    +0.165 C 
ATOM     14  C   UNL     1      15.118   9.341  18.935  0.00  0.00    +0.181 C 
ENDROOT
BRANCH  10   2
ATOM      2  O   UNL     1      14.142   6.199  20.454  0.00  0.00    -0.388 OA
ATOM     23  H   UNL     1      13.920   6.132  21.398  0.00  0.00    +0.210 HD
ENDBRANCH  10   2
BRANCH   8   5
ATOM      5  N   UNL     1      16.201   8.509  21.004  0.00  0.00    -0.306 NA
ATOM     22  H   UNL     1      15.829   8.009  21.810  0.00  0.00    +0.123 HD
BRANCH   5   9
ATOM      3  O   UNL     1      21.072   5.188  22.752  0.00  0.00    -0.276 OA
ATOM      6  N   UNL     1      20.089   7.108  21.888  0.00  0.00    -0.302 N 
ATOM      9  C   UNL     1      17.625   8.217  20.851  0.00  0.00    +0.057 C 
ATOM     12  C   UNL     1      17.862   6.703  20.912  0.00  0.00    +0.037 C 
ATOM     13  C   UNL     1      18.429   8.931  21.945  0.00  0.00    +0.037 C 
ATOM     15  C   UNL     1      19.354   6.382  20.851  0.00  0.00    +0.109 C 
ATOM     16  C   UNL     1      19.911   8.565  21.863  0.00  0.00    +0.109 C 
ATOM     18  C   UNL     1      20.911   6.411  22.773  0.00  0.00    +0.212 C 
ATOM     19  C   UNL     1      21.631   7.230  23.815  0.00  0.00    +0.109 C 
ENDBRANCH   5   9
ENDBRANCH   8   5
BRANCH  11  17
ATOM     17  C   UNL     1      11.900   7.836  18.831  0.00  0.00    +0.138 C 
BRANCH  17   7
ATOM      4  O   UNL     1      10.940   9.632  20.901  0.00  0.00    -0.276 OA
ATOM      7  N   UNL     1      11.444   7.486  20.146  0.00  0.00    -0.313 N 
ATOM     20  C   UNL     1      10.998   8.418  21.077  0.00  0.00    +0.210 C 
ATOM     21  C   UNL     1      10.553   7.779  22.366  0.00  0.00    +0.109 C 
ATOM     24  H   UNL     1      11.451   6.502  20.402  0.00  0.00    +0.149 HD
ENDBRANCH  17   7
ENDBRANCH  11  17
TORSDOF 5
ENDMDL
MODEL 10
REMARK VINA RESULT:      -5.6     13.458     17.169
REMARK  Name = 75536498
REMARK  7 active torsions:
REMARK  status: ('A' for Active; 'I' for Inactive)
REMARK    1  A    between atoms: O_2  and  C_10
REMARK    2  A    between atoms: N_5  and  C_8
REMARK    3  A    between atoms: N_5  and  C_9
REMARK    4  A    between atoms: N_7  and  C_17
REMARK    5  A    between atoms: C_11  and  C_17
REMARK    6  A    between atoms: C_18  and  C_19
REMARK    7  A    between atoms: C_20  and  C_21
REMARK                            x       y       z     vdW  Elec       q    Type
REMARK                         _______ _______ _______ _____ _____    ______ ____
ROOT
ATOM      1  O   UNL     1       8.738   9.350   6.016  0.00  0.00    -0.371 OA
ATOM      8  C   UNL     1       8.376   7.857   4.204  0.00  0.00    +0.111 C 
ATOM     10  C   UNL     1       8.794   7.061   5.427  0.00  0.00    +0.164 C 
ATOM     11  C   UNL     1       8.464   8.041   6.543  0.00  0.00    +0.165 C 
ATOM     14  C   UNL     1       8.838   9.254   4.584  0.00  0.00    +0.181 C 
ENDROOT
BRANCH  10   2
ATOM      2  O   UNL     1       8.077   5.849   5.560  0.00  0.00    -0.388 OA
ATOM     23  H   UNL     1       7.395   5.970   6.242  0.00  0.00    +0.210 HD
ENDBRANCH  10   2
BRANCH   8   5
ATOM      5  N   UNL     1       8.971   7.381   2.966  0.00  0.00    -0.306 NA
ATOM     22  H   UNL     1       9.168   8.165   2.346  0.00  0.00    +0.123 HD
BRANCH   5   9
ATOM      3  O   UNL     1      14.482   5.508   0.984  0.00  0.00    -0.276 OA
ATOM      6  N   UNL     1      12.571   5.274   2.284  0.00  0.00    -0.302 N 
ATOM      9  C   UNL     1      10.200   6.637   3.234  0.00  0.00    +0.057 C 
ATOM     12  C   UNL     1      11.411   7.410   2.697  0.00  0.00    +0.037 C 
ATOM     13  C   UNL     1      10.124   5.246   2.592  0.00  0.00    +0.037 C 
ATOM     15  C   UNL     1      12.697   6.605   2.881  0.00  0.00    +0.109 C 
ATOM     16  C   UNL     1      11.436   4.484   2.777  0.00  0.00    +0.109 C 
ATOM     18  C   UNL     1      13.516   4.838   1.356  0.00  0.00    +0.212 C 
ATOM     19  C   UNL     1      13.315   3.456   0.786  0.00  0.00    +0.109 C 
ENDBRANCH   5   9
ENDBRANCH   8   5
BRANCH  11  17
ATOM     17  C   UNL     1       9.281   7.814   7.803  0.00  0.00    +0.138 C 
BRANCH  17   7
ATOM      4  O   UNL     1      11.129   5.656   8.403  0.00  0.00    -0.276 OA
ATOM      7  N   UNL     1       8.975   6.546   8.400  0.00  0.00    -0.313 N 
ATOM     20  C   UNL     1       9.930   5.566   8.653  0.00  0.00    +0.210 C 
ATOM     21  C   UNL     1       9.344   4.344   9.309  0.00  0.00    +0.109 C 
ATOM     24  H   UNL     1       8.007   6.362   8.647  0.00  0.00    +0.149 HD
ENDBRANCH  17   7
ENDBRANCH  11  17
TORSDOF 5
ENDMDL
