MODEL 1
REMARK VINA RESULT:      -6.2      0.000      0.000
REMARK  Name = 40567551
REMARK  12 active torsions:
REMARK  status: ('A' for Active; 'I' for Inactive)
REMARK    1  A    between atoms: O_1  and  C_10
REMARK    2  A    between atoms: O_2  and  C_11
REMARK    3  A    between atoms: N_6  and  C_9
REMARK    4  A    between atoms: N_7  and  C_22
REMARK    5  A    between atoms: C_14  and  C_21
REMARK    6  A    between atoms: C_15  and  C_16
REMARK    7  A    between atoms: C_15  and  C_18
REMARK    8  A    between atoms: C_15  and  C_19
REMARK    9  A    between atoms: C_15  and  C_20
REMARK   10  A    between atoms: C_16  and  C_17
REMARK   11  A    between atoms: C_22  and  C_23
REMARK   12  A    between atoms: C_22  and  C_24
REMARK                            x       y       z     vdW  Elec       q    Type
REMARK                         _______ _______ _______ _____ _____    ______ ____
ROOT
ATOM      9  C   UNL     1      12.100   9.759  21.366  0.00  0.00    +0.127 C 
ATOM     10  C   UNL     1      11.574   8.532  22.133  0.00  0.00    +0.167 C 
ATOM     11  C   UNL     1      12.219   7.235  21.630  0.00  0.00    +0.149 C 
ATOM     12  C   UNL     1      12.024   7.040  20.117  0.00  0.00    +0.074 C 
ATOM     13  C   UNL     1      12.184   9.540  19.879  0.00  0.00    +0.006 C 
ATOM     14  C   UNL     1      12.139   8.315  19.333  0.00  0.00    +0.015 C 
ENDROOT
BRANCH   9   6
ATOM      3  O   UNL     1      13.034  12.471  21.751  0.00  0.00    -0.276 OA
ATOM      6  N   UNL     1      11.299  10.930  21.620  0.00  0.00    -0.306 N 
ATOM     17  C   UNL     1      11.836  12.195  21.792  0.00  0.00    +0.214 C 
ATOM     25  H   UNL     1      10.294  10.809  21.715  0.00  0.00    +0.149 HD
BRANCH  17  16
ATOM     16  C   UNL     1      10.783  13.259  22.055  0.00  0.00    +0.102 C 
BRANCH  16  15
ATOM     15  C   UNL     1      10.700  13.737  23.524  0.00  0.00    -0.029 C 
ATOM     18  C   UNL     1      10.661  12.543  24.493  0.00  0.00    +0.011 C 
ATOM     19  C   UNL     1      11.962  14.568  23.827  0.00  0.00    +0.011 C 
ATOM     20  C   UNL     1       9.466  14.623  23.760  0.00  0.00    +0.011 C 
ENDBRANCH  16  15
ENDBRANCH  17  16
ENDBRANCH   9   6
BRANCH  14  21
ATOM      4  O   UNL     1      11.627   7.344  17.256  0.00  0.00    -0.271 OA
ATOM      7  N   UNL     1      13.041   9.198  17.320  0.00  0.00    -0.301 N 
ATOM     21  C   UNL     1      12.231   8.222  17.873  0.00  0.00    +0.240 C 
ATOM     28  H   UNL     1      13.494   9.872  17.930  0.00  0.00    +0.150 HD
BRANCH   7  22
ATOM     22  C   UNL     1      13.290   9.314  15.901  0.00  0.00    +0.156 C 
ATOM     23  C   UNL     1      14.454   8.433  15.474  0.00  0.00    +0.038 C 
BRANCH  22  24
ATOM      5  O   UNL     1      13.675  11.216  14.441  0.00  0.00    -0.274 OA
ATOM      8  N   UNL     1      13.643  11.564  16.712  0.00  0.00    -0.328 N 
ATOM     24  C   UNL     1      13.568  10.775  15.583  0.00  0.00    +0.231 C 
ATOM     29  H   UNL     1      13.532  11.188  17.648  0.00  0.00    +0.145 HD
ATOM     30  H   UNL     1      13.812  12.562  16.639  0.00  0.00    +0.145 HD
ENDBRANCH  22  24
ENDBRANCH   7  22
ENDBRANCH  14  21
BRANCH  10   1
ATOM      1  O   UNL     1      10.158   8.435  21.969  0.00  0.00    -0.387 OA
ATOM     26  H   UNL     1       9.834   9.309  21.695  0.00  0.00    +0.210 HD
ENDBRANCH  10   1
BRANCH  11   2
ATOM      2  O   UNL     1      13.608   7.221  21.951  0.00  0.00    -0.389 OA
ATOM     27  H   UNL     1      13.719   6.685  22.755  0.00  0.00    +0.210 HD
ENDBRANCH  11   2
TORSDOF 8
ENDMDL
MODEL 2
REMARK VINA RESULT:      -5.9      1.605      2.219
REMARK  Name = 40567551
REMARK  12 active torsions:
REMARK  status: ('A' for Active; 'I' for Inactive)
REMARK    1  A    between atoms: O_1  and  C_10
REMARK    2  A    between atoms: O_2  and  C_11
REMARK    3  A    between atoms: N_6  and  C_9
REMARK    4  A    between atoms: N_7  and  C_22
REMARK    5  A    between atoms: C_14  and  C_21
REMARK    6  A    between atoms: C_15  and  C_16
REMARK    7  A    between atoms: C_15  and  C_18
REMARK    8  A    between atoms: C_15  and  C_19
REMARK    9  A    between atoms: C_15  and  C_20
REMARK   10  A    between atoms: C_16  and  C_17
REMARK   11  A    between atoms: C_22  and  C_23
REMARK   12  A    between atoms: C_22  and  C_24
REMARK                            x       y       z     vdW  Elec       q    Type
REMARK                         _______ _______ _______ _____ _____    ______ ____
ROOT
ATOM      9  C   UNL     1      12.484   9.354  20.206  0.00  0.00    +0.127 C 
ATOM     10  C   UNL     1      11.784   7.985  20.293  0.00  0.00    +0.167 C 
ATOM     11  C   UNL     1      12.436   6.959  19.358  0.00  0.00    +0.149 C 
ATOM     12  C   UNL     1      12.474   7.447  17.899  0.00  0.00    +0.074 C 
ATOM     13  C   UNL     1      12.790   9.778  18.795  0.00  0.00    +0.006 C 
ATOM     14  C   UNL     1      12.773   8.913  17.769  0.00  0.00    +0.015 C 
ENDROOT
BRANCH   9   6
ATOM      3  O   UNL     1      13.395  11.246  22.198  0.00  0.00    -0.276 OA
ATOM      6  N   UNL     1      11.710  10.389  20.845  0.00  0.00    -0.306 N 
ATOM     17  C   UNL     1      12.234  11.253  21.793  0.00  0.00    +0.214 C 
ATOM     25  H   UNL     1      10.723  10.458  20.614  0.00  0.00    +0.149 HD
BRANCH  17  16
ATOM     16  C   UNL     1      11.213  12.248  22.321  0.00  0.00    +0.102 C 
BRANCH  16  15
ATOM     15  C   UNL     1      11.380  13.690  21.785  0.00  0.00    -0.029 C 
ATOM     18  C   UNL     1      11.937  13.687  20.351  0.00  0.00    +0.011 C 
ATOM     19  C   UNL     1       9.991  14.355  21.766  0.00  0.00    +0.011 C 
ATOM     20  C   UNL     1      12.306  14.523  22.687  0.00  0.00    +0.011 C 
ENDBRANCH  16  15
ENDBRANCH  17  16
ENDBRANCH   9   6
BRANCH  14  21
ATOM      4  O   UNL     1      12.788   8.809  15.422  0.00  0.00    -0.271 OA
ATOM      7  N   UNL     1      13.735  10.661  16.478  0.00  0.00    -0.301 N 
ATOM     21  C   UNL     1      13.090   9.437  16.437  0.00  0.00    +0.240 C 
ATOM     28  H   UNL     1      13.937  11.086  17.378  0.00  0.00    +0.150 HD
BRANCH   7  22
ATOM     22  C   UNL     1      14.151  11.380  15.295  0.00  0.00    +0.156 C 
ATOM     23  C   UNL     1      15.490  10.868  14.785  0.00  0.00    +0.038 C 
BRANCH  22  24
ATOM      5  O   UNL     1      14.624  13.721  14.858  0.00  0.00    -0.274 OA
ATOM      8  N   UNL     1      13.768  13.139  16.909  0.00  0.00    -0.328 N 
ATOM     24  C   UNL     1      14.229  12.859  15.640  0.00  0.00    +0.231 C 
ATOM     29  H   UNL     1      13.427  12.418  17.536  0.00  0.00    +0.145 HD
ATOM     30  H   UNL     1      13.755  14.091  17.259  0.00  0.00    +0.145 HD
ENDBRANCH  22  24
ENDBRANCH   7  22
ENDBRANCH  14  21
BRANCH  10   1
ATOM      1  O   UNL     1      10.408   8.126  19.932  0.00  0.00    -0.387 OA
ATOM     26  H   UNL     1       9.878   7.940  20.724  0.00  0.00    +0.210 HD
ENDBRANCH  10   1
BRANCH  11   2
ATOM      2  O   UNL     1      13.755   6.655  19.806  0.00  0.00    -0.389 OA
ATOM     27  H   UNL     1      14.334   6.631  19.025  0.00  0.00    +0.210 HD
ENDBRANCH  11   2
TORSDOF 8
ENDMDL
MODEL 3
REMARK VINA RESULT:      -5.9      8.033     10.618
REMARK  Name = 40567551
REMARK  12 active torsions:
REMARK  status: ('A' for Active; 'I' for Inactive)
REMARK    1  A    between atoms: O_1  and  C_10
REMARK    2  A    between atoms: O_2  and  C_11
REMARK    3  A    between atoms: N_6  and  C_9
REMARK    4  A    between atoms: N_7  and  C_22
REMARK    5  A    between atoms: C_14  and  C_21
REMARK    6  A    between atoms: C_15  and  C_16
REMARK    7  A    between atoms: C_15  and  C_18
REMARK    8  A    between atoms: C_15  and  C_19
REMARK    9  A    between atoms: C_15  and  C_20
REMARK   10  A    between atoms: C_16  and  C_17
REMARK   11  A    between atoms: C_22  and  C_23
REMARK   12  A    between atoms: C_22  and  C_24
REMARK                            x       y       z     vdW  Elec       q    Type
REMARK                         _______ _______ _______ _____ _____    ______ ____
ROOT
ATOM      9  C   UNL     1      20.158   5.795  21.485  0.00  0.00    +0.127 C 
ATOM     10  C   UNL     1      20.728   7.226  21.513  0.00  0.00    +0.167 C 
ATOM     11  C   UNL     1      19.627   8.265  21.759  0.00  0.00    +0.149 C 
ATOM     12  C   UNL     1      18.494   8.164  20.725  0.00  0.00    +0.074 C 
ATOM     13  C   UNL     1      18.883   5.678  20.693  0.00  0.00    +0.006 C 
ATOM     14  C   UNL     1      18.152   6.750  20.351  0.00  0.00    +0.015 C 
ENDROOT
BRANCH   9   6
ATOM      3  O   UNL     1      21.899   4.055  23.007  0.00  0.00    -0.276 OA
ATOM      6  N   UNL     1      21.116   4.850  20.968  0.00  0.00    -0.306 N 
ATOM     17  C   UNL     1      21.911   4.055  21.778  0.00  0.00    +0.214 C 
ATOM     25  H   UNL     1      21.237   4.797  19.960  0.00  0.00    +0.149 HD
BRANCH  17  16
ATOM     16  C   UNL     1      22.843   3.149  20.991  0.00  0.00    +0.102 C 
BRANCH  16  15
ATOM     15  C   UNL     1      24.316   3.620  20.946  0.00  0.00    -0.029 C 
ATOM     18  C   UNL     1      25.122   3.032  22.117  0.00  0.00    +0.011 C 
ATOM     19  C   UNL     1      24.938   3.119  19.628  0.00  0.00    +0.011 C 
ATOM     20  C   UNL     1      24.420   5.154  20.979  0.00  0.00    +0.011 C 
ENDBRANCH  16  15
ENDBRANCH  17  16
ENDBRANCH   9   6
BRANCH  14  21
ATOM      4  O   UNL     1      16.826   5.541  18.835  0.00  0.00    -0.271 OA
ATOM      7  N   UNL     1      15.962   7.483  19.795  0.00  0.00    -0.301 N 
ATOM     21  C   UNL     1      16.927   6.515  19.581  0.00  0.00    +0.240 C 
ATOM     28  H   UNL     1      16.158   8.248  20.433  0.00  0.00    +0.150 HD
BRANCH   7  22
ATOM     22  C   UNL     1      14.669   7.472  19.149  0.00  0.00    +0.156 C 
ATOM     23  C   UNL     1      14.322   8.844  18.593  0.00  0.00    +0.038 C 
BRANCH  22  24
ATOM      5  O   UNL     1      13.748   7.182  21.377  0.00  0.00    -0.274 OA
ATOM      8  N   UNL     1      12.525   6.442  19.579  0.00  0.00    -0.328 N 
ATOM     24  C   UNL     1      13.632   7.018  20.165  0.00  0.00    +0.231 C 
ATOM     29  H   UNL     1      12.434   6.331  18.574  0.00  0.00    +0.145 HD
ATOM     30  H   UNL     1      11.752   6.105  20.145  0.00  0.00    +0.145 HD
ENDBRANCH  22  24
ENDBRANCH   7  22
ENDBRANCH  14  21
BRANCH  10   1
ATOM      1  O   UNL     1      21.361   7.514  20.265  0.00  0.00    -0.387 OA
ATOM     26  H   UNL     1      22.294   7.713  20.449  0.00  0.00    +0.210 HD
ENDBRANCH  10   1
BRANCH  11   2
ATOM      2  O   UNL     1      19.102   8.121  23.077  0.00  0.00    -0.389 OA
ATOM     27  H   UNL     1      18.162   8.369  23.048  0.00  0.00    +0.210 HD
ENDBRANCH  11   2
TORSDOF 8
ENDMDL
MODEL 4
REMARK VINA RESULT:      -5.8     26.695     27.887
REMARK  Name = 40567551
REMARK  12 active torsions:
REMARK  status: ('A' for Active; 'I' for Inactive)
REMARK    1  A    between atoms: O_1  and  C_10
REMARK    2  A    between atoms: O_2  and  C_11
REMARK    3  A    between atoms: N_6  and  C_9
REMARK    4  A    between atoms: N_7  and  C_22
REMARK    5  A    between atoms: C_14  and  C_21
REMARK    6  A    between atoms: C_15  and  C_16
REMARK    7  A    between atoms: C_15  and  C_18
REMARK    8  A    between atoms: C_15  and  C_19
REMARK    9  A    between atoms: C_15  and  C_20
REMARK   10  A    between atoms: C_16  and  C_17
REMARK   11  A    between atoms: C_22  and  C_23
REMARK   12  A    between atoms: C_22  and  C_24
REMARK                            x       y       z     vdW  Elec       q    Type
REMARK                         _______ _______ _______ _____ _____    ______ ____
ROOT
ATOM      9  C   UNL     1      -3.078 -11.772  14.290  0.00  0.00    +0.127 C 
ATOM     10  C   UNL     1      -3.411 -13.209  13.846  0.00  0.00    +0.167 C 
ATOM     11  C   UNL     1      -2.698 -13.573  12.538  0.00  0.00    +0.149 C 
ATOM     12  C   UNL     1      -3.019 -12.580  11.408  0.00  0.00    +0.074 C 
ATOM     13  C   UNL     1      -3.118 -10.777  13.161  0.00  0.00    +0.006 C 
ATOM     14  C   UNL     1      -3.100 -11.154  11.874  0.00  0.00    +0.015 C 
ENDROOT
BRANCH   9   6
ATOM      3  O   UNL     1      -2.337 -10.933  16.958  0.00  0.00    -0.276 OA
ATOM      6  N   UNL     1      -3.959 -11.322  15.339  0.00  0.00    -0.306 N 
ATOM     17  C   UNL     1      -3.511 -10.938  16.593  0.00  0.00    +0.214 C 
ATOM     25  H   UNL     1      -4.959 -11.326  15.157  0.00  0.00    +0.149 HD
BRANCH  17  16
ATOM     16  C   UNL     1      -4.636 -10.513  17.522  0.00  0.00    +0.102 C 
BRANCH  16  15
ATOM     15  C   UNL     1      -5.031 -11.567  18.583  0.00  0.00    -0.029 C 
ATOM     18  C   UNL     1      -6.021 -10.980  19.605  0.00  0.00    +0.011 C 
ATOM     19  C   UNL     1      -5.720 -12.739  17.857  0.00  0.00    +0.011 C 
ATOM     20  C   UNL     1      -3.800 -12.111  19.325  0.00  0.00    +0.011 C 
ENDBRANCH  16  15
ENDBRANCH  17  16
ENDBRANCH   9   6
BRANCH  14  21
ATOM      4  O   UNL     1      -2.172  -9.361  10.673  0.00  0.00    -0.271 OA
ATOM      7  N   UNL     1      -4.346 -10.046  10.181  0.00  0.00    -0.301 N 
ATOM     21  C   UNL     1      -3.141 -10.097  10.859  0.00  0.00    +0.240 C 
ATOM     28  H   UNL     1      -5.080 -10.705  10.423  0.00  0.00    +0.150 HD
BRANCH   7  22
ATOM     22  C   UNL     1      -4.630  -9.089   9.136  0.00  0.00    +0.156 C 
ATOM     23  C   UNL     1      -5.688  -8.090   9.578  0.00  0.00    +0.038 C 
BRANCH  22  24
ATOM      5  O   UNL     1      -4.675 -10.973   7.604  0.00  0.00    -0.274 OA
ATOM      8  N   UNL     1      -6.038  -9.176   7.172  0.00  0.00    -0.328 N 
ATOM     24  C   UNL     1      -5.084  -9.853   7.901  0.00  0.00    +0.231 C 
ATOM     29  H   UNL     1      -6.381  -8.259   7.441  0.00  0.00    +0.145 HD
ATOM     30  H   UNL     1      -6.434  -9.581   6.330  0.00  0.00    +0.145 HD
ENDBRANCH  22  24
ENDBRANCH   7  22
ENDBRANCH  14  21
BRANCH  10   1
ATOM      1  O   UNL     1      -4.821 -13.338  13.652  0.00  0.00    -0.387 OA
ATOM     26  H   UNL     1      -4.959 -13.832  12.827  0.00  0.00    +0.210 HD
ENDBRANCH  10   1
BRANCH  11   2
ATOM      2  O   UNL     1      -1.289 -13.638  12.748  0.00  0.00    -0.389 OA
ATOM     27  H   UNL     1      -1.091 -14.500  13.152  0.00  0.00    +0.210 HD
ENDBRANCH  11   2
TORSDOF 8
ENDMDL
MODEL 5
REMARK VINA RESULT:      -5.7     26.845     28.727
REMARK  Name = 40567551
REMARK  12 active torsions:
REMARK  status: ('A' for Active; 'I' for Inactive)
REMARK    1  A    between atoms: O_1  and  C_10
REMARK    2  A    between atoms: O_2  and  C_11
REMARK    3  A    between atoms: N_6  and  C_9
REMARK    4  A    between atoms: N_7  and  C_22
REMARK    5  A    between atoms: C_14  and  C_21
REMARK    6  A    between atoms: C_15  and  C_16
REMARK    7  A    between atoms: C_15  and  C_18
REMARK    8  A    between atoms: C_15  and  C_19
REMARK    9  A    between atoms: C_15  and  C_20
REMARK   10  A    between atoms: C_16  and  C_17
REMARK   11  A    between atoms: C_22  and  C_23
REMARK   12  A    between atoms: C_22  and  C_24
REMARK                            x       y       z     vdW  Elec       q    Type
REMARK                         _______ _______ _______ _____ _____    ______ ____
ROOT
ATOM      9  C   UNL     1      -5.074 -11.386  15.683  0.00  0.00    +0.127 C 
ATOM     10  C   UNL     1      -3.803 -11.199  16.533  0.00  0.00    +0.167 C 
ATOM     11  C   UNL     1      -4.019 -11.663  17.978  0.00  0.00    +0.149 C 
ATOM     12  C   UNL     1      -5.212 -10.954  18.642  0.00  0.00    +0.074 C 
ATOM     13  C   UNL     1      -6.330 -10.947  16.387  0.00  0.00    +0.006 C 
ATOM     14  C   UNL     1      -6.375 -10.749  17.713  0.00  0.00    +0.015 C 
ENDROOT
BRANCH   9   6
ATOM      3  O   UNL     1      -5.003 -12.557  13.037  0.00  0.00    -0.276 OA
ATOM      6  N   UNL     1      -4.980 -10.691  14.423  0.00  0.00    -0.306 N 
ATOM     17  C   UNL     1      -4.952 -11.339  13.199  0.00  0.00    +0.214 C 
ATOM     25  H   UNL     1      -4.890  -9.679  14.442  0.00  0.00    +0.149 HD
BRANCH  17  16
ATOM     16  C   UNL     1      -4.841 -10.384  12.022  0.00  0.00    +0.102 C 
BRANCH  16  15
ATOM     15  C   UNL     1      -3.549 -10.539  11.184  0.00  0.00    -0.029 C 
ATOM     18  C   UNL     1      -3.608 -11.802  10.306  0.00  0.00    +0.011 C 
ATOM     19  C   UNL     1      -3.429  -9.311  10.261  0.00  0.00    +0.011 C 
ATOM     20  C   UNL     1      -2.300 -10.601  12.077  0.00  0.00    +0.011 C 
ENDBRANCH  16  15
ENDBRANCH  17  16
ENDBRANCH   9   6
BRANCH  14  21
ATOM      4  O   UNL     1      -7.952 -10.618  19.448  0.00  0.00    -0.271 OA
ATOM      7  N   UNL     1      -8.428  -9.593  17.408  0.00  0.00    -0.301 N 
ATOM     21  C   UNL     1      -7.653 -10.324  18.291  0.00  0.00    +0.240 C 
ATOM     28  H   UNL     1      -8.078  -9.414  16.471  0.00  0.00    +0.150 HD
BRANCH   7  22
ATOM     22  C   UNL     1      -9.731  -9.064  17.744  0.00  0.00    +0.156 C 
ATOM     23  C   UNL     1     -10.806 -10.132  17.617  0.00  0.00    +0.038 C 
BRANCH  22  24
ATOM      5  O   UNL     1     -10.828  -7.000  17.084  0.00  0.00    -0.274 OA
ATOM      8  N   UNL     1      -9.246  -7.899  15.682  0.00  0.00    -0.328 N 
ATOM     24  C   UNL     1     -10.019  -7.888  16.823  0.00  0.00    +0.231 C 
ATOM     29  H   UNL     1      -8.568  -8.629  15.489  0.00  0.00    +0.145 HD
ATOM     30  H   UNL     1      -9.332  -7.163  14.988  0.00  0.00    +0.145 HD
ENDBRANCH  22  24
ENDBRANCH   7  22
ENDBRANCH  14  21
BRANCH  10   1
ATOM      1  O   UNL     1      -3.432  -9.819  16.544  0.00  0.00    -0.387 OA
ATOM     26  H   UNL     1      -4.028  -9.351  15.936  0.00  0.00    +0.210 HD
ENDBRANCH  10   1
BRANCH  11   2
ATOM      2  O   UNL     1      -4.206 -13.076  18.017  0.00  0.00    -0.389 OA
ATOM     27  H   UNL     1      -5.147 -13.244  18.196  0.00  0.00    +0.210 HD
ENDBRANCH  11   2
TORSDOF 8
ENDMDL
MODEL 6
REMARK VINA RESULT:      -5.7     15.060     18.182
REMARK  Name = 40567551
REMARK  12 active torsions:
REMARK  status: ('A' for Active; 'I' for Inactive)
REMARK    1  A    between atoms: O_1  and  C_10
REMARK    2  A    between atoms: O_2  and  C_11
REMARK    3  A    between atoms: N_6  and  C_9
REMARK    4  A    between atoms: N_7  and  C_22
REMARK    5  A    between atoms: C_14  and  C_21
REMARK    6  A    between atoms: C_15  and  C_16
REMARK    7  A    between atoms: C_15  and  C_18
REMARK    8  A    between atoms: C_15  and  C_19
REMARK    9  A    between atoms: C_15  and  C_20
REMARK   10  A    between atoms: C_16  and  C_17
REMARK   11  A    between atoms: C_22  and  C_23
REMARK   12  A    between atoms: C_22  and  C_24
REMARK                            x       y       z     vdW  Elec       q    Type
REMARK                         _______ _______ _______ _____ _____    ______ ____
ROOT
ATOM      9  C   UNL     1      14.657   5.624   1.560  0.00  0.00    +0.127 C 
ATOM     10  C   UNL     1      15.164   4.226   1.159  0.00  0.00    +0.167 C 
ATOM     11  C   UNL     1      14.075   3.417   0.443  0.00  0.00    +0.149 C 
ATOM     12  C   UNL     1      12.794   3.297   1.286  0.00  0.00    +0.074 C 
ATOM     13  C   UNL     1      13.277   5.607   2.161  0.00  0.00    +0.006 C 
ATOM     14  C   UNL     1      12.456   4.552   2.038  0.00  0.00    +0.015 C 
ENDROOT
BRANCH   9   6
ATOM      3  O   UNL     1      15.060   8.469   1.902  0.00  0.00    -0.276 OA
ATOM      6  N   UNL     1      15.557   6.274   2.480  0.00  0.00    -0.306 N 
ATOM     17  C   UNL     1      15.684   7.650   2.574  0.00  0.00    +0.214 C 
ATOM     25  H   UNL     1      16.154   5.687   3.057  0.00  0.00    +0.149 HD
BRANCH  17  16
ATOM     16  C   UNL     1      16.704   8.084   3.613  0.00  0.00    +0.102 C 
BRANCH  16  15
ATOM     15  C   UNL     1      16.096   8.634   4.925  0.00  0.00    -0.029 C 
ATOM     18  C   UNL     1      15.002   7.696   5.464  0.00  0.00    +0.011 C 
ATOM     19  C   UNL     1      17.222   8.719   5.974  0.00  0.00    +0.011 C 
ATOM     20  C   UNL     1      15.508  10.040   4.729  0.00  0.00    +0.011 C 
ENDBRANCH  16  15
ENDBRANCH  17  16
ENDBRANCH   9   6
BRANCH  14  21
ATOM      4  O   UNL     1      10.129   4.235   2.083  0.00  0.00    -0.271 OA
ATOM      7  N   UNL     1      11.171   5.230   3.918  0.00  0.00    -0.301 N 
ATOM     21  C   UNL     1      11.134   4.647   2.663  0.00  0.00    +0.240 C 
ATOM     28  H   UNL     1      12.062   5.538   4.296  0.00  0.00    +0.150 HD
BRANCH   7  22
ATOM     22  C   UNL     1       9.995   5.436   4.733  0.00  0.00    +0.156 C 
ATOM     23  C   UNL     1       9.248   6.691   4.312  0.00  0.00    +0.038 C 
BRANCH  22  24
ATOM      5  O   UNL     1       9.739   5.161   7.132  0.00  0.00    -0.274 OA
ATOM      8  N   UNL     1      11.714   6.017   6.331  0.00  0.00    -0.328 N 
ATOM     24  C   UNL     1      10.434   5.525   6.187  0.00  0.00    +0.231 C 
ATOM     29  H   UNL     1      12.284   6.296   5.539  0.00  0.00    +0.145 HD
ATOM     30  H   UNL     1      12.133   6.117   7.250  0.00  0.00    +0.145 HD
ENDBRANCH  22  24
ENDBRANCH   7  22
ENDBRANCH  14  21
BRANCH  10   1
ATOM      1  O   UNL     1      15.575   3.511   2.326  0.00  0.00    -0.387 OA
ATOM     26  H   UNL     1      15.974   2.676   2.032  0.00  0.00    +0.210 HD
ENDBRANCH  10   1
BRANCH  11   2
ATOM      2  O   UNL     1      13.777   4.007  -0.821  0.00  0.00    -0.389 OA
ATOM     27  H   UNL     1      13.381   3.317  -1.381  0.00  0.00    +0.210 HD
ENDBRANCH  11   2
TORSDOF 8
ENDMDL
MODEL 7
REMARK VINA RESULT:      -5.7     29.185     31.663
REMARK  Name = 40567551
REMARK  12 active torsions:
REMARK  status: ('A' for Active; 'I' for Inactive)
REMARK    1  A    between atoms: O_1  and  C_10
REMARK    2  A    between atoms: O_2  and  C_11
REMARK    3  A    between atoms: N_6  and  C_9
REMARK    4  A    between atoms: N_7  and  C_22
REMARK    5  A    between atoms: C_14  and  C_21
REMARK    6  A    between atoms: C_15  and  C_16
REMARK    7  A    between atoms: C_15  and  C_18
REMARK    8  A    between atoms: C_15  and  C_19
REMARK    9  A    between atoms: C_15  and  C_20
REMARK   10  A    between atoms: C_16  and  C_17
REMARK   11  A    between atoms: C_22  and  C_23
REMARK   12  A    between atoms: C_22  and  C_24
REMARK                            x       y       z     vdW  Elec       q    Type
REMARK                         _______ _______ _______ _____ _____    ______ ____
ROOT
ATOM      9  C   UNL     1      -7.315  -6.245  40.786  0.00  0.00    +0.127 C 
ATOM     10  C   UNL     1      -7.873  -7.442  39.992  0.00  0.00    +0.167 C 
ATOM     11  C   UNL     1      -7.140  -8.742  40.345  0.00  0.00    +0.149 C 
ATOM     12  C   UNL     1      -5.621  -8.626  40.135  0.00  0.00    +0.074 C 
ATOM     13  C   UNL     1      -5.811  -6.218  40.842  0.00  0.00    +0.006 C 
ATOM     14  C   UNL     1      -5.064  -7.290  40.539  0.00  0.00    +0.015 C 
ENDROOT
BRANCH   9   6
ATOM      3  O   UNL     1      -8.804  -4.198  42.189  0.00  0.00    -0.276 OA
ATOM      6  N   UNL     1      -7.784  -4.989  40.256  0.00  0.00    -0.306 N 
ATOM     17  C   UNL     1      -8.493  -4.066  41.007  0.00  0.00    +0.214 C 
ATOM     25  H   UNL     1      -7.618  -4.794  39.272  0.00  0.00    +0.149 HD
BRANCH  17  16
ATOM     16  C   UNL     1      -8.880  -2.827  40.217  0.00  0.00    +0.102 C 
BRANCH  16  15
ATOM     15  C   UNL     1     -10.371  -2.762  39.805  0.00  0.00    -0.029 C 
ATOM     18  C   UNL     1     -11.247  -2.275  40.973  0.00  0.00    +0.011 C 
ATOM     19  C   UNL     1     -10.502  -1.755  38.647  0.00  0.00    +0.011 C 
ATOM     20  C   UNL     1     -10.883  -4.128  39.322  0.00  0.00    +0.011 C 
ENDBRANCH  16  15
ENDBRANCH  17  16
ENDBRANCH   9   6
BRANCH  14  21
ATOM      4  O   UNL     1      -2.953  -7.839  41.411  0.00  0.00    -0.271 OA
ATOM      7  N   UNL     1      -3.104  -6.188  39.771  0.00  0.00    -0.301 N 
ATOM     21  C   UNL     1      -3.608  -7.148  40.630  0.00  0.00    +0.240 C 
ATOM     28  H   UNL     1      -3.743  -5.674  39.172  0.00  0.00    +0.150 HD
BRANCH   7  22
ATOM     22  C   UNL     1      -1.699  -5.863  39.678  0.00  0.00    +0.156 C 
ATOM     23  C   UNL     1      -1.401  -4.523  40.332  0.00  0.00    +0.038 C 
BRANCH  22  24
ATOM      5  O   UNL     1      -0.334  -6.445  37.756  0.00  0.00    -0.274 OA
ATOM      8  N   UNL     1      -2.192  -5.137  37.425  0.00  0.00    -0.328 N 
ATOM     24  C   UNL     1      -1.309  -5.851  38.207  0.00  0.00    +0.231 C 
ATOM     29  H   UNL     1      -3.005  -4.667  37.810  0.00  0.00    +0.145 HD
ATOM     30  H   UNL     1      -2.054  -5.059  36.423  0.00  0.00    +0.145 HD
ENDBRANCH  22  24
ENDBRANCH   7  22
ENDBRANCH  14  21
BRANCH  10   1
ATOM      1  O   UNL     1      -7.727  -7.198  38.591  0.00  0.00    -0.387 OA
ATOM     26  H   UNL     1      -7.308  -7.982  38.200  0.00  0.00    +0.210 HD
ENDBRANCH  10   1
BRANCH  11   2
ATOM      2  O   UNL     1      -7.422  -9.113  41.693  0.00  0.00    -0.389 OA
ATOM     27  H   UNL     1      -7.834  -9.994  41.675  0.00  0.00    +0.210 HD
ENDBRANCH  11   2
TORSDOF 8
ENDMDL
MODEL 8
REMARK VINA RESULT:      -5.6     12.491     17.208
REMARK  Name = 40567551
REMARK  12 active torsions:
REMARK  status: ('A' for Active; 'I' for Inactive)
REMARK    1  A    between atoms: O_1  and  C_10
REMARK    2  A    between atoms: O_2  and  C_11
REMARK    3  A    between atoms: N_6  and  C_9
REMARK    4  A    between atoms: N_7  and  C_22
REMARK    5  A    between atoms: C_14  and  C_21
REMARK    6  A    between atoms: C_15  and  C_16
REMARK    7  A    between atoms: C_15  and  C_18
REMARK    8  A    between atoms: C_15  and  C_19
REMARK    9  A    between atoms: C_15  and  C_20
REMARK   10  A    between atoms: C_16  and  C_17
REMARK   11  A    between atoms: C_22  and  C_23
REMARK   12  A    between atoms: C_22  and  C_24
REMARK                            x       y       z     vdW  Elec       q    Type
REMARK                         _______ _______ _______ _____ _____    ______ ____
ROOT
ATOM      9  C   UNL     1      10.544   5.670   4.223  0.00  0.00    +0.127 C 
ATOM     10  C   UNL     1       9.464   4.922   5.026  0.00  0.00    +0.167 C 
ATOM     11  C   UNL     1       8.681   5.874   5.939  0.00  0.00    +0.149 C 
ATOM     12  C   UNL     1       9.604   6.655   6.889  0.00  0.00    +0.074 C 
ATOM     13  C   UNL     1      11.323   6.658   5.050  0.00  0.00    +0.006 C 
ATOM     14  C   UNL     1      10.893   7.084   6.248  0.00  0.00    +0.015 C 
ENDROOT
BRANCH   9   6
ATOM      3  O   UNL     1      10.309   4.467   1.601  0.00  0.00    -0.276 OA
ATOM      6  N   UNL     1      11.468   4.759   3.595  0.00  0.00    -0.306 N 
ATOM     17  C   UNL     1      11.271   4.231   2.329  0.00  0.00    +0.214 C 
ATOM     25  H   UNL     1      12.281   4.462   4.127  0.00  0.00    +0.149 HD
BRANCH  17  16
ATOM     16  C   UNL     1      12.383   3.290   1.897  0.00  0.00    +0.102 C 
BRANCH  16  15
ATOM     15  C   UNL     1      13.479   3.943   1.022  0.00  0.00    -0.029 C 
ATOM     18  C   UNL     1      13.372   5.478   1.055  0.00  0.00    +0.011 C 
ATOM     19  C   UNL     1      14.851   3.540   1.596  0.00  0.00    +0.011 C 
ATOM     20  C   UNL     1      13.401   3.460  -0.435  0.00  0.00    +0.011 C 
ENDBRANCH  16  15
ENDBRANCH  17  16
ENDBRANCH   9   6
BRANCH  14  21
ATOM      4  O   UNL     1      12.936   7.843   7.124  0.00  0.00    -0.271 OA
ATOM      7  N   UNL     1      11.028   9.153   7.407  0.00  0.00    -0.301 N 
ATOM     21  C   UNL     1      11.733   8.048   6.964  0.00  0.00    +0.240 C 
ATOM     28  H   UNL     1      10.031   9.214   7.219  0.00  0.00    +0.150 HD
BRANCH   7  22
ATOM     22  C   UNL     1      11.634  10.242   8.139  0.00  0.00    +0.156 C 
ATOM     23  C   UNL     1      10.579  11.102   8.817  0.00  0.00    +0.038 C 
BRANCH  22  24
ATOM      5  O   UNL     1      11.982  11.810   6.318  0.00  0.00    -0.274 OA
ATOM      8  N   UNL     1      13.822  10.922   7.368  0.00  0.00    -0.328 N 
ATOM     24  C   UNL     1      12.466  11.065   7.167  0.00  0.00    +0.231 C 
ATOM     29  H   UNL     1      14.207  10.318   8.087  0.00  0.00    +0.145 HD
ATOM     30  H   UNL     1      14.490  11.427   6.793  0.00  0.00    +0.145 HD
ENDBRANCH  22  24
ENDBRANCH   7  22
ENDBRANCH  14  21
BRANCH  10   1
ATOM      1  O   UNL     1      10.077   3.913   5.831  0.00  0.00    -0.387 OA
ATOM     26  H   UNL     1       9.644   3.069   5.622  0.00  0.00    +0.210 HD
ENDBRANCH  10   1
BRANCH  11   2
ATOM      2  O   UNL     1       7.906   6.778   5.155  0.00  0.00    -0.389 OA
ATOM     27  H   UNL     1       8.335   7.650   5.200  0.00  0.00    +0.210 HD
ENDBRANCH  11   2
TORSDOF 8
ENDMDL
MODEL 9
REMARK VINA RESULT:      -5.6     26.106     27.950
REMARK  Name = 40567551
REMARK  12 active torsions:
REMARK  status: ('A' for Active; 'I' for Inactive)
REMARK    1  A    between atoms: O_1  and  C_10
REMARK    2  A    between atoms: O_2  and  C_11
REMARK    3  A    between atoms: N_6  and  C_9
REMARK    4  A    between atoms: N_7  and  C_22
REMARK    5  A    between atoms: C_14  and  C_21
REMARK    6  A    between atoms: C_15  and  C_16
REMARK    7  A    between atoms: C_15  and  C_18
REMARK    8  A    between atoms: C_15  and  C_19
REMARK    9  A    between atoms: C_15  and  C_20
REMARK   10  A    between atoms: C_16  and  C_17
REMARK   11  A    between atoms: C_22  and  C_23
REMARK   12  A    between atoms: C_22  and  C_24
REMARK                            x       y       z     vdW  Elec       q    Type
REMARK                         _______ _______ _______ _____ _____    ______ ____
ROOT
ATOM      9  C   UNL     1      19.372  -4.354  -0.919  0.00  0.00    +0.127 C 
ATOM     10  C   UNL     1      19.800  -3.193  -1.837  0.00  0.00    +0.167 C 
ATOM     11  C   UNL     1      18.605  -2.611  -2.602  0.00  0.00    +0.149 C 
ATOM     12  C   UNL     1      17.858  -3.684  -3.413  0.00  0.00    +0.074 C 
ATOM     13  C   UNL     1      18.418  -5.314  -1.579  0.00  0.00    +0.006 C 
ATOM     14  C   UNL     1      17.753  -5.003  -2.702  0.00  0.00    +0.015 C 
ENDROOT
BRANCH   9   6
ATOM      3  O   UNL     1      20.273  -4.564   1.823  0.00  0.00    -0.276 OA
ATOM      6  N   UNL     1      20.509  -5.092  -0.428  0.00  0.00    -0.306 N 
ATOM     17  C   UNL     1      20.866  -5.134   0.909  0.00  0.00    +0.214 C 
ATOM     25  H   UNL     1      21.097  -5.569  -1.107  0.00  0.00    +0.149 HD
BRANCH  17  16
ATOM     16  C   UNL     1      22.107  -5.973   1.168  0.00  0.00    +0.102 C 
BRANCH  16  15
ATOM     15  C   UNL     1      21.861  -7.250   2.007  0.00  0.00    -0.029 C 
ATOM     18  C   UNL     1      22.093  -6.981   3.504  0.00  0.00    +0.011 C 
ATOM     19  C   UNL     1      20.393  -7.674   1.811  0.00  0.00    +0.011 C 
ATOM     20  C   UNL     1      22.766  -8.406   1.552  0.00  0.00    +0.011 C 
ENDBRANCH  16  15
ENDBRANCH  17  16
ENDBRANCH   9   6
BRANCH  14  21
ATOM      4  O   UNL     1      17.153  -7.208  -3.244  0.00  0.00    -0.271 OA
ATOM      7  N   UNL     1      15.680  -5.476  -3.761  0.00  0.00    -0.301 N 
ATOM     21  C   UNL     1      16.849  -6.015  -3.255  0.00  0.00    +0.240 C 
ATOM     28  H   UNL     1      15.538  -4.470  -3.720  0.00  0.00    +0.150 HD
BRANCH   7  22
ATOM     22  C   UNL     1      14.632  -6.270  -4.361  0.00  0.00    +0.156 C 
ATOM     23  C   UNL     1      13.813  -5.447  -5.343  0.00  0.00    +0.038 C 
BRANCH  22  24
ATOM      5  O   UNL     1      13.917  -7.926  -2.735  0.00  0.00    -0.274 OA
ATOM      8  N   UNL     1      12.784  -5.930  -2.840  0.00  0.00    -0.328 N 
ATOM     24  C   UNL     1      13.755  -6.821  -3.247  0.00  0.00    +0.231 C 
ATOM     29  H   UNL     1      12.674  -5.013  -3.259  0.00  0.00    +0.145 HD
ATOM     30  H   UNL     1      12.138  -6.170  -2.094  0.00  0.00    +0.145 HD
ENDBRANCH  22  24
ENDBRANCH   7  22
ENDBRANCH  14  21
BRANCH  10   1
ATOM      1  O   UNL     1      20.766  -3.659  -2.781  0.00  0.00    -0.387 OA
ATOM     26  H   UNL     1      20.664  -4.622  -2.854  0.00  0.00    +0.210 HD
ENDBRANCH  10   1
BRANCH  11   2
ATOM      2  O   UNL     1      17.708  -1.969  -1.697  0.00  0.00    -0.389 OA
ATOM     27  H   UNL     1      17.134  -1.382  -2.218  0.00  0.00    +0.210 HD
ENDBRANCH  11   2
TORSDOF 8
ENDMDL
MODEL 10
REMARK VINA RESULT:      -5.5     14.085     17.407
REMARK  Name = 40567551
REMARK  12 active torsions:
REMARK  status: ('A' for Active; 'I' for Inactive)
REMARK    1  A    between atoms: O_1  and  C_10
REMARK    2  A    between atoms: O_2  and  C_11
REMARK    3  A    between atoms: N_6  and  C_9
REMARK    4  A    between atoms: N_7  and  C_22
REMARK    5  A    between atoms: C_14  and  C_21
REMARK    6  A    between atoms: C_15  and  C_16
REMARK    7  A    between atoms: C_15  and  C_18
REMARK    8  A    between atoms: C_15  and  C_19
REMARK    9  A    between atoms: C_15  and  C_20
REMARK   10  A    between atoms: C_16  and  C_17
REMARK   11  A    between atoms: C_22  and  C_23
REMARK   12  A    between atoms: C_22  and  C_24
REMARK                            x       y       z     vdW  Elec       q    Type
REMARK                         _______ _______ _______ _____ _____    ______ ____
ROOT
ATOM      9  C   UNL     1      10.446   5.672   4.172  0.00  0.00    +0.127 C 
ATOM     10  C   UNL     1       9.456   4.958   5.111  0.00  0.00    +0.167 C 
ATOM     11  C   UNL     1       8.655   5.960   5.951  0.00  0.00    +0.149 C 
ATOM     12  C   UNL     1       9.567   6.900   6.756  0.00  0.00    +0.074 C 
ATOM     13  C   UNL     1      11.196   6.794   4.840  0.00  0.00    +0.006 C 
ATOM     14  C   UNL     1      10.795   7.329   6.004  0.00  0.00    +0.015 C 
ENDROOT
BRANCH   9   6
ATOM      3  O   UNL     1      10.343   4.441   1.555  0.00  0.00    -0.276 OA
ATOM      6  N   UNL     1      11.398   4.751   3.602  0.00  0.00    -0.306 N 
ATOM     17  C   UNL     1      11.265   4.210   2.334  0.00  0.00    +0.214 C 
ATOM     25  H   UNL     1      12.182   4.458   4.179  0.00  0.00    +0.149 HD
BRANCH  17  16
ATOM     16  C   UNL     1      12.395   3.261   1.970  0.00  0.00    +0.102 C 
BRANCH  16  15
ATOM     15  C   UNL     1      13.520   3.893   1.116  0.00  0.00    -0.029 C 
ATOM     18  C   UNL     1      13.384   3.489  -0.363  0.00  0.00    +0.011 C 
ATOM     19  C   UNL     1      13.391   5.425   1.215  0.00  0.00    +0.011 C 
ATOM     20  C   UNL     1      14.912   3.488   1.626  0.00  0.00    +0.011 C 
ENDBRANCH  16  15
ENDBRANCH  17  16
ENDBRANCH   9   6
BRANCH  14  21
ATOM      4  O   UNL     1      11.199   9.076   7.521  0.00  0.00    -0.271 OA
ATOM      7  N   UNL     1      12.802   8.594   5.897  0.00  0.00    -0.301 N 
ATOM     21  C   UNL     1      11.601   8.418   6.561  0.00  0.00    +0.240 C 
ATOM     28  H   UNL     1      13.029   7.992   5.111  0.00  0.00    +0.150 HD
BRANCH   7  22
ATOM     22  C   UNL     1      13.769   9.606   6.259  0.00  0.00    +0.156 C 
ATOM     23  C   UNL     1      13.746  10.764   5.274  0.00  0.00    +0.038 C 
BRANCH  22  24
ATOM      5  O   UNL     1      15.322   7.746   6.422  0.00  0.00    -0.274 OA
ATOM      8  N   UNL     1      16.171   9.864   6.155  0.00  0.00    -0.328 N 
ATOM     24  C   UNL     1      15.144   8.956   6.305  0.00  0.00    +0.231 C 
ATOM     29  H   UNL     1      16.007  10.859   6.039  0.00  0.00    +0.145 HD
ATOM     30  H   UNL     1      17.139   9.560   6.156  0.00  0.00    +0.145 HD
ENDBRANCH  22  24
ENDBRANCH   7  22
ENDBRANCH  14  21
BRANCH  10   1
ATOM      1  O   UNL     1      10.170   4.088   5.991  0.00  0.00    -0.387 OA
ATOM     26  H   UNL     1      11.034   4.495   6.167  0.00  0.00    +0.210 HD
ENDBRANCH  10   1
BRANCH  11   2
ATOM      2  O   UNL     1       7.786   6.720   5.113  0.00  0.00    -0.389 OA
ATOM     27  H   UNL     1       7.184   6.097   4.670  0.00  0.00    +0.210 HD
ENDBRANCH  11   2
TORSDOF 8
ENDMDL
