MODEL 1
REMARK VINA RESULT:      -6.3      0.000      0.000
REMARK  Name = 11885063
REMARK  13 active torsions:
REMARK  status: ('A' for Active; 'I' for Inactive)
REMARK    1  A    between atoms: O_2  and  C_17
REMARK    2  A    between atoms: O_3  and  C_22
REMARK    3  A    between atoms: O_5  and  C_30
REMARK    4  A    between atoms: O_5  and  C_35
REMARK    5  A    between atoms: N_9  and  C_28
REMARK    6  A    between atoms: N_11  and  C_29
REMARK    7  A    between atoms: C_12  and  C_20
REMARK    8  A    between atoms: C_14  and  C_22
REMARK    9  A    between atoms: C_14  and  C_23
REMARK   10  A    between atoms: C_15  and  C_25
REMARK   11  A    between atoms: C_25  and  C_26
REMARK   12  A    between atoms: C_28  and  C_29
REMARK   13  A    between atoms: C_35  and  C_36
REMARK                            x       y       z     vdW  Elec       q    Type
REMARK                         _______ _______ _______ _____ _____    ______ ____
ROOT
ATOM      1  S   UNL     1      13.812   8.098   6.843  0.00  0.00    -0.057 S 
ATOM      6  O   UNL     1      11.012   5.495   4.179  0.00  0.00    -0.226 OA
ATOM      8  N   UNL     1      13.587   6.940   4.540  0.00  0.00    -0.229 NA
ATOM     10  N   UNL     1      11.730   6.710   6.060  0.00  0.00    -0.230 N 
ATOM     12  C   UNL     1      16.908   8.611   3.519  0.00  0.00    -0.019 C 
ATOM     13  C   UNL     1      17.466   8.592   5.011  0.00  0.00    +0.011 C 
ATOM     14  C   UNL     1      18.852   9.303   5.265  0.00  0.00    +0.021 C 
ATOM     15  C   UNL     1      15.771   7.495   3.406  0.00  0.00    +0.054 C 
ATOM     16  C   UNL     1      18.051   8.246   2.536  0.00  0.00    +0.010 C 
ATOM     17  C   UNL     1      19.863   8.864   4.168  0.00  0.00    +0.123 C 
ATOM     18  C   UNL     1      16.363   8.984   6.036  0.00  0.00    +0.049 C 
ATOM     19  C   UNL     1      19.329   9.044   2.752  0.00  0.00    +0.032 C 
ATOM     20  C   UNL     1      16.324   9.986   3.113  0.00  0.00    +0.012 C 
ATOM     21  C   UNL     1      14.815   7.575   4.568  0.00  0.00    +0.058 A 
ATOM     23  C   UNL     1      19.419   8.832   6.633  0.00  0.00    +0.016 C 
ATOM     24  C   UNL     1      15.109   8.232   5.745  0.00  0.00    +0.015 A 
ATOM     27  C   UNL     1      12.969   7.154   5.682  0.00  0.00    +0.167 A 
ATOM     30  C   UNL     1      10.845   5.929   5.313  0.00  0.00    +0.406 C 
ATOM     41  H   UNL     1      11.431   6.985   6.992  0.00  0.00    +0.160 HD
ENDROOT
BRANCH  17   2
ATOM      2  O   UNL     1      21.087   9.587   4.293  0.00  0.00    -0.391 OA
ATOM     38  H   UNL     1      21.087  10.284   3.615  0.00  0.00    +0.210 HD
ENDBRANCH  17   2
BRANCH  30   5
ATOM      5  O   UNL     1       9.712   5.700   6.048  0.00  0.00    -0.446 OA
BRANCH   5  35
ATOM     35  C   UNL     1       9.828   5.898   7.462  0.00  0.00    +0.261 C 
BRANCH  35  36
ATOM     36  C   UNL     1       9.731   4.574   8.142  0.00  0.00    +0.006 C 
ATOM     37  C   UNL     1       9.353   4.414   9.415  0.00  0.00    +0.007 C 
ENDBRANCH  35  36
ENDBRANCH   5  35
ENDBRANCH  30   5
BRANCH  14  22
ATOM     22  C   UNL     1      18.774  10.843   5.357  0.00  0.00    +0.165 C 
BRANCH  22   3
ATOM      3  O   UNL     1      19.741  11.269   6.290  0.00  0.00    -0.394 OA
ATOM     39  H   UNL     1      19.792  10.591   6.984  0.00  0.00    +0.209 HD
ENDBRANCH  22   3
ENDBRANCH  14  22
BRANCH  15  25
ATOM     25  C   UNL     1      15.024   7.480   2.064  0.00  0.00    +0.106 C 
BRANCH  25  26
ATOM      4  O   UNL     1      15.653   6.051   0.216  0.00  0.00    -0.276 OA
ATOM      9  N   UNL     1      14.718   5.112   2.126  0.00  0.00    -0.314 N 
ATOM     26  C   UNL     1      15.180   6.161   1.344  0.00  0.00    +0.214 C 
ATOM     40  H   UNL     1      14.351   5.307   3.053  0.00  0.00    +0.149 HD
BRANCH   9  28
ATOM     28  C   UNL     1      14.741   3.734   1.691  0.00  0.00    +0.119 C 
BRANCH  28  29
ATOM     29  C   UNL     1      13.333   3.168   1.582  0.00  0.00    +0.103 C 
BRANCH  29  11
ATOM      7  O   UNL     1      10.455   4.151  -1.310  0.00  0.00    -0.377 OA
ATOM     11  N   UNL     1      12.562   3.912   0.588  0.00  0.00    -0.297 NA
ATOM     31  C   UNL     1      11.161   4.049   1.008  0.00  0.00    +0.112 C 
ATOM     32  C   UNL     1      12.632   3.255  -0.725  0.00  0.00    +0.112 C 
ATOM     33  C   UNL     1      10.374   4.818  -0.049  0.00  0.00    +0.175 C 
ATOM     34  C   UNL     1      11.811   4.043  -1.743  0.00  0.00    +0.175 C 
ENDBRANCH  29  11
ENDBRANCH  28  29
ENDBRANCH   9  28
ENDBRANCH  25  26
ENDBRANCH  15  25
TORSDOF 11
ENDMDL
MODEL 2
REMARK VINA RESULT:      -6.3     15.510     19.927
REMARK  Name = 11885063
REMARK  13 active torsions:
REMARK  status: ('A' for Active; 'I' for Inactive)
REMARK    1  A    between atoms: O_2  and  C_17
REMARK    2  A    between atoms: O_3  and  C_22
REMARK    3  A    between atoms: O_5  and  C_30
REMARK    4  A    between atoms: O_5  and  C_35
REMARK    5  A    between atoms: N_9  and  C_28
REMARK    6  A    between atoms: N_11  and  C_29
REMARK    7  A    between atoms: C_12  and  C_20
REMARK    8  A    between atoms: C_14  and  C_22
REMARK    9  A    between atoms: C_14  and  C_23
REMARK   10  A    between atoms: C_15  and  C_25
REMARK   11  A    between atoms: C_25  and  C_26
REMARK   12  A    between atoms: C_28  and  C_29
REMARK   13  A    between atoms: C_35  and  C_36
REMARK                            x       y       z     vdW  Elec       q    Type
REMARK                         _______ _______ _______ _____ _____    ______ ____
ROOT
ATOM      1  S   UNL     1      18.032   6.223  20.078  0.00  0.00    -0.057 S 
ATOM      6  O   UNL     1      20.965   8.803  22.619  0.00  0.00    -0.226 OA
ATOM      8  N   UNL     1      18.293   8.456  21.358  0.00  0.00    -0.229 NA
ATOM     10  N   UNL     1      20.198   6.980  21.347  0.00  0.00    -0.230 N 
ATOM     12  C   UNL     1      14.826   9.480  20.019  0.00  0.00    -0.019 C 
ATOM     13  C   UNL     1      14.307   7.975  19.986  0.00  0.00    +0.011 C 
ATOM     14  C   UNL     1      12.877   7.724  19.370  0.00  0.00    +0.021 C 
ATOM     15  C   UNL     1      16.045   9.558  21.047  0.00  0.00    +0.054 C 
ATOM     16  C   UNL     1      13.692  10.405  20.533  0.00  0.00    +0.010 C 
ATOM     17  C   UNL     1      11.877   8.762  19.955  0.00  0.00    +0.123 C 
ATOM     18  C   UNL     1      15.401   7.008  19.445  0.00  0.00    +0.049 C 
ATOM     19  C   UNL     1      12.361  10.201  19.824  0.00  0.00    +0.032 C 
ATOM     20  C   UNL     1      15.289   9.986  18.631  0.00  0.00    +0.012 C 
ATOM     21  C   UNL     1      17.020   8.431  20.820  0.00  0.00    +0.058 A 
ATOM     23  C   UNL     1      12.382   6.313  19.796  0.00  0.00    +0.016 C 
ATOM     24  C   UNL     1      16.703   7.289  20.114  0.00  0.00    +0.015 A 
ATOM     27  C   UNL     1      18.920   7.348  21.025  0.00  0.00    +0.167 A 
ATOM     30  C   UNL     1      21.124   7.703  22.103  0.00  0.00    +0.406 C 
ATOM     41  H   UNL     1      20.498   6.076  20.991  0.00  0.00    +0.160 HD
ENDROOT
BRANCH  17   2
ATOM      2  O   UNL     1      10.603   8.645  19.322  0.00  0.00    -0.391 OA
ATOM     38  H   UNL     1      10.471   9.441  18.779  0.00  0.00    +0.210 HD
ENDBRANCH  17   2
BRANCH  30   5
ATOM      5  O   UNL     1      22.290   6.989  22.196  0.00  0.00    -0.446 OA
BRANCH   5  35
ATOM     35  C   UNL     1      22.267   5.859  23.076  0.00  0.00    +0.261 C 
BRANCH  35  36
ATOM     36  C   UNL     1      22.731   4.656  22.325  0.00  0.00    +0.006 C 
ATOM     37  C   UNL     1      21.961   3.594  22.067  0.00  0.00    +0.007 C 
ENDBRANCH  35  36
ENDBRANCH   5  35
ENDBRANCH  30   5
BRANCH  14  22
ATOM     22  C   UNL     1      12.834   7.729  17.826  0.00  0.00    +0.165 C 
BRANCH  22   3
ATOM      3  O   UNL     1      11.746   6.930  17.421  0.00  0.00    -0.394 OA
ATOM     39  H   UNL     1      11.168   6.813  18.195  0.00  0.00    +0.209 HD
ENDBRANCH  22   3
ENDBRANCH  14  22
BRANCH  15  25
ATOM     25  C   UNL     1      16.758  10.918  21.090  0.00  0.00    +0.106 C 
BRANCH  25  26
ATOM      4  O   UNL     1      17.876  11.651  23.106  0.00  0.00    -0.276 OA
ATOM      9  N   UNL     1      15.558  11.757  22.976  0.00  0.00    -0.314 N 
ATOM     26  C   UNL     1      16.828  11.477  22.491  0.00  0.00    +0.214 C 
ATOM     40  H   UNL     1      14.751  11.585  22.384  0.00  0.00    +0.149 HD
BRANCH   9  28
ATOM     28  C   UNL     1      15.319  12.299  24.294  0.00  0.00    +0.119 C 
BRANCH  28  29
ATOM     29  C   UNL     1      14.191  13.320  24.273  0.00  0.00    +0.103 C 
BRANCH  29  11
ATOM      7  O   UNL     1      10.131  12.306  24.593  0.00  0.00    -0.377 OA
ATOM     11  N   UNL     1      12.945  12.711  24.733  0.00  0.00    -0.297 NA
ATOM     31  C   UNL     1      12.338  11.897  23.671  0.00  0.00    +0.112 C 
ATOM     32  C   UNL     1      11.997  13.740  25.183  0.00  0.00    +0.112 C 
ATOM     33  C   UNL     1      11.033  11.282  24.170  0.00  0.00    +0.175 C 
ATOM     34  C   UNL     1      10.700  13.082  25.647  0.00  0.00    +0.175 C 
ENDBRANCH  29  11
ENDBRANCH  28  29
ENDBRANCH   9  28
ENDBRANCH  25  26
ENDBRANCH  15  25
TORSDOF 11
ENDMDL
MODEL 3
REMARK VINA RESULT:      -6.1      2.262      7.974
REMARK  Name = 11885063
REMARK  13 active torsions:
REMARK  status: ('A' for Active; 'I' for Inactive)
REMARK    1  A    between atoms: O_2  and  C_17
REMARK    2  A    between atoms: O_3  and  C_22
REMARK    3  A    between atoms: O_5  and  C_30
REMARK    4  A    between atoms: O_5  and  C_35
REMARK    5  A    between atoms: N_9  and  C_28
REMARK    6  A    between atoms: N_11  and  C_29
REMARK    7  A    between atoms: C_12  and  C_20
REMARK    8  A    between atoms: C_14  and  C_22
REMARK    9  A    between atoms: C_14  and  C_23
REMARK   10  A    between atoms: C_15  and  C_25
REMARK   11  A    between atoms: C_25  and  C_26
REMARK   12  A    between atoms: C_28  and  C_29
REMARK   13  A    between atoms: C_35  and  C_36
REMARK                            x       y       z     vdW  Elec       q    Type
REMARK                         _______ _______ _______ _____ _____    ______ ____
ROOT
ATOM      1  S   UNL     1       9.969   4.925   3.770  0.00  0.00    -0.057 S 
ATOM      6  O   UNL     1      12.672   7.034   6.926  0.00  0.00    -0.226 OA
ATOM      8  N   UNL     1      12.226   6.140   4.124  0.00  0.00    -0.229 NA
ATOM     10  N   UNL     1      10.810   5.891   6.058  0.00  0.00    -0.230 N 
ATOM     12  C   UNL     1      13.123   5.259   0.479  0.00  0.00    -0.019 C 
ATOM     13  C   UNL     1      11.602   5.309   0.010  0.00  0.00    +0.011 C 
ATOM     14  C   UNL     1      11.299   4.889  -1.480  0.00  0.00    +0.021 C 
ATOM     15  C   UNL     1      13.253   6.118   1.820  0.00  0.00    +0.054 C 
ATOM     16  C   UNL     1      14.020   5.910  -0.607  0.00  0.00    +0.010 C 
ATOM     17  C   UNL     1      12.312   5.591  -2.428  0.00  0.00    +0.123 C 
ATOM     18  C   UNL     1      10.663   4.637   1.054  0.00  0.00    +0.049 C 
ATOM     19  C   UNL     1      13.765   5.385  -2.013  0.00  0.00    +0.032 C 
ATOM     20  C   UNL     1      13.626   3.818   0.739  0.00  0.00    +0.012 C 
ATOM     21  C   UNL     1      12.154   5.774   2.792  0.00  0.00    +0.058 A 
ATOM     23  C   UNL     1       9.879   5.389  -1.869  0.00  0.00    +0.016 C 
ATOM     24  C   UNL     1      10.993   5.126   2.423  0.00  0.00    +0.015 A 
ATOM     27  C   UNL     1      11.134   5.737   4.737  0.00  0.00    +0.167 A 
ATOM     30  C   UNL     1      11.572   6.511   7.051  0.00  0.00    +0.406 C 
ATOM     41  H   UNL     1       9.911   5.507   6.337  0.00  0.00    +0.160 HD
ENDROOT
BRANCH  17   2
ATOM      2  O   UNL     1      12.148   5.133  -3.769  0.00  0.00    -0.391 OA
ATOM     38  H   UNL     1      11.593   4.335  -3.741  0.00  0.00    +0.210 HD
ENDBRANCH  17   2
BRANCH  30   5
ATOM      5  O   UNL     1      10.896   6.456   8.242  0.00  0.00    -0.446 OA
BRANCH   5  35
ATOM     35  C   UNL     1       9.580   5.892   8.193  0.00  0.00    +0.261 C 
BRANCH  35  36
ATOM     36  C   UNL     1       9.547   4.674   9.055  0.00  0.00    +0.006 C 
ATOM     37  C   UNL     1       8.878   4.595  10.210  0.00  0.00    +0.007 C 
ENDBRANCH  35  36
ENDBRANCH   5  35
ENDBRANCH  30   5
BRANCH  14  22
ATOM     22  C   UNL     1      11.283   3.364  -1.725  0.00  0.00    +0.165 C 
BRANCH  22   3
ATOM      3  O   UNL     1      10.216   3.079  -2.602  0.00  0.00    -0.394 OA
ATOM     39  H   UNL     1      10.172   3.802  -3.250  0.00  0.00    +0.209 HD
ENDBRANCH  22   3
ENDBRANCH  14  22
BRANCH  15  25
ATOM     25  C   UNL     1      14.635   6.054   2.487  0.00  0.00    +0.106 C 
BRANCH  25  26
ATOM      4  O   UNL     1      14.664   8.472   2.431  0.00  0.00    -0.276 OA
ATOM      9  N   UNL     1      16.618   7.312   2.921  0.00  0.00    -0.314 N 
ATOM     26  C   UNL     1      15.271   7.419   2.602  0.00  0.00    +0.214 C 
ATOM     40  H   UNL     1      17.026   6.391   3.051  0.00  0.00    +0.149 HD
BRANCH   9  28
ATOM     28  C   UNL     1      17.482   8.458   3.091  0.00  0.00    +0.119 C 
BRANCH  28  29
ATOM     29  C   UNL     1      17.546   8.887   4.549  0.00  0.00    +0.103 C 
BRANCH  29  11
ATOM      7  O   UNL     1      21.050   7.441   6.349  0.00  0.00    -0.377 OA
ATOM     11  N   UNL     1      18.918   8.801   5.044  0.00  0.00    -0.297 NA
ATOM     31  C   UNL     1      19.642   7.702   4.391  0.00  0.00    +0.112 C 
ATOM     32  C   UNL     1      18.935   8.620   6.502  0.00  0.00    +0.112 C 
ATOM     33  C   UNL     1      21.066   7.624   4.933  0.00  0.00    +0.175 C 
ATOM     34  C   UNL     1      20.377   8.521   6.995  0.00  0.00    +0.175 C 
ENDBRANCH  29  11
ENDBRANCH  28  29
ENDBRANCH   9  28
ENDBRANCH  25  26
ENDBRANCH  15  25
TORSDOF 11
ENDMDL
MODEL 4
REMARK VINA RESULT:      -6.0     16.759     20.451
REMARK  Name = 11885063
REMARK  13 active torsions:
REMARK  status: ('A' for Active; 'I' for Inactive)
REMARK    1  A    between atoms: O_2  and  C_17
REMARK    2  A    between atoms: O_3  and  C_22
REMARK    3  A    between atoms: O_5  and  C_30
REMARK    4  A    between atoms: O_5  and  C_35
REMARK    5  A    between atoms: N_9  and  C_28
REMARK    6  A    between atoms: N_11  and  C_29
REMARK    7  A    between atoms: C_12  and  C_20
REMARK    8  A    between atoms: C_14  and  C_22
REMARK    9  A    between atoms: C_14  and  C_23
REMARK   10  A    between atoms: C_15  and  C_25
REMARK   11  A    between atoms: C_25  and  C_26
REMARK   12  A    between atoms: C_28  and  C_29
REMARK   13  A    between atoms: C_35  and  C_36
REMARK                            x       y       z     vdW  Elec       q    Type
REMARK                         _______ _______ _______ _____ _____    ______ ____
ROOT
ATOM      1  S   UNL     1      16.980   5.847  19.780  0.00  0.00    -0.057 S 
ATOM      6  O   UNL     1      21.243   7.191  21.096  0.00  0.00    -0.226 OA
ATOM      8  N   UNL     1      18.326   7.745  20.912  0.00  0.00    -0.229 NA
ATOM     10  N   UNL     1      19.573   5.821  20.168  0.00  0.00    -0.230 N 
ATOM     12  C   UNL     1      15.085   9.832  20.973  0.00  0.00    -0.019 C 
ATOM     13  C   UNL     1      14.163   8.541  21.109  0.00  0.00    +0.011 C 
ATOM     14  C   UNL     1      12.603   8.767  21.064  0.00  0.00    +0.021 C 
ATOM     15  C   UNL     1      16.551   9.446  21.477  0.00  0.00    +0.054 C 
ATOM     16  C   UNL     1      14.534  10.958  21.888  0.00  0.00    +0.010 C 
ATOM     17  C   UNL     1      12.229   9.955  21.997  0.00  0.00    +0.123 C 
ATOM     18  C   UNL     1      14.656   7.390  20.184  0.00  0.00    +0.049 C 
ATOM     19  C   UNL     1      13.043  11.214  21.720  0.00  0.00    +0.032 C 
ATOM     20  C   UNL     1      15.163  10.365  19.521  0.00  0.00    +0.012 C 
ATOM     21  C   UNL     1      17.000   8.135  20.884  0.00  0.00    +0.058 A 
ATOM     23  C   UNL     1      11.890   7.502  21.619  0.00  0.00    +0.016 C 
ATOM     24  C   UNL     1      16.131   7.220  20.326  0.00  0.00    +0.015 A 
ATOM     27  C   UNL     1      18.435   6.560  20.350  0.00  0.00    +0.167 A 
ATOM     30  C   UNL     1      20.875   6.165  20.538  0.00  0.00    +0.406 C 
ATOM     41  H   UNL     1      19.444   4.922  19.711  0.00  0.00    +0.160 HD
ENDROOT
BRANCH  17   2
ATOM      2  O   UNL     1      10.842  10.270  21.880  0.00  0.00    -0.391 OA
ATOM     38  H   UNL     1      10.349   9.632  22.423  0.00  0.00    +0.210 HD
ENDBRANCH  17   2
BRANCH  30   5
ATOM      5  O   UNL     1      21.729   5.155  20.179  0.00  0.00    -0.446 OA
BRANCH   5  35
ATOM     35  C   UNL     1      21.594   3.927  20.906  0.00  0.00    +0.261 C 
BRANCH  35  36
ATOM     36  C   UNL     1      22.316   4.056  22.205  0.00  0.00    +0.006 C 
ATOM     37  C   UNL     1      22.454   3.058  23.085  0.00  0.00    +0.007 C 
ENDBRANCH  35  36
ENDBRANCH   5  35
ENDBRANCH  30   5
BRANCH  14  22
ATOM     22  C   UNL     1      12.027   8.979  19.646  0.00  0.00    +0.165 C 
BRANCH  22   3
ATOM      3  O   UNL     1      10.707   8.482  19.637  0.00  0.00    -0.394 OA
ATOM     39  H   UNL     1      10.167   9.087  20.173  0.00  0.00    +0.209 HD
ENDBRANCH  22   3
ENDBRANCH  14  22
BRANCH  15  25
ATOM     25  C   UNL     1      17.605  10.544  21.275  0.00  0.00    +0.106 C 
BRANCH  25  26
ATOM      4  O   UNL     1      17.961  11.886  23.256  0.00  0.00    -0.276 OA
ATOM      9  N   UNL     1      19.312  10.035  22.867  0.00  0.00    -0.314 N 
ATOM     26  C   UNL     1      18.285  10.921  22.571  0.00  0.00    +0.214 C 
ATOM     40  H   UNL     1      19.496   9.259  22.237  0.00  0.00    +0.149 HD
BRANCH   9  28
ATOM     28  C   UNL     1      20.139  10.152  24.046  0.00  0.00    +0.119 C 
BRANCH  28  29
ATOM     29  C   UNL     1      21.434   9.371  23.889  0.00  0.00    +0.103 C 
BRANCH  29  11
ATOM      7  O   UNL     1      20.799   6.068  26.400  0.00  0.00    -0.377 OA
ATOM     11  N   UNL     1      21.581   8.405  24.976  0.00  0.00    -0.297 NA
ATOM     31  C   UNL     1      21.844   7.059  24.448  0.00  0.00    +0.112 C 
ATOM     32  C   UNL     1      20.381   8.388  25.824  0.00  0.00    +0.112 C 
ATOM     33  C   UNL     1      21.982   6.068  25.599  0.00  0.00    +0.175 C 
ATOM     34  C   UNL     1      20.553   7.365  26.944  0.00  0.00    +0.175 C 
ENDBRANCH  29  11
ENDBRANCH  28  29
ENDBRANCH   9  28
ENDBRANCH  25  26
ENDBRANCH  15  25
TORSDOF 11
ENDMDL
MODEL 5
REMARK VINA RESULT:      -6.0     26.696     29.841
REMARK  Name = 11885063
REMARK  13 active torsions:
REMARK  status: ('A' for Active; 'I' for Inactive)
REMARK    1  A    between atoms: O_2  and  C_17
REMARK    2  A    between atoms: O_3  and  C_22
REMARK    3  A    between atoms: O_5  and  C_30
REMARK    4  A    between atoms: O_5  and  C_35
REMARK    5  A    between atoms: N_9  and  C_28
REMARK    6  A    between atoms: N_11  and  C_29
REMARK    7  A    between atoms: C_12  and  C_20
REMARK    8  A    between atoms: C_14  and  C_22
REMARK    9  A    between atoms: C_14  and  C_23
REMARK   10  A    between atoms: C_15  and  C_25
REMARK   11  A    between atoms: C_25  and  C_26
REMARK   12  A    between atoms: C_28  and  C_29
REMARK   13  A    between atoms: C_35  and  C_36
REMARK                            x       y       z     vdW  Elec       q    Type
REMARK                         _______ _______ _______ _____ _____    ______ ____
ROOT
ATOM      1  S   UNL     1      -6.418 -10.404  10.691  0.00  0.00    -0.057 S 
ATOM      6  O   UNL     1     -10.701  -8.800  11.584  0.00  0.00    -0.226 OA
ATOM      8  N   UNL     1      -8.047  -9.707  12.577  0.00  0.00    -0.229 NA
ATOM     10  N   UNL     1      -8.865  -9.540  10.315  0.00  0.00    -0.230 N 
ATOM     12  C   UNL     1      -5.425 -10.940  15.120  0.00  0.00    -0.019 C 
ATOM     13  C   UNL     1      -4.208 -10.576  14.161  0.00  0.00    +0.011 C 
ATOM     14  C   UNL     1      -2.765 -10.988  14.647  0.00  0.00    +0.021 C 
ATOM     15  C   UNL     1      -6.686 -10.068  14.669  0.00  0.00    +0.054 C 
ATOM     16  C   UNL     1      -5.064 -10.559  16.580  0.00  0.00    +0.010 C 
ATOM     17  C   UNL     1      -2.588 -10.576  16.136  0.00  0.00    +0.123 C 
ATOM     18  C   UNL     1      -4.509 -10.969  12.685  0.00  0.00    +0.049 C 
ATOM     19  C   UNL     1      -3.710 -11.081  17.036  0.00  0.00    +0.032 C 
ATOM     20  C   UNL     1      -5.796 -12.443  15.077  0.00  0.00    +0.012 C 
ATOM     21  C   UNL     1      -6.868 -10.111  13.174  0.00  0.00    +0.058 A 
ATOM     23  C   UNL     1      -1.708 -10.203  13.820  0.00  0.00    +0.016 C 
ATOM     24  C   UNL     1      -5.872 -10.501  12.302  0.00  0.00    +0.015 A 
ATOM     27  C   UNL     1      -7.928  -9.826  11.272  0.00  0.00    +0.167 A 
ATOM     30  C   UNL     1     -10.161  -9.058  10.516  0.00  0.00    +0.406 C 
ATOM     41  H   UNL     1      -8.575  -9.700   9.354  0.00  0.00    +0.160 HD
ENDROOT
BRANCH  17   2
ATOM      2  O   UNL     1      -1.342 -11.051  16.644  0.00  0.00    -0.391 OA
ATOM     38  H   UNL     1      -0.787 -10.276  16.835  0.00  0.00    +0.210 HD
ENDBRANCH  17   2
BRANCH  30   5
ATOM      5  O   UNL     1     -10.779  -8.903   9.303  0.00  0.00    -0.446 OA
BRANCH   5  35
ATOM     35  C   UNL     1     -10.019  -8.234   8.289  0.00  0.00    +0.261 C 
BRANCH  35  36
ATOM     36  C   UNL     1     -10.325  -6.774   8.344  0.00  0.00    +0.006 C 
ATOM     37  C   UNL     1      -9.398  -5.822   8.488  0.00  0.00    +0.007 C 
ENDBRANCH  35  36
ENDBRANCH   5  35
ENDBRANCH  30   5
BRANCH  14  22
ATOM     22  C   UNL     1      -2.424 -12.481  14.445  0.00  0.00    +0.165 C 
BRANCH  22   3
ATOM      3  O   UNL     1      -1.392 -12.563  13.488  0.00  0.00    -0.394 OA
ATOM     39  H   UNL     1      -1.389 -11.726  12.993  0.00  0.00    +0.209 HD
ENDBRANCH  22   3
ENDBRANCH  14  22
BRANCH  15  25
ATOM     25  C   UNL     1      -7.991 -10.407  15.404  0.00  0.00    +0.106 C 
BRANCH  25  26
ATOM      4  O   UNL     1      -8.180  -9.023  17.379  0.00  0.00    -0.276 OA
ATOM      9  N   UNL     1      -9.378  -8.463  15.468  0.00  0.00    -0.314 N 
ATOM     26  C   UNL     1      -8.503  -9.239  16.215  0.00  0.00    +0.214 C 
ATOM     40  H   UNL     1      -9.575  -8.722  14.506  0.00  0.00    +0.149 HD
BRANCH   9  28
ATOM     28  C   UNL     1     -10.025  -7.281  15.989  0.00  0.00    +0.119 C 
BRANCH  28  29
ATOM     29  C   UNL     1     -11.489  -7.548  16.303  0.00  0.00    +0.103 C 
BRANCH  29  11
ATOM      7  O   UNL     1     -12.940  -5.969  12.695  0.00  0.00    -0.377 OA
ATOM     11  N   UNL     1     -12.348  -6.885  15.324  0.00  0.00    -0.297 NA
ATOM     31  C   UNL     1     -12.739  -7.815  14.255  0.00  0.00    +0.112 C 
ATOM     32  C   UNL     1     -11.675  -5.712  14.749  0.00  0.00    +0.112 C 
ATOM     33  C   UNL     1     -13.624  -7.098  13.240  0.00  0.00    +0.175 C 
ATOM     34  C   UNL     1     -12.586  -5.043  13.722  0.00  0.00    +0.175 C 
ENDBRANCH  29  11
ENDBRANCH  28  29
ENDBRANCH   9  28
ENDBRANCH  25  26
ENDBRANCH  15  25
TORSDOF 11
ENDMDL
MODEL 6
REMARK VINA RESULT:      -6.0     29.749     32.954
REMARK  Name = 11885063
REMARK  13 active torsions:
REMARK  status: ('A' for Active; 'I' for Inactive)
REMARK    1  A    between atoms: O_2  and  C_17
REMARK    2  A    between atoms: O_3  and  C_22
REMARK    3  A    between atoms: O_5  and  C_30
REMARK    4  A    between atoms: O_5  and  C_35
REMARK    5  A    between atoms: N_9  and  C_28
REMARK    6  A    between atoms: N_11  and  C_29
REMARK    7  A    between atoms: C_12  and  C_20
REMARK    8  A    between atoms: C_14  and  C_22
REMARK    9  A    between atoms: C_14  and  C_23
REMARK   10  A    between atoms: C_15  and  C_25
REMARK   11  A    between atoms: C_25  and  C_26
REMARK   12  A    between atoms: C_28  and  C_29
REMARK   13  A    between atoms: C_35  and  C_36
REMARK                            x       y       z     vdW  Elec       q    Type
REMARK                         _______ _______ _______ _____ _____    ______ ____
ROOT
ATOM      1  S   UNL     1     -10.569 -12.782  19.554  0.00  0.00    -0.057 S 
ATOM      6  O   UNL     1     -13.700  -9.465  18.600  0.00  0.00    -0.226 OA
ATOM      8  N   UNL     1     -10.944 -10.548  18.306  0.00  0.00    -0.229 NA
ATOM     10  N   UNL     1     -12.824 -11.444  19.519  0.00  0.00    -0.230 N 
ATOM     12  C   UNL     1      -7.180 -10.532  17.472  0.00  0.00    -0.019 C 
ATOM     13  C   UNL     1      -7.101 -12.122  17.436  0.00  0.00    +0.011 C 
ATOM     14  C   UNL     1      -5.674 -12.763  17.238  0.00  0.00    +0.021 C 
ATOM     15  C   UNL     1      -8.702 -10.109  17.236  0.00  0.00    +0.054 C 
ATOM     16  C   UNL     1      -6.325  -9.947  16.317  0.00  0.00    +0.010 C 
ATOM     17  C   UNL     1      -4.939 -12.033  16.078  0.00  0.00    +0.123 C 
ATOM     18  C   UNL     1      -7.919 -12.759  18.597  0.00  0.00    +0.049 C 
ATOM     19  C   UNL     1      -4.916 -10.517  16.242  0.00  0.00    +0.032 C 
ATOM     20  C   UNL     1      -6.681  -9.935  18.810  0.00  0.00    +0.012 C 
ATOM     21  C   UNL     1      -9.632 -10.928  18.094  0.00  0.00    +0.058 A 
ATOM     23  C   UNL     1      -5.841 -14.250  16.815  0.00  0.00    +0.016 C 
ATOM     24  C   UNL     1      -9.265 -12.122  18.679  0.00  0.00    +0.015 A 
ATOM     27  C   UNL     1     -11.531 -11.445  19.068  0.00  0.00    +0.167 A 
ATOM     30  C   UNL     1     -13.808 -10.485  19.269  0.00  0.00    +0.406 C 
ATOM     41  H   UNL     1     -13.087 -12.236  20.100  0.00  0.00    +0.160 HD
ENDROOT
BRANCH  17   2
ATOM      2  O   UNL     1      -3.597 -12.502  15.958  0.00  0.00    -0.391 OA
ATOM     38  H   UNL     1      -3.386 -12.553  15.010  0.00  0.00    +0.210 HD
ENDBRANCH  17   2
BRANCH  30   5
ATOM      5  O   UNL     1     -14.968 -10.851  19.901  0.00  0.00    -0.446 OA
BRANCH   5  35
ATOM     35  C   UNL     1     -15.215 -10.234  21.171  0.00  0.00    +0.261 C 
BRANCH  35  36
ATOM     36  C   UNL     1     -16.169  -9.104  20.978  0.00  0.00    +0.006 C 
ATOM     37  C   UNL     1     -15.944  -7.855  21.402  0.00  0.00    +0.007 C 
ENDBRANCH  35  36
ENDBRANCH   5  35
ENDBRANCH  30   5
BRANCH  14  22
ATOM     22  C   UNL     1      -4.801 -12.790  18.512  0.00  0.00    +0.165 C 
BRANCH  22   3
ATOM      3  O   UNL     1      -4.045 -13.980  18.493  0.00  0.00    -0.394 OA
ATOM     39  H   UNL     1      -3.557 -14.026  19.332  0.00  0.00    +0.209 HD
ENDBRANCH  22   3
ENDBRANCH  14  22
BRANCH  15  25
ATOM     25  C   UNL     1      -8.978  -8.606  17.386  0.00  0.00    +0.106 C 
BRANCH  25  26
ATOM      4  O   UNL     1      -9.632  -8.568  15.057  0.00  0.00    -0.276 OA
ATOM      9  N   UNL     1     -10.254  -6.816  16.451  0.00  0.00    -0.314 N 
ATOM     26  C   UNL     1      -9.643  -8.027  16.159  0.00  0.00    +0.214 C 
ATOM     40  H   UNL     1     -10.213  -6.455  17.400  0.00  0.00    +0.149 HD
BRANCH   9  28
ATOM     28  C   UNL     1     -10.965  -6.033  15.467  0.00  0.00    +0.119 C 
BRANCH  28  29
ATOM     29  C   UNL     1     -12.452  -6.353  15.478  0.00  0.00    +0.103 C 
BRANCH  29  11
ATOM      7  O   UNL     1     -14.155  -4.683  12.025  0.00  0.00    -0.377 OA
ATOM     11  N   UNL     1     -13.173  -5.450  14.584  0.00  0.00    -0.297 NA
ATOM     31  C   UNL     1     -14.318  -6.132  13.964  0.00  0.00    +0.112 C 
ATOM     32  C   UNL     1     -12.279  -4.920  13.545  0.00  0.00    +0.112 C 
ATOM     33  C   UNL     1     -15.047  -5.174  13.027  0.00  0.00    +0.175 C 
ATOM     34  C   UNL     1     -13.057  -3.990  12.618  0.00  0.00    +0.175 C 
ENDBRANCH  29  11
ENDBRANCH  28  29
ENDBRANCH   9  28
ENDBRANCH  25  26
ENDBRANCH  15  25
TORSDOF 11
ENDMDL
MODEL 7
REMARK VINA RESULT:      -5.9     27.842     30.944
REMARK  Name = 11885063
REMARK  13 active torsions:
REMARK  status: ('A' for Active; 'I' for Inactive)
REMARK    1  A    between atoms: O_2  and  C_17
REMARK    2  A    between atoms: O_3  and  C_22
REMARK    3  A    between atoms: O_5  and  C_30
REMARK    4  A    between atoms: O_5  and  C_35
REMARK    5  A    between atoms: N_9  and  C_28
REMARK    6  A    between atoms: N_11  and  C_29
REMARK    7  A    between atoms: C_12  and  C_20
REMARK    8  A    between atoms: C_14  and  C_22
REMARK    9  A    between atoms: C_14  and  C_23
REMARK   10  A    between atoms: C_15  and  C_25
REMARK   11  A    between atoms: C_25  and  C_26
REMARK   12  A    between atoms: C_28  and  C_29
REMARK   13  A    between atoms: C_35  and  C_36
REMARK                            x       y       z     vdW  Elec       q    Type
REMARK                         _______ _______ _______ _____ _____    ______ ____
ROOT
ATOM      1  S   UNL     1      -6.252 -10.786  12.593  0.00  0.00    -0.057 S 
ATOM      6  O   UNL     1      -9.781  -8.490  10.596  0.00  0.00    -0.226 OA
ATOM      8  N   UNL     1      -8.513  -9.611  13.043  0.00  0.00    -0.229 NA
ATOM     10  N   UNL     1      -7.742  -9.650  10.759  0.00  0.00    -0.230 N 
ATOM     12  C   UNL     1      -8.273 -10.832  16.692  0.00  0.00    -0.019 C 
ATOM     13  C   UNL     1      -6.681 -10.779  16.688  0.00  0.00    +0.011 C 
ATOM     14  C   UNL     1      -5.944 -11.318  17.974  0.00  0.00    +0.021 C 
ATOM     15  C   UNL     1      -8.801  -9.864  15.536  0.00  0.00    +0.054 C 
ATOM     16  C   UNL     1      -8.803 -10.304  18.051  0.00  0.00    +0.010 C 
ATOM     17  C   UNL     1      -6.628 -10.730  19.241  0.00  0.00    +0.123 C 
ATOM     18  C   UNL     1      -6.098 -11.329  15.354  0.00  0.00    +0.049 C 
ATOM     19  C   UNL     1      -8.137 -10.942  19.262  0.00  0.00    +0.032 C 
ATOM     20  C   UNL     1      -8.828 -12.259  16.463  0.00  0.00    +0.012 C 
ATOM     21  C   UNL     1      -8.044 -10.089  14.252  0.00  0.00    +0.058 A 
ATOM     23  C   UNL     1      -4.474 -10.812  17.965  0.00  0.00    +0.016 C 
ATOM     24  C   UNL     1      -6.824 -10.733  14.196  0.00  0.00    +0.015 A 
ATOM     27  C   UNL     1      -7.654  -9.927  12.097  0.00  0.00    +0.167 A 
ATOM     30  C   UNL     1      -8.768  -8.967  10.101  0.00  0.00    +0.406 C 
ATOM     41  H   UNL     1      -6.968  -9.982  10.190  0.00  0.00    +0.160 HD
ENDROOT
BRANCH  17   2
ATOM      2  O   UNL     1      -6.068 -11.299  20.424  0.00  0.00    -0.391 OA
ATOM     38  H   UNL     1      -5.169 -10.943  20.525  0.00  0.00    +0.210 HD
ENDBRANCH  17   2
BRANCH  30   5
ATOM      5  O   UNL     1      -8.480  -8.899   8.763  0.00  0.00    -0.446 OA
BRANCH   5  35
ATOM     35  C   UNL     1      -7.691  -7.778   8.345  0.00  0.00    +0.261 C 
BRANCH  35  36
ATOM     36  C   UNL     1      -8.583  -6.782   7.683  0.00  0.00    +0.006 C 
ATOM     37  C   UNL     1      -9.134  -5.739   8.314  0.00  0.00    +0.007 C 
ENDBRANCH  35  36
ENDBRANCH   5  35
ENDBRANCH  30   5
BRANCH  14  22
ATOM     22  C   UNL     1      -5.852 -12.857  18.062  0.00  0.00    +0.165 C 
BRANCH  22   3
ATOM      3  O   UNL     1      -4.565 -13.187  18.533  0.00  0.00    -0.394 OA
ATOM     39  H   UNL     1      -4.518 -12.914  19.464  0.00  0.00    +0.209 HD
ENDBRANCH  22   3
ENDBRANCH  14  22
BRANCH  15  25
ATOM     25  C   UNL     1     -10.319  -9.910  15.309  0.00  0.00    +0.106 C 
BRANCH  25  26
ATOM      4  O   UNL     1     -11.800  -8.713  16.801  0.00  0.00    -0.276 OA
ATOM      9  N   UNL     1     -10.635  -7.547  15.163  0.00  0.00    -0.314 N 
ATOM     26  C   UNL     1     -11.011  -8.686  15.861  0.00  0.00    +0.214 C 
ATOM     40  H   UNL     1      -9.966  -7.628  14.402  0.00  0.00    +0.149 HD
BRANCH   9  28
ATOM     28  C   UNL     1     -11.143  -6.229  15.469  0.00  0.00    +0.119 C 
BRANCH  28  29
ATOM     29  C   UNL     1     -12.420  -5.937  14.696  0.00  0.00    +0.103 C 
BRANCH  29  11
ATOM      7  O   UNL     1     -12.836  -4.573  10.749  0.00  0.00    -0.377 OA
ATOM     11  N   UNL     1     -12.102  -5.463  13.351  0.00  0.00    -0.297 NA
ATOM     31  C   UNL     1     -12.656  -4.120  13.125  0.00  0.00    +0.112 C 
ATOM     32  C   UNL     1     -12.611  -6.395  12.335  0.00  0.00    +0.112 C 
ATOM     33  C   UNL     1     -12.322  -3.652  11.712  0.00  0.00    +0.175 C 
ATOM     34  C   UNL     1     -12.278  -5.872  10.940  0.00  0.00    +0.175 C 
ENDBRANCH  29  11
ENDBRANCH  28  29
ENDBRANCH   9  28
ENDBRANCH  25  26
ENDBRANCH  15  25
TORSDOF 11
ENDMDL
MODEL 8
REMARK VINA RESULT:      -5.7      1.538      1.986
REMARK  Name = 11885063
REMARK  13 active torsions:
REMARK  status: ('A' for Active; 'I' for Inactive)
REMARK    1  A    between atoms: O_2  and  C_17
REMARK    2  A    between atoms: O_3  and  C_22
REMARK    3  A    between atoms: O_5  and  C_30
REMARK    4  A    between atoms: O_5  and  C_35
REMARK    5  A    between atoms: N_9  and  C_28
REMARK    6  A    between atoms: N_11  and  C_29
REMARK    7  A    between atoms: C_12  and  C_20
REMARK    8  A    between atoms: C_14  and  C_22
REMARK    9  A    between atoms: C_14  and  C_23
REMARK   10  A    between atoms: C_15  and  C_25
REMARK   11  A    between atoms: C_25  and  C_26
REMARK   12  A    between atoms: C_28  and  C_29
REMARK   13  A    between atoms: C_35  and  C_36
REMARK                            x       y       z     vdW  Elec       q    Type
REMARK                         _______ _______ _______ _____ _____    ______ ____
ROOT
ATOM      1  S   UNL     1      14.727   7.873   6.394  0.00  0.00    -0.057 S 
ATOM      6  O   UNL     1      12.243   6.153   2.846  0.00  0.00    -0.226 OA
ATOM      8  N   UNL     1      14.773   7.346   3.861  0.00  0.00    -0.229 NA
ATOM     10  N   UNL     1      12.740   6.821   5.045  0.00  0.00    -0.230 N 
ATOM     12  C   UNL     1      18.216   9.072   3.696  0.00  0.00    -0.019 C 
ATOM     13  C   UNL     1      18.585   8.653   5.187  0.00  0.00    +0.011 C 
ATOM     14  C   UNL     1      19.937   9.215   5.774  0.00  0.00    +0.021 C 
ATOM     15  C   UNL     1      17.087   8.073   3.169  0.00  0.00    +0.054 C 
ATOM     16  C   UNL     1      19.467   8.918   2.791  0.00  0.00    +0.010 C 
ATOM     17  C   UNL     1      21.071   9.023   4.726  0.00  0.00    +0.123 C 
ATOM     18  C   UNL     1      17.369   8.821   6.143  0.00  0.00    +0.049 C 
ATOM     19  C   UNL     1      20.718   9.579   3.351  0.00  0.00    +0.032 C 
ATOM     20  C   UNL     1      17.704  10.530   3.590  0.00  0.00    +0.012 C 
ATOM     21  C   UNL     1      15.996   7.898   4.194  0.00  0.00    +0.058 A 
ATOM     23  C   UNL     1      20.326   8.389   7.032  0.00  0.00    +0.016 C 
ATOM     24  C   UNL     1      16.150   8.224   5.526  0.00  0.00    +0.015 A 
ATOM     27  C   UNL     1      14.021   7.291   4.940  0.00  0.00    +0.167 A 
ATOM     30  C   UNL     1      11.944   6.293   4.026  0.00  0.00    +0.406 C 
ATOM     41  H   UNL     1      12.331   6.864   5.975  0.00  0.00    +0.160 HD
ENDROOT
BRANCH  17   2
ATOM      2  O   UNL     1      22.279   9.638   5.174  0.00  0.00    -0.391 OA
ATOM     38  H   UNL     1      22.060  10.539   5.464  0.00  0.00    +0.210 HD
ENDBRANCH  17   2
BRANCH  30   5
ATOM      5  O   UNL     1      10.726   5.936   4.541  0.00  0.00    -0.446 OA
BRANCH   5  35
ATOM     35  C   UNL     1      10.589   6.040   5.963  0.00  0.00    +0.261 C 
BRANCH  35  36
ATOM     36  C   UNL     1       9.142   6.192   6.297  0.00  0.00    +0.006 C 
ATOM     37  C   UNL     1       8.205   6.545   5.410  0.00  0.00    +0.007 C 
ENDBRANCH  35  36
ENDBRANCH   5  35
ENDBRANCH  30   5
BRANCH  14  22
ATOM     22  C   UNL     1      19.869  10.684   6.247  0.00  0.00    +0.165 C 
BRANCH  22   3
ATOM      3  O   UNL     1      20.705  10.814   7.374  0.00  0.00    -0.394 OA
ATOM     39  H   UNL     1      21.341  10.079   7.350  0.00  0.00    +0.209 HD
ENDBRANCH  22   3
ENDBRANCH  14  22
BRANCH  15  25
ATOM     25  C   UNL     1      16.511   8.430   1.790  0.00  0.00    +0.106 C 
BRANCH  25  26
ATOM      4  O   UNL     1      17.636   7.401  -0.088  0.00  0.00    -0.276 OA
ATOM      9  N   UNL     1      15.879   6.286   0.947  0.00  0.00    -0.314 N 
ATOM     26  C   UNL     1      16.763   7.342   0.773  0.00  0.00    +0.214 C 
ATOM     40  H   UNL     1      15.195   6.329   1.697  0.00  0.00    +0.149 HD
BRANCH   9  28
ATOM     28  C   UNL     1      15.885   5.106   0.113  0.00  0.00    +0.119 C 
BRANCH  28  29
ATOM     29  C   UNL     1      14.943   4.043   0.657  0.00  0.00    +0.103 C 
BRANCH  29  11
ATOM      7  O   UNL     1      12.038   4.241  -2.366  0.00  0.00    -0.377 OA
ATOM     11  N   UNL     1      13.974   3.652  -0.365  0.00  0.00    -0.297 NA
ATOM     31  C   UNL     1      14.365   4.172  -1.683  0.00  0.00    +0.112 C 
ATOM     32  C   UNL     1      12.627   4.125  -0.016  0.00  0.00    +0.112 C 
ATOM     33  C   UNL     1      13.334   3.762  -2.730  0.00  0.00    +0.175 C 
ATOM     34  C   UNL     1      11.636   3.714  -1.102  0.00  0.00    +0.175 C 
ENDBRANCH  29  11
ENDBRANCH  28  29
ENDBRANCH   9  28
ENDBRANCH  25  26
ENDBRANCH  15  25
TORSDOF 11
ENDMDL
MODEL 9
REMARK VINA RESULT:      -5.7     32.190     38.693
REMARK  Name = 11885063
REMARK  13 active torsions:
REMARK  status: ('A' for Active; 'I' for Inactive)
REMARK    1  A    between atoms: O_2  and  C_17
REMARK    2  A    between atoms: O_3  and  C_22
REMARK    3  A    between atoms: O_5  and  C_30
REMARK    4  A    between atoms: O_5  and  C_35
REMARK    5  A    between atoms: N_9  and  C_28
REMARK    6  A    between atoms: N_11  and  C_29
REMARK    7  A    between atoms: C_12  and  C_20
REMARK    8  A    between atoms: C_14  and  C_22
REMARK    9  A    between atoms: C_14  and  C_23
REMARK   10  A    between atoms: C_15  and  C_25
REMARK   11  A    between atoms: C_25  and  C_26
REMARK   12  A    between atoms: C_28  and  C_29
REMARK   13  A    between atoms: C_35  and  C_36
REMARK                            x       y       z     vdW  Elec       q    Type
REMARK                         _______ _______ _______ _____ _____    ______ ____
ROOT
ATOM      1  S   UNL     1      -4.116  13.049  33.686  0.00  0.00    -0.057 S 
ATOM      6  O   UNL     1       0.123  12.075  35.358  0.00  0.00    -0.226 OA
ATOM      8  N   UNL     1      -2.823  11.668  35.451  0.00  0.00    -0.229 NA
ATOM     10  N   UNL     1      -1.513  13.074  33.995  0.00  0.00    -0.230 N 
ATOM     12  C   UNL     1      -6.225  10.573  36.898  0.00  0.00    -0.019 C 
ATOM     13  C   UNL     1      -6.942  10.649  35.478  0.00  0.00    +0.011 C 
ATOM     14  C   UNL     1      -8.499  10.400  35.448  0.00  0.00    +0.021 C 
ATOM     15  C   UNL     1      -4.655  10.414  36.648  0.00  0.00    +0.054 C 
ATOM     16  C   UNL     1      -6.727   9.321  37.663  0.00  0.00    +0.010 C 
ATOM     17  C   UNL     1      -8.833   9.140  36.298  0.00  0.00    +0.123 C 
ATOM     18  C   UNL     1      -6.493  11.909  34.681  0.00  0.00    +0.049 C 
ATOM     19  C   UNL     1      -8.243   9.190  37.703  0.00  0.00    +0.032 C 
ATOM     20  C   UNL     1      -6.484  11.826  37.770  0.00  0.00    +0.012 C 
ATOM     21  C   UNL     1      -4.168  11.394  35.612  0.00  0.00    +0.058 A 
ATOM     23  C   UNL     1      -8.937  10.101  33.987  0.00  0.00    +0.016 C 
ATOM     24  C   UNL     1      -5.009  12.038  34.727  0.00  0.00    +0.015 A 
ATOM     27  C   UNL     1      -2.678  12.534  34.470  0.00  0.00    +0.167 A 
ATOM     30  C   UNL     1      -0.216  12.823  34.449  0.00  0.00    +0.406 C 
ATOM     41  H   UNL     1      -1.615  13.729  33.224  0.00  0.00    +0.160 HD
ENDROOT
BRANCH  17   2
ATOM      2  O   UNL     1     -10.245   8.961  36.399  0.00  0.00    -0.391 OA
ATOM     38  H   UNL     1     -10.404   8.196  36.976  0.00  0.00    +0.210 HD
ENDBRANCH  17   2
BRANCH  30   5
ATOM      5  O   UNL     1       0.673  13.561  33.711  0.00  0.00    -0.446 OA
BRANCH   5  35
ATOM     35  C   UNL     1       0.165  14.126  32.496  0.00  0.00    +0.261 C 
BRANCH  35  36
ATOM     36  C   UNL     1       1.169  13.914  31.412  0.00  0.00    +0.006 C 
ATOM     37  C   UNL     1       1.597  12.711  31.016  0.00  0.00    +0.007 C 
ENDBRANCH  35  36
ENDBRANCH   5  35
ENDBRANCH  30   5
BRANCH  14  22
ATOM     22  C   UNL     1      -9.350  11.608  35.898  0.00  0.00    +0.165 C 
BRANCH  22   3
ATOM      3  O   UNL     1     -10.542  11.600  35.144  0.00  0.00    -0.394 OA
ATOM     39  H   UNL     1     -11.282  11.587  35.774  0.00  0.00    +0.209 HD
ENDBRANCH  22   3
ENDBRANCH  14  22
BRANCH  15  25
ATOM     25  C   UNL     1      -3.798  10.472  37.921  0.00  0.00    +0.106 C 
BRANCH  25  26
ATOM      4  O   UNL     1      -3.429   8.103  38.249  0.00  0.00    -0.276 OA
ATOM      9  N   UNL     1      -1.606   9.533  38.061  0.00  0.00    -0.314 N 
ATOM     26  C   UNL     1      -2.959   9.227  38.096  0.00  0.00    +0.214 C 
ATOM     40  H   UNL     1      -1.317  10.497  37.921  0.00  0.00    +0.149 HD
BRANCH   9  28
ATOM     28  C   UNL     1      -0.568   8.538  38.206  0.00  0.00    +0.119 C 
BRANCH  28  29
ATOM     29  C   UNL     1      -0.040   8.497  39.631  0.00  0.00    +0.103 C 
BRANCH  29  11
ATOM      7  O   UNL     1      -2.211   5.091  40.771  0.00  0.00    -0.377 OA
ATOM     11  N   UNL     1      -0.410   7.238  40.275  0.00  0.00    -0.297 NA
ATOM     31  C   UNL     1      -0.651   6.190  39.273  0.00  0.00    +0.112 C 
ATOM     32  C   UNL     1      -1.601   7.414  41.117  0.00  0.00    +0.112 C 
ATOM     33  C   UNL     1      -1.047   4.891  39.967  0.00  0.00    +0.175 C 
ATOM     34  C   UNL     1      -1.975   6.085  41.768  0.00  0.00    +0.175 C 
ENDBRANCH  29  11
ENDBRANCH  28  29
ENDBRANCH   9  28
ENDBRANCH  25  26
ENDBRANCH  15  25
TORSDOF 11
ENDMDL
MODEL 10
REMARK VINA RESULT:      -5.5     26.416     28.061
REMARK  Name = 11885063
REMARK  13 active torsions:
REMARK  status: ('A' for Active; 'I' for Inactive)
REMARK    1  A    between atoms: O_2  and  C_17
REMARK    2  A    between atoms: O_3  and  C_22
REMARK    3  A    between atoms: O_5  and  C_30
REMARK    4  A    between atoms: O_5  and  C_35
REMARK    5  A    between atoms: N_9  and  C_28
REMARK    6  A    between atoms: N_11  and  C_29
REMARK    7  A    between atoms: C_12  and  C_20
REMARK    8  A    between atoms: C_14  and  C_22
REMARK    9  A    between atoms: C_14  and  C_23
REMARK   10  A    between atoms: C_15  and  C_25
REMARK   11  A    between atoms: C_25  and  C_26
REMARK   12  A    between atoms: C_28  and  C_29
REMARK   13  A    between atoms: C_35  and  C_36
REMARK                            x       y       z     vdW  Elec       q    Type
REMARK                         _______ _______ _______ _____ _____    ______ ____
ROOT
ATOM      1  S   UNL     1      -7.519  -9.260   4.733  0.00  0.00    -0.057 S 
ATOM      6  O   UNL     1      -7.790  -7.088   8.847  0.00  0.00    -0.226 OA
ATOM      8  N   UNL     1      -6.676  -9.285   7.179  0.00  0.00    -0.229 NA
ATOM     10  N   UNL     1      -8.218  -7.533   6.578  0.00  0.00    -0.230 N 
ATOM     12  C   UNL     1      -4.913 -12.624   6.400  0.00  0.00    -0.019 C 
ATOM     13  C   UNL     1      -4.674 -12.232   4.875  0.00  0.00    +0.011 C 
ATOM     14  C   UNL     1      -4.044 -13.338   3.943  0.00  0.00    +0.021 C 
ATOM     15  C   UNL     1      -5.126 -11.274   7.227  0.00  0.00    +0.054 C 
ATOM     16  C   UNL     1      -3.653 -13.343   6.952  0.00  0.00    +0.010 C 
ATOM     17  C   UNL     1      -2.827 -13.985   4.664  0.00  0.00    +0.123 C 
ATOM     18  C   UNL     1      -5.924 -11.535   4.264  0.00  0.00    +0.049 C 
ATOM     19  C   UNL     1      -3.155 -14.478   6.069  0.00  0.00    +0.032 C 
ATOM     20  C   UNL     1      -6.139 -13.549   6.598  0.00  0.00    +0.012 C 
ATOM     21  C   UNL     1      -6.093 -10.355   6.526  0.00  0.00    +0.058 A 
ATOM     23  C   UNL     1      -3.509 -12.664   2.648  0.00  0.00    +0.016 C 
ATOM     24  C   UNL     1      -6.422 -10.479   5.192  0.00  0.00    +0.015 A 
ATOM     27  C   UNL     1      -7.454  -8.642   6.334  0.00  0.00    +0.167 A 
ATOM     30  C   UNL     1      -8.342  -6.837   7.783  0.00  0.00    +0.406 C 
ATOM     41  H   UNL     1      -8.752  -7.185   5.786  0.00  0.00    +0.160 HD
ENDROOT
BRANCH  17   2
ATOM      2  O   UNL     1      -2.314 -15.077   3.902  0.00  0.00    -0.391 OA
ATOM     38  H   UNL     1      -3.071 -15.544   3.510  0.00  0.00    +0.210 HD
ENDBRANCH  17   2
BRANCH  30   5
ATOM      5  O   UNL     1      -9.203  -5.785   7.611  0.00  0.00    -0.446 OA
BRANCH   5  35
ATOM     35  C   UNL     1     -10.171  -5.588   8.650  0.00  0.00    +0.261 C 
BRANCH  35  36
ATOM     36  C   UNL     1     -10.281  -4.127   8.933  0.00  0.00    +0.006 C 
ATOM     37  C   UNL     1     -11.368  -3.547   9.453  0.00  0.00    +0.007 C 
ENDBRANCH  35  36
ENDBRANCH   5  35
ENDBRANCH  30   5
BRANCH  14  22
ATOM     22  C   UNL     1      -5.040 -14.418   3.466  0.00  0.00    +0.165 C 
BRANCH  22   3
ATOM      3  O   UNL     1      -5.092 -14.368   2.059  0.00  0.00    -0.394 OA
ATOM     39  H   UNL     1      -4.814 -15.238   1.727  0.00  0.00    +0.209 HD
ENDBRANCH  22   3
ENDBRANCH  14  22
BRANCH  15  25
ATOM     25  C   UNL     1      -5.514 -11.482   8.698  0.00  0.00    +0.106 C 
BRANCH  25  26
ATOM      4  O   UNL     1      -3.895  -9.768   9.239  0.00  0.00    -0.276 OA
ATOM      9  N   UNL     1      -5.072 -10.814  10.948  0.00  0.00    -0.314 N 
ATOM     26  C   UNL     1      -4.727 -10.585   9.624  0.00  0.00    +0.214 C 
ATOM     40  H   UNL     1      -5.781 -11.509  11.164  0.00  0.00    +0.149 HD
BRANCH   9  28
ATOM     28  C   UNL     1      -4.475 -10.101  12.054  0.00  0.00    +0.119 C 
BRANCH  28  29
ATOM     29  C   UNL     1      -3.300 -10.871  12.636  0.00  0.00    +0.103 C 
BRANCH  29  11
ATOM      7  O   UNL     1      -2.635 -11.109  16.773  0.00  0.00    -0.377 OA
ATOM     11  N   UNL     1      -3.085 -10.493  14.031  0.00  0.00    -0.297 NA
ATOM     31  C   UNL     1      -1.779 -10.972  14.507  0.00  0.00    +0.112 C 
ATOM     32  C   UNL     1      -4.157 -11.021  14.886  0.00  0.00    +0.112 C 
ATOM     33  C   UNL     1      -1.583 -10.576  15.968  0.00  0.00    +0.175 C 
ATOM     34  C   UNL     1      -3.905 -10.623  16.338  0.00  0.00    +0.175 C 
ENDBRANCH  29  11
ENDBRANCH  28  29
ENDBRANCH   9  28
ENDBRANCH  25  26
ENDBRANCH  15  25
TORSDOF 11
ENDMDL
