MODEL 1
REMARK VINA RESULT:      -7.1      0.000      0.000
REMARK  Name = 38029028
REMARK  11 active torsions:
REMARK  status: ('A' for Active; 'I' for Inactive)
REMARK    1  A    between atoms: O_3  and  C_29
REMARK    2  A    between atoms: O_3  and  C_37
REMARK    3  A    between atoms: N_4  and  C_16
REMARK    4  A    between atoms: C_8  and  C_12
REMARK    5  A    between atoms: C_9  and  C_16
REMARK    6  A    between atoms: C_11  and  C_15
REMARK    7  A    between atoms: C_12  and  C_17
REMARK    8  A    between atoms: C_12  and  C_18
REMARK    9  A    between atoms: C_13  and  C_19
REMARK   10  A    between atoms: C_15  and  C_20
REMARK   11  A    between atoms: C_25  and  C_27
REMARK                            x       y       z     vdW  Elec       q    Type
REMARK                         _______ _______ _______ _____ _____    ______ ____
ROOT
ATOM      8  C   UNL     1      -6.938 -11.185  16.933  0.00  0.00    +0.000 C 
ATOM      9  C   UNL     1      -7.048 -11.405  18.462  0.00  0.00    +0.032 C 
ATOM     10  C   UNL     1      -5.868 -12.111  16.334  0.00  0.00    +0.012 C 
ATOM     11  C   UNL     1      -4.480 -11.879  16.961  0.00  0.00    +0.023 C 
ATOM     13  C   UNL     1      -4.549 -11.816  18.474  0.00  0.00    -0.073 C 
ATOM     14  C   UNL     1      -5.708 -11.616  19.128  0.00  0.00    -0.022 C 
ATOM     19  C   UNL     1      -3.263 -12.031  19.221  0.00  0.00    +0.039 C 
ENDROOT
BRANCH   8  12
ATOM     12  C   UNL     1      -8.278 -11.416  16.226  0.00  0.00    -0.013 C 
ATOM     17  C   UNL     1      -8.095 -11.376  14.712  0.00  0.00    +0.007 C 
ATOM     18  C   UNL     1      -8.887 -12.745  16.664  0.00  0.00    +0.007 C 
ENDBRANCH   8  12
BRANCH  11  15
ATOM     15  C   UNL     1      -3.817 -10.622  16.388  0.00  0.00    +0.103 C 
BRANCH  15  20
ATOM      1  O   UNL     1      -1.634 -11.353  15.806  0.00  0.00    -0.276 OA
ATOM      5  N   UNL     1      -3.103 -10.950  14.050  0.00  0.00    -0.298 N 
ATOM      6  N   UNL     1      -3.798 -11.069  11.243  0.00  0.00    -0.312 N 
ATOM      7  N   UNL     1      -4.574 -10.044   9.262  0.00  0.00    -0.240 NA
ATOM     20  C   UNL     1      -2.747 -11.011  15.399  0.00  0.00    +0.216 C 
ATOM     21  C   UNL     1      -2.121 -11.307  13.030  0.00  0.00    +0.126 C 
ATOM     22  C   UNL     1      -4.429 -10.555  13.569  0.00  0.00    +0.126 C 
ATOM     23  C   UNL     1      -2.774 -11.952  11.809  0.00  0.00    +0.125 C 
ATOM     24  C   UNL     1      -4.411 -10.069  12.120  0.00  0.00    +0.125 C 
ATOM     26  C   UNL     1      -4.148 -11.158   9.898  0.00  0.00    +0.121 A 
ATOM     28  C   UNL     1      -4.035 -12.401   9.294  0.00  0.00    +0.043 A 
ATOM     31  C   UNL     1      -4.382 -12.506   7.952  0.00  0.00    +0.005 A 
ATOM     33  C   UNL     1      -4.903 -10.185   7.959  0.00  0.00    +0.113 A 
ATOM     35  C   UNL     1      -4.824 -11.382   7.264  0.00  0.00    +0.020 A 
ENDBRANCH  15  20
ENDBRANCH  11  15
BRANCH   9  16
ATOM     16  C   UNL     1      -7.775 -10.236  19.138  0.00  0.00    +0.112 C 
BRANCH  16   4
ATOM      2  O   UNL     1     -10.409  -9.488  18.277  0.00  0.00    -0.270 OA
ATOM      4  N   UNL     1      -9.013 -10.669  19.706  0.00  0.00    -0.311 N 
ATOM     25  C   UNL     1     -10.255 -10.255  19.223  0.00  0.00    +0.248 C 
ATOM     38  H   UNL     1      -8.963 -11.300  20.498  0.00  0.00    +0.149 HD
BRANCH  25  27
ATOM     27  C   UNL     1     -11.448 -10.776  19.939  0.00  0.00    +0.078 A 
ATOM     29  C   UNL     1     -11.576 -12.137  20.219  0.00  0.00    +0.132 A 
ATOM     30  C   UNL     1     -12.447  -9.886  20.330  0.00  0.00    +0.017 A 
ATOM     32  C   UNL     1     -12.704 -12.607  20.892  0.00  0.00    +0.046 A 
ATOM     34  C   UNL     1     -13.576 -10.357  21.002  0.00  0.00    +0.001 A 
ATOM     36  C   UNL     1     -13.704 -11.716  21.283  0.00  0.00    +0.004 A 
BRANCH  29   3
ATOM      3  O   UNL     1     -10.611 -13.023  19.843  0.00  0.00    -0.494 OA
ATOM     37  C   UNL     1     -10.075 -13.867  20.860  0.00  0.00    +0.277 C 
ENDBRANCH  29   3
ENDBRANCH  25  27
ENDBRANCH  16   4
ENDBRANCH   9  16
TORSDOF 7
ENDMDL
MODEL 2
REMARK VINA RESULT:      -7.0     28.302     31.502
REMARK  Name = 38029028
REMARK  11 active torsions:
REMARK  status: ('A' for Active; 'I' for Inactive)
REMARK    1  A    between atoms: O_3  and  C_29
REMARK    2  A    between atoms: O_3  and  C_37
REMARK    3  A    between atoms: N_4  and  C_16
REMARK    4  A    between atoms: C_8  and  C_12
REMARK    5  A    between atoms: C_9  and  C_16
REMARK    6  A    between atoms: C_11  and  C_15
REMARK    7  A    between atoms: C_12  and  C_17
REMARK    8  A    between atoms: C_12  and  C_18
REMARK    9  A    between atoms: C_13  and  C_19
REMARK   10  A    between atoms: C_15  and  C_20
REMARK   11  A    between atoms: C_25  and  C_27
REMARK                            x       y       z     vdW  Elec       q    Type
REMARK                         _______ _______ _______ _____ _____    ______ ____
ROOT
ATOM      8  C   UNL     1      13.147   9.158  20.398  0.00  0.00    +0.000 C 
ATOM      9  C   UNL     1      12.498   7.954  19.670  0.00  0.00    +0.032 C 
ATOM     10  C   UNL     1      12.746  10.476  19.716  0.00  0.00    +0.012 C 
ATOM     11  C   UNL     1      13.167  10.516  18.235  0.00  0.00    +0.023 C 
ATOM     13  C   UNL     1      12.795   9.240  17.509  0.00  0.00    -0.073 C 
ATOM     14  C   UNL     1      12.487   8.107  18.167  0.00  0.00    -0.022 C 
ATOM     19  C   UNL     1      12.743   9.304  16.008  0.00  0.00    +0.039 C 
ENDROOT
BRANCH   8  12
ATOM     12  C   UNL     1      12.761   9.203  21.880  0.00  0.00    -0.013 C 
ATOM     17  C   UNL     1      13.245  10.502  22.517  0.00  0.00    +0.007 C 
ATOM     18  C   UNL     1      11.253   9.049  22.041  0.00  0.00    +0.007 C 
ENDBRANCH   8  12
BRANCH  11  15
ATOM     15  C   UNL     1      14.664  10.814  18.093  0.00  0.00    +0.103 C 
BRANCH  15  20
ATOM      1  O   UNL     1      14.609  13.179  18.300  0.00  0.00    -0.276 OA
ATOM      5  N   UNL     1      15.326  12.325  16.261  0.00  0.00    -0.298 N 
ATOM      6  N   UNL     1      16.490  12.669  13.633  0.00  0.00    -0.312 N 
ATOM      7  N   UNL     1      16.454  12.326  11.297  0.00  0.00    -0.240 NA
ATOM     20  C   UNL     1      14.861  12.215  17.572  0.00  0.00    +0.216 C 
ATOM     21  C   UNL     1      15.538  13.649  15.681  0.00  0.00    +0.126 C 
ATOM     22  C   UNL     1      15.636  11.181  15.401  0.00  0.00    +0.126 C 
ATOM     23  C   UNL     1      16.702  13.660  14.692  0.00  0.00    +0.125 C 
ATOM     24  C   UNL     1      15.610  11.533  13.914  0.00  0.00    +0.125 C 
ATOM     26  C   UNL     1      17.084  12.827  12.383  0.00  0.00    +0.121 A 
ATOM     28  C   UNL     1      18.296  13.496  12.336  0.00  0.00    +0.043 A 
ATOM     31  C   UNL     1      18.902  13.661  11.096  0.00  0.00    +0.005 A 
ATOM     33  C   UNL     1      17.072  12.506  10.108  0.00  0.00    +0.113 A 
ATOM     35  C   UNL     1      18.284  13.160   9.955  0.00  0.00    +0.020 A 
ENDBRANCH  15  20
ENDBRANCH  11  15
BRANCH   9  16
ATOM     16  C   UNL     1      13.196   6.641  20.045  0.00  0.00    +0.112 C 
BRANCH  16   4
ATOM      2  O   UNL     1      15.535   6.372  18.403  0.00  0.00    -0.270 OA
ATOM      4  N   UNL     1      14.548   6.880  20.440  0.00  0.00    -0.311 N 
ATOM     25  C   UNL     1      15.631   6.725  19.574  0.00  0.00    +0.248 C 
ATOM     38  H   UNL     1      14.706   7.168  21.400  0.00  0.00    +0.149 HD
BRANCH  25  27
ATOM     27  C   UNL     1      16.976   6.988  20.146  0.00  0.00    +0.078 A 
ATOM     29  C   UNL     1      17.241   8.174  20.833  0.00  0.00    +0.132 A 
ATOM     30  C   UNL     1      17.980   6.034  19.988  0.00  0.00    +0.017 A 
ATOM     32  C   UNL     1      18.511   8.403  21.362  0.00  0.00    +0.046 A 
ATOM     34  C   UNL     1      19.251   6.264  20.517  0.00  0.00    +0.001 A 
ATOM     36  C   UNL     1      19.516   7.448  21.204  0.00  0.00    +0.004 A 
BRANCH  29   3
ATOM      3  O   UNL     1      16.274   9.119  20.996  0.00  0.00    -0.494 OA
ATOM     37  C   UNL     1      16.706  10.474  21.104  0.00  0.00    +0.277 C 
ENDBRANCH  29   3
ENDBRANCH  25  27
ENDBRANCH  16   4
ENDBRANCH   9  16
TORSDOF 7
ENDMDL
MODEL 3
REMARK VINA RESULT:      -7.0     26.360     30.964
REMARK  Name = 38029028
REMARK  11 active torsions:
REMARK  status: ('A' for Active; 'I' for Inactive)
REMARK    1  A    between atoms: O_3  and  C_29
REMARK    2  A    between atoms: O_3  and  C_37
REMARK    3  A    between atoms: N_4  and  C_16
REMARK    4  A    between atoms: C_8  and  C_12
REMARK    5  A    between atoms: C_9  and  C_16
REMARK    6  A    between atoms: C_11  and  C_15
REMARK    7  A    between atoms: C_12  and  C_17
REMARK    8  A    between atoms: C_12  and  C_18
REMARK    9  A    between atoms: C_13  and  C_19
REMARK   10  A    between atoms: C_15  and  C_20
REMARK   11  A    between atoms: C_25  and  C_27
REMARK                            x       y       z     vdW  Elec       q    Type
REMARK                         _______ _______ _______ _____ _____    ______ ____
ROOT
ATOM      8  C   UNL     1      10.299   7.295   6.125  0.00  0.00    +0.000 C 
ATOM      9  C   UNL     1       9.438   7.952   5.018  0.00  0.00    +0.032 C 
ATOM     10  C   UNL     1      11.048   8.369   6.930  0.00  0.00    +0.012 C 
ATOM     11  C   UNL     1      11.969   9.226   6.040  0.00  0.00    +0.023 C 
ATOM     13  C   UNL     1      11.262   9.692   4.783  0.00  0.00    -0.073 C 
ATOM     14  C   UNL     1      10.125   9.119   4.348  0.00  0.00    -0.022 C 
ATOM     19  C   UNL     1      11.868  10.862   4.059  0.00  0.00    +0.039 C 
ENDROOT
BRANCH   8  12
ATOM     12  C   UNL     1       9.452   6.437   7.071  0.00  0.00    -0.013 C 
ATOM     17  C   UNL     1      10.324   5.402   7.776  0.00  0.00    +0.007 C 
ATOM     18  C   UNL     1       8.730   7.317   8.085  0.00  0.00    +0.007 C 
ENDBRANCH   8  12
BRANCH  11  15
ATOM     15  C   UNL     1      13.261   8.476   5.698  0.00  0.00    +0.103 C 
BRANCH  15  20
ATOM      1  O   UNL     1      14.312  10.206   6.940  0.00  0.00    -0.276 OA
ATOM      5  N   UNL     1      15.676   8.950   5.539  0.00  0.00    -0.298 N 
ATOM      6  N   UNL     1      18.290   8.185   4.558  0.00  0.00    -0.312 N 
ATOM      7  N   UNL     1      19.798   7.798   2.782  0.00  0.00    -0.240 NA
ATOM     20  C   UNL     1      14.456   9.293   6.123  0.00  0.00    +0.216 C 
ATOM     21  C   UNL     1      16.880   9.697   5.896  0.00  0.00    +0.126 C 
ATOM     22  C   UNL     1      15.848   7.858   4.578  0.00  0.00    +0.126 C 
ATOM     23  C   UNL     1      18.127   8.815   5.872  0.00  0.00    +0.125 C 
ATOM     24  C   UNL     1      17.102   8.019   3.719  0.00  0.00    +0.125 C 
ATOM     26  C   UNL     1      19.549   7.790   4.111  0.00  0.00    +0.121 A 
ATOM     28  C   UNL     1      20.473   7.410   5.072  0.00  0.00    +0.043 A 
ATOM     31  C   UNL     1      21.733   7.012   4.640  0.00  0.00    +0.005 A 
ATOM     33  C   UNL     1      21.034   7.405   2.401  0.00  0.00    +0.113 A 
ATOM     35  C   UNL     1      22.027   7.008   3.281  0.00  0.00    +0.020 A 
ENDBRANCH  15  20
ENDBRANCH  11  15
BRANCH   9  16
ATOM     16  C   UNL     1       9.026   6.924   3.956  0.00  0.00    +0.112 C 
BRANCH  16   4
ATOM      2  O   UNL     1      10.264   4.346   4.196  0.00  0.00    -0.270 OA
ATOM      4  N   UNL     1      10.167   6.456   3.235  0.00  0.00    -0.311 N 
ATOM     25  C   UNL     1      10.707   5.182   3.413  0.00  0.00    +0.248 C 
ATOM     38  H   UNL     1      10.593   7.097   2.574  0.00  0.00    +0.149 HD
BRANCH  25  27
ATOM     27  C   UNL     1      11.910   4.856   2.605  0.00  0.00    +0.078 A 
ATOM     29  C   UNL     1      12.870   5.830   2.327  0.00  0.00    +0.132 A 
ATOM     30  C   UNL     1      12.072   3.558   2.121  0.00  0.00    +0.017 A 
ATOM     32  C   UNL     1      13.992   5.504   1.566  0.00  0.00    +0.046 A 
ATOM     34  C   UNL     1      13.195   3.233   1.359  0.00  0.00    +0.001 A 
ATOM     36  C   UNL     1      14.155   4.206   1.081  0.00  0.00    +0.004 A 
BRANCH  29   3
ATOM      3  O   UNL     1      12.728   7.104   2.789  0.00  0.00    -0.494 OA
ATOM     37  C   UNL     1      13.187   8.154   1.941  0.00  0.00    +0.277 C 
ENDBRANCH  29   3
ENDBRANCH  25  27
ENDBRANCH  16   4
ENDBRANCH   9  16
TORSDOF 7
ENDMDL
MODEL 4
REMARK VINA RESULT:      -6.9      3.028      4.484
REMARK  Name = 38029028
REMARK  11 active torsions:
REMARK  status: ('A' for Active; 'I' for Inactive)
REMARK    1  A    between atoms: O_3  and  C_29
REMARK    2  A    between atoms: O_3  and  C_37
REMARK    3  A    between atoms: N_4  and  C_16
REMARK    4  A    between atoms: C_8  and  C_12
REMARK    5  A    between atoms: C_9  and  C_16
REMARK    6  A    between atoms: C_11  and  C_15
REMARK    7  A    between atoms: C_12  and  C_17
REMARK    8  A    between atoms: C_12  and  C_18
REMARK    9  A    between atoms: C_13  and  C_19
REMARK   10  A    between atoms: C_15  and  C_20
REMARK   11  A    between atoms: C_25  and  C_27
REMARK                            x       y       z     vdW  Elec       q    Type
REMARK                         _______ _______ _______ _____ _____    ______ ____
ROOT
ATOM      8  C   UNL     1      -4.925 -12.364  15.972  0.00  0.00    +0.000 C 
ATOM      9  C   UNL     1      -4.105 -11.792  17.154  0.00  0.00    +0.032 C 
ATOM     10  C   UNL     1      -3.998 -12.716  14.797  0.00  0.00    +0.012 C 
ATOM     11  C   UNL     1      -3.205 -11.495  14.295  0.00  0.00    +0.023 C 
ATOM     13  C   UNL     1      -2.583 -10.719  15.438  0.00  0.00    -0.073 C 
ATOM     14  C   UNL     1      -2.989 -10.874  16.711  0.00  0.00    -0.022 C 
ATOM     19  C   UNL     1      -1.452  -9.791  15.091  0.00  0.00    +0.039 C 
ENDROOT
BRANCH   8  12
ATOM     12  C   UNL     1      -5.732 -13.600  16.384  0.00  0.00    -0.013 C 
ATOM     17  C   UNL     1      -6.405 -14.227  15.167  0.00  0.00    +0.007 C 
ATOM     18  C   UNL     1      -4.833 -14.612  17.086  0.00  0.00    +0.007 C 
ENDBRANCH   8  12
BRANCH  11  15
ATOM     15  C   UNL     1      -4.082 -10.586  13.426  0.00  0.00    +0.103 C 
BRANCH  15  20
ATOM      1  O   UNL     1      -2.265 -10.703  11.900  0.00  0.00    -0.276 OA
ATOM      5  N   UNL     1      -4.290  -9.933  11.057  0.00  0.00    -0.298 N 
ATOM      6  N   UNL     1      -5.983  -9.141   8.846  0.00  0.00    -0.312 N 
ATOM      7  N   UNL     1      -7.457  -7.608   7.820  0.00  0.00    -0.240 NA
ATOM     20  C   UNL     1      -3.455 -10.418  12.064  0.00  0.00    +0.216 C 
ATOM     21  C   UNL     1      -3.756  -9.738   9.711  0.00  0.00    +0.126 C 
ATOM     22  C   UNL     1      -5.704  -9.606  11.250  0.00  0.00    +0.126 C 
ATOM     23  C   UNL     1      -4.810  -9.995   8.636  0.00  0.00    +0.125 C 
ATOM     24  C   UNL     1      -6.236  -8.634  10.197  0.00  0.00    +0.125 C 
ATOM     26  C   UNL     1      -6.810  -8.794   7.781  0.00  0.00    +0.121 A 
ATOM     28  C   UNL     1      -6.914  -9.701   6.738  0.00  0.00    +0.043 A 
ATOM     31  C   UNL     1      -7.737  -9.369   5.667  0.00  0.00    +0.005 A 
ATOM     33  C   UNL     1      -8.247  -7.320   6.762  0.00  0.00    +0.113 A 
ATOM     35  C   UNL     1      -8.419  -8.158   5.671  0.00  0.00    +0.020 A 
ENDBRANCH  15  20
ENDBRANCH  11  15
BRANCH   9  16
ATOM     16  C   UNL     1      -5.009 -11.053  18.148  0.00  0.00    +0.112 C 
BRANCH  16   4
ATOM      2  O   UNL     1      -7.766 -10.834  18.918  0.00  0.00    -0.270 OA
ATOM      4  N   UNL     1      -6.032 -10.329  17.461  0.00  0.00    -0.311 N 
ATOM     25  C   UNL     1      -7.353 -10.274  17.907  0.00  0.00    +0.248 C 
ATOM     38  H   UNL     1      -5.766  -9.846  16.609  0.00  0.00    +0.149 HD
BRANCH  25  27
ATOM     27  C   UNL     1      -8.302  -9.500  17.066  0.00  0.00    +0.078 A 
ATOM     29  C   UNL     1      -8.368  -9.707  15.687  0.00  0.00    +0.132 A 
ATOM     30  C   UNL     1      -9.130  -8.555  17.670  0.00  0.00    +0.017 A 
ATOM     32  C   UNL     1      -9.265  -8.969  14.915  0.00  0.00    +0.046 A 
ATOM     34  C   UNL     1     -10.026  -7.817  16.897  0.00  0.00    +0.001 A 
ATOM     36  C   UNL     1     -10.094  -8.023  15.520  0.00  0.00    +0.004 A 
BRANCH  29   3
ATOM      3  O   UNL     1      -7.565 -10.624  15.078  0.00  0.00    -0.494 OA
ATOM     37  C   UNL     1      -8.042 -11.194  13.861  0.00  0.00    +0.277 C 
ENDBRANCH  29   3
ENDBRANCH  25  27
ENDBRANCH  16   4
ENDBRANCH   9  16
TORSDOF 7
ENDMDL
MODEL 5
REMARK VINA RESULT:      -6.8     26.601     30.869
REMARK  Name = 38029028
REMARK  11 active torsions:
REMARK  status: ('A' for Active; 'I' for Inactive)
REMARK    1  A    between atoms: O_3  and  C_29
REMARK    2  A    between atoms: O_3  and  C_37
REMARK    3  A    between atoms: N_4  and  C_16
REMARK    4  A    between atoms: C_8  and  C_12
REMARK    5  A    between atoms: C_9  and  C_16
REMARK    6  A    between atoms: C_11  and  C_15
REMARK    7  A    between atoms: C_12  and  C_17
REMARK    8  A    between atoms: C_12  and  C_18
REMARK    9  A    between atoms: C_13  and  C_19
REMARK   10  A    between atoms: C_15  and  C_20
REMARK   11  A    between atoms: C_25  and  C_27
REMARK                            x       y       z     vdW  Elec       q    Type
REMARK                         _______ _______ _______ _____ _____    ______ ____
ROOT
ATOM      8  C   UNL     1      11.015   6.813   5.612  0.00  0.00    +0.000 C 
ATOM      9  C   UNL     1       9.735   6.044   5.200  0.00  0.00    +0.032 C 
ATOM     10  C   UNL     1      10.692   8.294   5.868  0.00  0.00    +0.012 C 
ATOM     11  C   UNL     1      10.088   8.980   4.629  0.00  0.00    +0.023 C 
ATOM     13  C   UNL     1       8.988   8.147   4.003  0.00  0.00    -0.073 C 
ATOM     14  C   UNL     1       8.838   6.839   4.280  0.00  0.00    -0.022 C 
ATOM     19  C   UNL     1       8.036   8.860   3.085  0.00  0.00    +0.039 C 
ENDROOT
BRANCH   8  12
ATOM     12  C   UNL     1      11.671   6.204   6.855  0.00  0.00    -0.013 C 
ATOM     17  C   UNL     1      12.960   6.945   7.196  0.00  0.00    +0.007 C 
ATOM     18  C   UNL     1      10.703   6.230   8.034  0.00  0.00    +0.007 C 
ENDBRANCH   8  12
BRANCH  11  15
ATOM     15  C   UNL     1      11.173   9.320   3.601  0.00  0.00    +0.103 C 
BRANCH  15  20
ATOM      1  O   UNL     1      11.705  11.435   4.541  0.00  0.00    -0.276 OA
ATOM      5  N   UNL     1      13.466   9.944   4.260  0.00  0.00    -0.298 N 
ATOM      6  N   UNL     1      16.222   9.162   4.677  0.00  0.00    -0.312 N 
ATOM      7  N   UNL     1      18.298   8.395   3.853  0.00  0.00    -0.240 NA
ATOM     20  C   UNL     1      12.128  10.334   4.179  0.00  0.00    +0.216 C 
ATOM     21  C   UNL     1      14.454  10.872   4.804  0.00  0.00    +0.126 C 
ATOM     22  C   UNL     1      13.965   8.633   3.840  0.00  0.00    +0.126 C 
ATOM     23  C   UNL     1      15.571  10.144   5.550  0.00  0.00    +0.125 C 
ATOM     24  C   UNL     1      15.464   8.640   3.538  0.00  0.00    +0.125 C 
ATOM     26  C   UNL     1      17.538   8.768   4.907  0.00  0.00    +0.121 A 
ATOM     28  C   UNL     1      17.984   8.785   6.219  0.00  0.00    +0.043 A 
ATOM     31  C   UNL     1      19.295   8.393   6.465  0.00  0.00    +0.005 A 
ATOM     33  C   UNL     1      19.567   8.021   4.131  0.00  0.00    +0.113 A 
ATOM     35  C   UNL     1      20.109   8.003   5.407  0.00  0.00    +0.020 A 
ENDBRANCH  15  20
ENDBRANCH  11  15
BRANCH   9  16
ATOM     16  C   UNL     1      10.084   4.704   4.541  0.00  0.00    +0.112 C 
BRANCH  16   4
ATOM      2  O   UNL     1      10.457   3.850   1.826  0.00  0.00    -0.270 OA
ATOM      4  N   UNL     1      11.281   4.815   3.769  0.00  0.00    -0.311 N 
ATOM     25  C   UNL     1      11.376   4.372   2.449  0.00  0.00    +0.248 C 
ATOM     38  H   UNL     1      12.088   5.231   4.222  0.00  0.00    +0.149 HD
BRANCH  25  27
ATOM     27  C   UNL     1      12.698   4.537   1.792  0.00  0.00    +0.078 A 
ATOM     29  C   UNL     1      13.092   5.773   1.277  0.00  0.00    +0.132 A 
ATOM     30  C   UNL     1      13.548   3.436   1.691  0.00  0.00    +0.017 A 
ATOM     32  C   UNL     1      14.337   5.906   0.663  0.00  0.00    +0.046 A 
ATOM     34  C   UNL     1      14.793   3.570   1.076  0.00  0.00    +0.001 A 
ATOM     36  C   UNL     1      15.188   4.805   0.562  0.00  0.00    +0.004 A 
BRANCH  29   3
ATOM      3  O   UNL     1      12.274   6.859   1.364  0.00  0.00    -0.494 OA
ATOM     37  C   UNL     1      12.427   7.864   0.363  0.00  0.00    +0.277 C 
ENDBRANCH  29   3
ENDBRANCH  25  27
ENDBRANCH  16   4
ENDBRANCH   9  16
TORSDOF 7
ENDMDL
MODEL 6
REMARK VINA RESULT:      -6.8      3.681      6.892
REMARK  Name = 38029028
REMARK  11 active torsions:
REMARK  status: ('A' for Active; 'I' for Inactive)
REMARK    1  A    between atoms: O_3  and  C_29
REMARK    2  A    between atoms: O_3  and  C_37
REMARK    3  A    between atoms: N_4  and  C_16
REMARK    4  A    between atoms: C_8  and  C_12
REMARK    5  A    between atoms: C_9  and  C_16
REMARK    6  A    between atoms: C_11  and  C_15
REMARK    7  A    between atoms: C_12  and  C_17
REMARK    8  A    between atoms: C_12  and  C_18
REMARK    9  A    between atoms: C_13  and  C_19
REMARK   10  A    between atoms: C_15  and  C_20
REMARK   11  A    between atoms: C_25  and  C_27
REMARK                            x       y       z     vdW  Elec       q    Type
REMARK                         _______ _______ _______ _____ _____    ______ ____
ROOT
ATOM      8  C   UNL     1      -2.751 -12.804  13.373  0.00  0.00    +0.000 C 
ATOM      9  C   UNL     1      -1.842 -11.565  13.567  0.00  0.00    +0.032 C 
ATOM     10  C   UNL     1      -2.883 -13.142  11.880  0.00  0.00    +0.012 C 
ATOM     11  C   UNL     1      -3.473 -11.973  11.069  0.00  0.00    +0.023 C 
ATOM     13  C   UNL     1      -2.802 -10.658  11.406  0.00  0.00    -0.073 C 
ATOM     14  C   UNL     1      -2.066 -10.497  12.522  0.00  0.00    -0.022 C 
ATOM     19  C   UNL     1      -2.958  -9.542  10.412  0.00  0.00    +0.039 C 
ENDROOT
BRANCH   8  12
ATOM     12  C   UNL     1      -2.221 -14.023  14.135  0.00  0.00    -0.013 C 
ATOM     17  C   UNL     1      -3.368 -14.957  14.510  0.00  0.00    +0.007 C 
ATOM     18  C   UNL     1      -1.175 -14.758  13.303  0.00  0.00    +0.007 C 
ENDBRANCH   8  12
BRANCH  11  15
ATOM     15  C   UNL     1      -4.991 -11.880  11.257  0.00  0.00    +0.103 C 
BRANCH  15  20
ATOM      1  O   UNL     1      -5.506 -12.876   9.164  0.00  0.00    -0.276 OA
ATOM      5  N   UNL     1      -6.481 -10.813   9.606  0.00  0.00    -0.298 N 
ATOM      6  N   UNL     1      -8.339  -8.691   8.955  0.00  0.00    -0.312 N 
ATOM      7  N   UNL     1      -8.825  -6.407   8.604  0.00  0.00    -0.240 NA
ATOM     20  C   UNL     1      -5.679 -11.912   9.915  0.00  0.00    +0.216 C 
ATOM     21  C   UNL     1      -7.177 -10.768   8.323  0.00  0.00    +0.126 C 
ATOM     22  C   UNL     1      -6.693  -9.675  10.503  0.00  0.00    +0.126 C 
ATOM     23  C   UNL     1      -8.519 -10.046   8.426  0.00  0.00    +0.125 C 
ATOM     24  C   UNL     1      -7.150  -8.417   9.764  0.00  0.00    +0.125 C 
ATOM     26  C   UNL     1      -9.258  -7.686   8.663  0.00  0.00    +0.121 A 
ATOM     28  C   UNL     1     -10.572  -8.071   8.449  0.00  0.00    +0.043 A 
ATOM     31  C   UNL     1     -11.502  -7.079   8.158  0.00  0.00    +0.005 A 
ATOM     33  C   UNL     1      -9.756  -5.470   8.318  0.00  0.00    +0.113 A 
ATOM     35  C   UNL     1     -11.094  -5.751   8.088  0.00  0.00    +0.020 A 
ENDBRANCH  15  20
ENDBRANCH  11  15
BRANCH   9  16
ATOM     16  C   UNL     1      -2.027 -10.958  14.964  0.00  0.00    +0.112 C 
BRANCH  16   4
ATOM      2  O   UNL     1      -4.008 -12.159  16.658  0.00  0.00    -0.270 OA
ATOM      4  N   UNL     1      -3.373 -10.514  15.150  0.00  0.00    -0.311 N 
ATOM     25  C   UNL     1      -4.274 -11.160  15.997  0.00  0.00    +0.248 C 
ATOM     38  H   UNL     1      -3.667  -9.696  14.628  0.00  0.00    +0.149 HD
BRANCH  25  27
ATOM     27  C   UNL     1      -5.644 -10.589  16.061  0.00  0.00    +0.078 A 
ATOM     29  C   UNL     1      -6.197 -10.192  17.279  0.00  0.00    +0.132 A 
ATOM     30  C   UNL     1      -6.379 -10.454  14.884  0.00  0.00    +0.017 A 
ATOM     32  C   UNL     1      -7.485  -9.659  17.318  0.00  0.00    +0.046 A 
ATOM     34  C   UNL     1      -7.668  -9.922  14.924  0.00  0.00    +0.001 A 
ATOM     36  C   UNL     1      -8.221  -9.524  16.140  0.00  0.00    +0.004 A 
BRANCH  29   3
ATOM      3  O   UNL     1      -5.495 -10.318  18.440  0.00  0.00    -0.494 OA
ATOM     37  C   UNL     1      -6.236 -10.666  19.608  0.00  0.00    +0.277 C 
ENDBRANCH  29   3
ENDBRANCH  25  27
ENDBRANCH  16   4
ENDBRANCH   9  16
TORSDOF 7
ENDMDL
MODEL 7
REMARK VINA RESULT:      -6.8     26.246     31.027
REMARK  Name = 38029028
REMARK  11 active torsions:
REMARK  status: ('A' for Active; 'I' for Inactive)
REMARK    1  A    between atoms: O_3  and  C_29
REMARK    2  A    between atoms: O_3  and  C_37
REMARK    3  A    between atoms: N_4  and  C_16
REMARK    4  A    between atoms: C_8  and  C_12
REMARK    5  A    between atoms: C_9  and  C_16
REMARK    6  A    between atoms: C_11  and  C_15
REMARK    7  A    between atoms: C_12  and  C_17
REMARK    8  A    between atoms: C_12  and  C_18
REMARK    9  A    between atoms: C_13  and  C_19
REMARK   10  A    between atoms: C_15  and  C_20
REMARK   11  A    between atoms: C_25  and  C_27
REMARK                            x       y       z     vdW  Elec       q    Type
REMARK                         _______ _______ _______ _____ _____    ______ ____
ROOT
ATOM      8  C   UNL     1      10.580   6.687   6.246  0.00  0.00    +0.000 C 
ATOM      9  C   UNL     1      10.388   6.517   4.718  0.00  0.00    +0.032 C 
ATOM     10  C   UNL     1      10.816   8.165   6.595  0.00  0.00    +0.012 C 
ATOM     11  C   UNL     1      12.054   8.741   5.881  0.00  0.00    +0.023 C 
ATOM     13  C   UNL     1      12.072   8.383   4.409  0.00  0.00    -0.073 C 
ATOM     14  C   UNL     1      11.311   7.394   3.905  0.00  0.00    -0.022 C 
ATOM     19  C   UNL     1      12.951   9.217   3.520  0.00  0.00    +0.039 C 
ENDROOT
BRANCH   8  12
ATOM     12  C   UNL     1       9.378   6.154   7.033  0.00  0.00    -0.013 C 
ATOM     17  C   UNL     1       9.803   5.003   7.939  0.00  0.00    +0.007 C 
ATOM     18  C   UNL     1       8.737   7.274   7.846  0.00  0.00    +0.007 C 
ENDBRANCH   8  12
BRANCH  11  15
ATOM     15  C   UNL     1      13.347   8.296   6.571  0.00  0.00    +0.103 C 
BRANCH  15  20
ATOM      1  O   UNL     1      14.056  10.521   7.002  0.00  0.00    -0.276 OA
ATOM      5  N   UNL     1      15.596   9.115   5.975  0.00  0.00    -0.298 N 
ATOM      6  N   UNL     1      18.268   8.542   5.019  0.00  0.00    -0.312 N 
ATOM      7  N   UNL     1      19.744   7.820   3.324  0.00  0.00    -0.240 NA
ATOM     20  C   UNL     1      14.357   9.416   6.542  0.00  0.00    +0.216 C 
ATOM     21  C   UNL     1      16.625  10.149   5.905  0.00  0.00    +0.126 C 
ATOM     22  C   UNL     1      15.955   7.801   5.439  0.00  0.00    +0.126 C 
ATOM     23  C   UNL     1      18.031   9.566   6.041  0.00  0.00    +0.125 C 
ATOM     24  C   UNL     1      17.107   7.865   4.436  0.00  0.00    +0.125 C 
ATOM     26  C   UNL     1      19.561   8.250   4.592  0.00  0.00    +0.121 A 
ATOM     28  C   UNL     1      20.586   8.423   5.509  0.00  0.00    +0.043 A 
ATOM     31  C   UNL     1      21.882   8.135   5.097  0.00  0.00    +0.005 A 
ATOM     33  C   UNL     1      21.017   7.550   2.960  0.00  0.00    +0.113 A 
ATOM     35  C   UNL     1      22.111   7.691   3.800  0.00  0.00    +0.020 A 
ENDBRANCH  15  20
ENDBRANCH  11  15
BRANCH   9  16
ATOM     16  C   UNL     1      10.573   5.054   4.298  0.00  0.00    +0.112 C 
BRANCH  16   4
ATOM      2  O   UNL     1      11.236   2.663   2.854  0.00  0.00    -0.270 OA
ATOM      4  N   UNL     1      11.402   4.961   3.137  0.00  0.00    -0.311 N 
ATOM     25  C   UNL     1      11.673   3.753   2.494  0.00  0.00    +0.248 C 
ATOM     38  H   UNL     1      11.806   5.822   2.786  0.00  0.00    +0.149 HD
BRANCH  25  27
ATOM     27  C   UNL     1      12.574   3.821   1.315  0.00  0.00    +0.078 A 
ATOM     29  C   UNL     1      12.054   3.926   0.024  0.00  0.00    +0.132 A 
ATOM     30  C   UNL     1      13.953   3.777   1.510  0.00  0.00    +0.017 A 
ATOM     32  C   UNL     1      12.916   3.988  -1.071  0.00  0.00    +0.046 A 
ATOM     34  C   UNL     1      14.815   3.839   0.415  0.00  0.00    +0.001 A 
ATOM     36  C   UNL     1      14.297   3.944  -0.876  0.00  0.00    +0.004 A 
BRANCH  29   3
ATOM      3  O   UNL     1      10.708   3.968  -0.188  0.00  0.00    -0.494 OA
ATOM     37  C   UNL     1      10.159   5.214  -0.609  0.00  0.00    +0.277 C 
ENDBRANCH  29   3
ENDBRANCH  25  27
ENDBRANCH  16   4
ENDBRANCH   9  16
TORSDOF 7
ENDMDL
MODEL 8
REMARK VINA RESULT:      -6.8     19.684     21.875
REMARK  Name = 38029028
REMARK  11 active torsions:
REMARK  status: ('A' for Active; 'I' for Inactive)
REMARK    1  A    between atoms: O_3  and  C_29
REMARK    2  A    between atoms: O_3  and  C_37
REMARK    3  A    between atoms: N_4  and  C_16
REMARK    4  A    between atoms: C_8  and  C_12
REMARK    5  A    between atoms: C_9  and  C_16
REMARK    6  A    between atoms: C_11  and  C_15
REMARK    7  A    between atoms: C_12  and  C_17
REMARK    8  A    between atoms: C_12  and  C_18
REMARK    9  A    between atoms: C_13  and  C_19
REMARK   10  A    between atoms: C_15  and  C_20
REMARK   11  A    between atoms: C_25  and  C_27
REMARK                            x       y       z     vdW  Elec       q    Type
REMARK                         _______ _______ _______ _____ _____    ______ ____
ROOT
ATOM      8  C   UNL     1     -12.721   8.355  20.243  0.00  0.00    +0.000 C 
ATOM      9  C   UNL     1     -12.008   9.494  21.013  0.00  0.00    +0.032 C 
ATOM     10  C   UNL     1     -11.806   7.798  19.141  0.00  0.00    +0.012 C 
ATOM     11  C   UNL     1     -11.388   8.882  18.130  0.00  0.00    +0.023 C 
ATOM     13  C   UNL     1     -10.921  10.147  18.821  0.00  0.00    -0.073 C 
ATOM     14  C   UNL     1     -11.197  10.398  20.114  0.00  0.00    -0.022 C 
ATOM     19  C   UNL     1     -10.091  11.099  18.005  0.00  0.00    +0.039 C 
ENDROOT
BRANCH   8  12
ATOM     12  C   UNL     1     -13.154   7.220  21.178  0.00  0.00    -0.013 C 
ATOM     17  C   UNL     1     -14.508   6.664  20.748  0.00  0.00    +0.007 C 
ATOM     18  C   UNL     1     -12.099   6.120  21.203  0.00  0.00    +0.007 C 
ENDBRANCH   8  12
BRANCH  11  15
ATOM     15  C   UNL     1     -12.519   9.182  17.140  0.00  0.00    +0.103 C 
BRANCH  15  20
ATOM      1  O   UNL     1     -10.929   9.144  15.377  0.00  0.00    -0.276 OA
ATOM      5  N   UNL     1     -13.019   8.239  14.917  0.00  0.00    -0.298 N 
ATOM      6  N   UNL     1     -14.826   6.763  13.203  0.00  0.00    -0.312 N 
ATOM      7  N   UNL     1     -16.890   6.546  12.077  0.00  0.00    -0.240 NA
ATOM     20  C   UNL     1     -12.074   8.857  15.737  0.00  0.00    +0.216 C 
ATOM     21  C   UNL     1     -12.666   7.896  13.542  0.00  0.00    +0.126 C 
ATOM     22  C   UNL     1     -14.374   7.888  15.348  0.00  0.00    +0.126 C 
ATOM     23  C   UNL     1     -13.372   6.626  13.070  0.00  0.00    +0.125 C 
ATOM     24  C   UNL     1     -15.344   7.725  14.178  0.00  0.00    +0.125 C 
ATOM     26  C   UNL     1     -15.686   6.022  12.396  0.00  0.00    +0.121 A 
ATOM     28  C   UNL     1     -15.242   4.781  11.968  0.00  0.00    +0.043 A 
ATOM     31  C   UNL     1     -16.090   4.029  11.162  0.00  0.00    +0.005 A 
ATOM     33  C   UNL     1     -17.687   5.787  11.293  0.00  0.00    +0.113 A 
ATOM     35  C   UNL     1     -17.337   4.535  10.813  0.00  0.00    +0.020 A 
ENDBRANCH  15  20
ENDBRANCH  11  15
BRANCH   9  16
ATOM     16  C   UNL     1     -13.013  10.335  21.810  0.00  0.00    +0.112 C 
BRANCH  16   4
ATOM      2  O   UNL     1     -12.117  12.302  23.698  0.00  0.00    -0.270 OA
ATOM      4  N   UNL     1     -12.829  10.148  23.214  0.00  0.00    -0.311 N 
ATOM     25  C   UNL     1     -12.389  11.163  24.064  0.00  0.00    +0.248 C 
ATOM     38  H   UNL     1     -13.027   9.226  23.588  0.00  0.00    +0.149 HD
BRANCH  25  27
ATOM     27  C   UNL     1     -12.225  10.800  25.495  0.00  0.00    +0.078 A 
ATOM     29  C   UNL     1     -13.337  10.628  26.321  0.00  0.00    +0.132 A 
ATOM     30  C   UNL     1     -10.940  10.634  26.011  0.00  0.00    +0.017 A 
ATOM     32  C   UNL     1     -13.162  10.289  27.662  0.00  0.00    +0.046 A 
ATOM     34  C   UNL     1     -10.766  10.294  27.353  0.00  0.00    +0.001 A 
ATOM     36  C   UNL     1     -11.876  10.122  28.179  0.00  0.00    +0.004 A 
BRANCH  29   3
ATOM      3  O   UNL     1     -14.600  10.789  25.836  0.00  0.00    -0.494 OA
ATOM     37  C   UNL     1     -15.498  11.573  26.619  0.00  0.00    +0.277 C 
ENDBRANCH  29   3
ENDBRANCH  25  27
ENDBRANCH  16   4
ENDBRANCH   9  16
TORSDOF 7
ENDMDL
MODEL 9
REMARK VINA RESULT:      -6.8     26.400     29.914
REMARK  Name = 38029028
REMARK  11 active torsions:
REMARK  status: ('A' for Active; 'I' for Inactive)
REMARK    1  A    between atoms: O_3  and  C_29
REMARK    2  A    between atoms: O_3  and  C_37
REMARK    3  A    between atoms: N_4  and  C_16
REMARK    4  A    between atoms: C_8  and  C_12
REMARK    5  A    between atoms: C_9  and  C_16
REMARK    6  A    between atoms: C_11  and  C_15
REMARK    7  A    between atoms: C_12  and  C_17
REMARK    8  A    between atoms: C_12  and  C_18
REMARK    9  A    between atoms: C_13  and  C_19
REMARK   10  A    between atoms: C_15  and  C_20
REMARK   11  A    between atoms: C_25  and  C_27
REMARK                            x       y       z     vdW  Elec       q    Type
REMARK                         _______ _______ _______ _____ _____    ______ ____
ROOT
ATOM      8  C   UNL     1       9.717   7.278   5.718  0.00  0.00    +0.000 C 
ATOM      9  C   UNL     1       9.792   6.337   4.491  0.00  0.00    +0.032 C 
ATOM     10  C   UNL     1       8.453   8.151   5.647  0.00  0.00    +0.012 C 
ATOM     11  C   UNL     1       8.411   9.010   4.370  0.00  0.00    +0.023 C 
ATOM     13  C   UNL     1       8.742   8.199   3.134  0.00  0.00    -0.073 C 
ATOM     14  C   UNL     1       9.349   7.000   3.208  0.00  0.00    -0.022 C 
ATOM     19  C   UNL     1       8.322   8.776   1.811  0.00  0.00    +0.039 C 
ENDROOT
BRANCH   8  12
ATOM     12  C   UNL     1       9.733   6.498   7.037  0.00  0.00    -0.013 C 
ATOM     17  C   UNL     1      11.161   6.366   7.559  0.00  0.00    +0.007 C 
ATOM     18  C   UNL     1       8.839   7.177   8.069  0.00  0.00    +0.007 C 
ENDBRANCH   8  12
BRANCH  11  15
ATOM     15  C   UNL     1       9.333  10.228   4.492  0.00  0.00    +0.103 C 
BRANCH  15  20
ATOM      1  O   UNL     1       7.673  11.829   5.056  0.00  0.00    -0.276 OA
ATOM      5  N   UNL     1       9.371  11.496   6.608  0.00  0.00    -0.298 N 
ATOM      6  N   UNL     1      10.539  11.913   9.223  0.00  0.00    -0.312 N 
ATOM      7  N   UNL     1      12.362  12.513  10.599  0.00  0.00    -0.240 NA
ATOM     20  C   UNL     1       8.709  11.256   5.403  0.00  0.00    +0.216 C 
ATOM     21  C   UNL     1       8.832  12.480   7.542  0.00  0.00    +0.126 C 
ATOM     22  C   UNL     1      10.595  10.806   7.022  0.00  0.00    +0.126 C 
ATOM     23  C   UNL     1       9.103  12.097   8.995  0.00  0.00    +0.125 C 
ATOM     24  C   UNL     1      11.385  11.585   8.074  0.00  0.00    +0.125 C 
ATOM     26  C   UNL     1      11.085  12.084  10.493  0.00  0.00    +0.121 A 
ATOM     28  C   UNL     1      10.270  11.798  11.577  0.00  0.00    +0.043 A 
ATOM     31  C   UNL     1      10.800  11.962  12.852  0.00  0.00    +0.005 A 
ATOM     33  C   UNL     1      12.844  12.661  11.853  0.00  0.00    +0.113 A 
ATOM     35  C   UNL     1      12.111  12.402  13.001  0.00  0.00    +0.020 A 
ENDBRANCH  15  20
ENDBRANCH  11  15
BRANCH   9  16
ATOM     16  C   UNL     1      11.208   5.775   4.312  0.00  0.00    +0.112 C 
BRANCH  16   4
ATOM      2  O   UNL     1      11.128   3.180   3.089  0.00  0.00    -0.270 OA
ATOM      4  N   UNL     1      11.463   5.471   2.939  0.00  0.00    -0.311 N 
ATOM     25  C   UNL     1      11.402   4.175   2.425  0.00  0.00    +0.248 C 
ATOM     38  H   UNL     1      11.704   6.246   2.330  0.00  0.00    +0.149 HD
BRANCH  25  27
ATOM     27  C   UNL     1      11.719   4.023   0.982  0.00  0.00    +0.078 A 
ATOM     29  C   UNL     1      12.932   3.469   0.571  0.00  0.00    +0.132 A 
ATOM     30  C   UNL     1      10.787   4.443   0.034  0.00  0.00    +0.017 A 
ATOM     32  C   UNL     1      13.211   3.335  -0.789  0.00  0.00    +0.046 A 
ATOM     34  C   UNL     1      11.066   4.309  -1.326  0.00  0.00    +0.001 A 
ATOM     36  C   UNL     1      12.278   3.755  -1.738  0.00  0.00    +0.004 A 
BRANCH  29   3
ATOM      3  O   UNL     1      13.857   3.055   1.482  0.00  0.00    -0.494 OA
ATOM     37  C   UNL     1      15.175   3.585   1.352  0.00  0.00    +0.277 C 
ENDBRANCH  29   3
ENDBRANCH  25  27
ENDBRANCH  16   4
ENDBRANCH   9  16
TORSDOF 7
ENDMDL
MODEL 10
REMARK VINA RESULT:      -6.8      3.892     10.164
REMARK  Name = 38029028
REMARK  11 active torsions:
REMARK  status: ('A' for Active; 'I' for Inactive)
REMARK    1  A    between atoms: O_3  and  C_29
REMARK    2  A    between atoms: O_3  and  C_37
REMARK    3  A    between atoms: N_4  and  C_16
REMARK    4  A    between atoms: C_8  and  C_12
REMARK    5  A    between atoms: C_9  and  C_16
REMARK    6  A    between atoms: C_11  and  C_15
REMARK    7  A    between atoms: C_12  and  C_17
REMARK    8  A    between atoms: C_12  and  C_18
REMARK    9  A    between atoms: C_13  and  C_19
REMARK   10  A    between atoms: C_15  and  C_20
REMARK   11  A    between atoms: C_25  and  C_27
REMARK                            x       y       z     vdW  Elec       q    Type
REMARK                         _______ _______ _______ _____ _____    ______ ____
ROOT
ATOM      8  C   UNL     1      -3.651 -10.672  11.176  0.00  0.00    +0.000 C 
ATOM      9  C   UNL     1      -3.757  -9.931   9.820  0.00  0.00    +0.032 C 
ATOM     10  C   UNL     1      -3.206 -12.127  10.959  0.00  0.00    +0.012 C 
ATOM     11  C   UNL     1      -4.181 -12.904  10.053  0.00  0.00    +0.023 C 
ATOM     13  C   UNL     1      -4.545 -12.116   8.811  0.00  0.00    -0.073 C 
ATOM     14  C   UNL     1      -4.337 -10.790   8.720  0.00  0.00    -0.022 C 
ATOM     19  C   UNL     1      -5.115 -12.894   7.658  0.00  0.00    +0.039 C 
ENDROOT
BRANCH   8  12
ATOM     12  C   UNL     1      -2.681  -9.971  12.133  0.00  0.00    -0.013 C 
ATOM     17  C   UNL     1      -2.446 -10.827  13.374  0.00  0.00    +0.007 C 
ATOM     18  C   UNL     1      -1.364  -9.668  11.427  0.00  0.00    +0.007 C 
ENDBRANCH   8  12
BRANCH  11  15
ATOM     15  C   UNL     1      -5.436 -13.326  10.825  0.00  0.00    +0.103 C 
BRANCH  15  20
ATOM      1  O   UNL     1      -4.541 -15.328  11.736  0.00  0.00    -0.276 OA
ATOM      5  N   UNL     1      -5.322 -13.749  13.252  0.00  0.00    -0.298 N 
ATOM      6  N   UNL     1      -5.633 -12.760  15.955  0.00  0.00    -0.312 N 
ATOM      7  N   UNL     1      -6.977 -11.919  17.705  0.00  0.00    -0.240 NA
ATOM     20  C   UNL     1      -5.054 -14.231  11.970  0.00  0.00    +0.216 C 
ATOM     21  C   UNL     1      -4.986 -14.568  14.413  0.00  0.00    +0.126 C 
ATOM     22  C   UNL     1      -5.922 -12.441  13.528  0.00  0.00    +0.126 C 
ATOM     23  C   UNL     1      -4.576 -13.717  15.614  0.00  0.00    +0.125 C 
ATOM     24  C   UNL     1      -6.579 -12.371  14.907  0.00  0.00    +0.125 C 
ATOM     26  C   UNL     1      -5.751 -12.265  17.252  0.00  0.00    +0.121 A 
ATOM     28  C   UNL     1      -4.589 -12.158  17.998  0.00  0.00    +0.043 A 
ATOM     31  C   UNL     1      -4.691 -11.664  19.294  0.00  0.00    +0.005 A 
ATOM     33  C   UNL     1      -7.037 -11.444  18.969  0.00  0.00    +0.113 A 
ATOM     35  C   UNL     1      -5.935 -11.299  19.797  0.00  0.00    +0.020 A 
ENDBRANCH  15  20
ENDBRANCH  11  15
BRANCH   9  16
ATOM     16  C   UNL     1      -4.584  -8.647   9.954  0.00  0.00    +0.112 C 
BRANCH  16   4
ATOM      2  O   UNL     1      -7.454  -8.623  10.014  0.00  0.00    -0.270 OA
ATOM      4  N   UNL     1      -5.459  -8.487   8.836  0.00  0.00    -0.311 N 
ATOM     25  C   UNL     1      -6.849  -8.488   8.954  0.00  0.00    +0.248 C 
ATOM     38  H   UNL     1      -5.029  -8.378   7.924  0.00  0.00    +0.149 HD
BRANCH  25  27
ATOM     27  C   UNL     1      -7.618  -8.336   7.692  0.00  0.00    +0.078 A 
ATOM     29  C   UNL     1      -8.225  -7.123   7.366  0.00  0.00    +0.132 A 
ATOM     30  C   UNL     1      -7.732  -9.427   6.831  0.00  0.00    +0.017 A 
ATOM     32  C   UNL     1      -8.943  -7.001   6.177  0.00  0.00    +0.046 A 
ATOM     34  C   UNL     1      -8.452  -9.305   5.642  0.00  0.00    +0.001 A 
ATOM     36  C   UNL     1      -9.057  -8.092   5.315  0.00  0.00    +0.004 A 
BRANCH  29   3
ATOM      3  O   UNL     1      -8.127  -6.046   8.196  0.00  0.00    -0.494 OA
ATOM     37  C   UNL     1      -9.330  -5.330   8.469  0.00  0.00    +0.277 C 
ENDBRANCH  29   3
ENDBRANCH  25  27
ENDBRANCH  16   4
ENDBRANCH   9  16
TORSDOF 7
ENDMDL
