MODEL 1
REMARK VINA RESULT:      -6.5      0.000      0.000
REMARK  Name = 11867064
REMARK  14 active torsions:
REMARK  status: ('A' for Active; 'I' for Inactive)
REMARK    1  A    between atoms: O_2  and  C_16
REMARK    2  A    between atoms: O_3  and  C_21
REMARK    3  A    between atoms: O_6  and  C_30
REMARK    4  A    between atoms: O_6  and  C_36
REMARK    5  A    between atoms: O_7  and  C_35
REMARK    6  A    between atoms: O_7  and  C_37
REMARK    7  A    between atoms: N_9  and  C_27
REMARK    8  A    between atoms: C_11  and  C_19
REMARK    9  A    between atoms: C_13  and  C_21
REMARK   10  A    between atoms: C_13  and  C_22
REMARK   11  A    between atoms: C_14  and  C_24
REMARK   12  A    between atoms: C_24  and  C_25
REMARK   13  A    between atoms: C_27  and  C_29
REMARK   14  A    between atoms: C_28  and  C_30
REMARK                            x       y       z     vdW  Elec       q    Type
REMARK                         _______ _______ _______ _____ _____    ______ ____
ROOT
ATOM      1  S   UNL     1      18.064   6.330  20.096  0.00  0.00    -0.057 S 
ATOM      5  O   UNL     1      20.876   8.890  22.797  0.00  0.00    -0.273 OA
ATOM      8  N   UNL     1      18.231   8.494  21.504  0.00  0.00    -0.229 NA
ATOM     10  N   UNL     1      20.195   7.100  21.414  0.00  0.00    -0.263 N 
ATOM     11  C   UNL     1      14.726   9.450  20.213  0.00  0.00    -0.019 C 
ATOM     12  C   UNL     1      14.269   7.930  20.092  0.00  0.00    +0.011 C 
ATOM     13  C   UNL     1      12.851   7.656  19.457  0.00  0.00    +0.021 C 
ATOM     14  C   UNL     1      15.940   9.520  21.249  0.00  0.00    +0.054 C 
ATOM     15  C   UNL     1      13.555  10.297  20.775  0.00  0.00    +0.010 C 
ATOM     16  C   UNL     1      11.810   8.617  20.098  0.00  0.00    +0.123 C 
ATOM     17  C   UNL     1      15.403   7.041  19.501  0.00  0.00    +0.049 C 
ATOM     18  C   UNL     1      12.234  10.081  20.052  0.00  0.00    +0.032 C 
ATOM     19  C   UNL     1      15.170  10.055  18.857  0.00  0.00    +0.012 C 
ATOM     20  C   UNL     1      16.961   8.449  20.960  0.00  0.00    +0.058 A 
ATOM     22  C   UNL     1      12.414   6.204  19.800  0.00  0.00    +0.016 C 
ATOM     23  C   UNL     1      16.693   7.336  20.189  0.00  0.00    +0.015 A 
ATOM     26  C   UNL     1      18.903   7.433  21.110  0.00  0.00    +0.165 A 
ATOM     28  C   UNL     1      21.089   7.829  22.221  0.00  0.00    +0.244 C 
ATOM     41  H   UNL     1      20.522   6.229  21.004  0.00  0.00    +0.157 HD
ENDROOT
BRANCH  16   2
ATOM      2  O   UNL     1      10.542   8.485  19.455  0.00  0.00    -0.391 OA
ATOM     38  H   UNL     1      10.664   8.674  18.509  0.00  0.00    +0.210 HD
ENDBRANCH  16   2
BRANCH  13  21
ATOM     21  C   UNL     1      12.811   7.749  17.916  0.00  0.00    +0.165 C 
BRANCH  21   3
ATOM      3  O   UNL     1      11.739   6.953  17.464  0.00  0.00    -0.394 OA
ATOM     39  H   UNL     1      11.680   7.046  16.498  0.00  0.00    +0.209 HD
ENDBRANCH  21   3
ENDBRANCH  13  21
BRANCH  14  24
ATOM     24  C   UNL     1      16.597  10.902  21.372  0.00  0.00    +0.106 C 
BRANCH  24  25
ATOM      4  O   UNL     1      17.412  12.106  23.305  0.00  0.00    -0.276 OA
ATOM      9  N   UNL     1      15.329  11.079  23.389  0.00  0.00    -0.311 N 
ATOM     25  C   UNL     1      16.523  11.440  22.782  0.00  0.00    +0.214 C 
ATOM     40  H   UNL     1      14.626  10.574  22.858  0.00  0.00    +0.149 HD
BRANCH   9  27
ATOM     27  C   UNL     1      14.986  11.453  24.742  0.00  0.00    +0.139 C 
BRANCH  27  29
ATOM     29  C   UNL     1      13.704  12.231  24.802  0.00  0.00    -0.030 A 
ATOM     31  C   UNL     1      12.843  12.222  23.711  0.00  0.00    +0.009 A 
ATOM     32  C   UNL     1      13.391  12.954  25.947  0.00  0.00    +0.009 A 
ATOM     33  C   UNL     1      11.652  12.946  23.766  0.00  0.00    +0.046 A 
ATOM     34  C   UNL     1      12.200  13.677  26.002  0.00  0.00    +0.046 A 
ATOM     35  C   UNL     1      11.330  13.674  24.912  0.00  0.00    +0.120 A 
BRANCH  35   7
ATOM      7  O   UNL     1      10.168  14.379  24.965  0.00  0.00    -0.495 OA
ATOM     37  C   UNL     1       9.594  14.781  23.721  0.00  0.00    +0.277 C 
ENDBRANCH  35   7
ENDBRANCH  27  29
ENDBRANCH   9  27
ENDBRANCH  24  25
ENDBRANCH  14  24
BRANCH  28  30
ATOM     30  C   UNL     1      22.434   7.132  22.322  0.00  0.00    +0.255 C 
BRANCH  30   6
ATOM      6  O   UNL     1      22.270   5.759  22.608  0.00  0.00    -0.374 OA
ATOM     36  C   UNL     1      22.196   5.515  24.010  0.00  0.00    +0.194 C 
ENDBRANCH  30   6
ENDBRANCH  28  30
TORSDOF 10
ENDMDL
MODEL 2
REMARK VINA RESULT:      -6.5     17.572     21.526
REMARK  Name = 11867064
REMARK  14 active torsions:
REMARK  status: ('A' for Active; 'I' for Inactive)
REMARK    1  A    between atoms: O_2  and  C_16
REMARK    2  A    between atoms: O_3  and  C_21
REMARK    3  A    between atoms: O_6  and  C_30
REMARK    4  A    between atoms: O_6  and  C_36
REMARK    5  A    between atoms: O_7  and  C_35
REMARK    6  A    between atoms: O_7  and  C_37
REMARK    7  A    between atoms: N_9  and  C_27
REMARK    8  A    between atoms: C_11  and  C_19
REMARK    9  A    between atoms: C_13  and  C_21
REMARK   10  A    between atoms: C_13  and  C_22
REMARK   11  A    between atoms: C_14  and  C_24
REMARK   12  A    between atoms: C_24  and  C_25
REMARK   13  A    between atoms: C_27  and  C_29
REMARK   14  A    between atoms: C_28  and  C_30
REMARK                            x       y       z     vdW  Elec       q    Type
REMARK                         _______ _______ _______ _____ _____    ______ ____
ROOT
ATOM      1  S   UNL     1      14.010   4.724   1.283  0.00  0.00    -0.057 S 
ATOM      5  O   UNL     1      12.675   8.110   4.199  0.00  0.00    -0.273 OA
ATOM      8  N   UNL     1      12.233   6.556   1.706  0.00  0.00    -0.229 NA
ATOM     10  N   UNL     1      13.987   6.341   3.346  0.00  0.00    -0.263 N 
ATOM     11  C   UNL     1      10.753   5.740  -1.759  0.00  0.00    -0.019 C 
ATOM     12  C   UNL     1      11.187   4.210  -1.671  0.00  0.00    +0.011 C 
ATOM     13  C   UNL     1      10.933   3.319  -2.948  0.00  0.00    +0.021 C 
ATOM     14  C   UNL     1      10.685   6.319  -0.272  0.00  0.00    +0.054 C 
ATOM     15  C   UNL     1       9.339   5.839  -2.387  0.00  0.00    +0.010 C 
ATOM     16  C   UNL     1       9.492   3.575  -3.473  0.00  0.00    +0.123 C 
ATOM     17  C   UNL     1      12.617   4.058  -1.075  0.00  0.00    +0.049 C 
ATOM     18  C   UNL     1       9.181   5.054  -3.680  0.00  0.00    +0.032 C 
ATOM     19  C   UNL     1      11.731   6.596  -2.602  0.00  0.00    +0.012 C 
ATOM     20  C   UNL     1      11.908   5.928   0.518  0.00  0.00    +0.058 A 
ATOM     22  C   UNL     1      11.020   1.820  -2.546  0.00  0.00    +0.016 C 
ATOM     23  C   UNL     1      12.750   4.899   0.150  0.00  0.00    +0.015 A 
ATOM     26  C   UNL     1      13.326   6.009   2.194  0.00  0.00    +0.165 A 
ATOM     28  C   UNL     1      13.633   7.349   4.263  0.00  0.00    +0.244 C 
ATOM     41  H   UNL     1      14.818   5.787   3.540  0.00  0.00    +0.157 HD
ENDROOT
BRANCH  16   2
ATOM      2  O   UNL     1       9.274   2.883  -4.702  0.00  0.00    -0.391 OA
ATOM     38  H   UNL     1      10.080   2.962  -5.239  0.00  0.00    +0.210 HD
ENDBRANCH  16   2
BRANCH  13  21
ATOM     21  C   UNL     1      11.971   3.508  -4.077  0.00  0.00    +0.165 C 
BRANCH  21   3
ATOM      3  O   UNL     1      12.863   2.417  -4.029  0.00  0.00    -0.394 OA
ATOM     39  H   UNL     1      12.514   1.717  -4.606  0.00  0.00    +0.209 HD
ENDBRANCH  21   3
ENDBRANCH  13  21
BRANCH  14  24
ATOM     24  C   UNL     1      10.420   7.828  -0.186  0.00  0.00    +0.106 C 
BRANCH  24  25
ATOM      4  O   UNL     1       8.266   8.762   0.397  0.00  0.00    -0.276 OA
ATOM      9  N   UNL     1       9.517   7.665   2.020  0.00  0.00    -0.311 N 
ATOM     25  C   UNL     1       9.273   8.150   0.743  0.00  0.00    +0.214 C 
ATOM     40  H   UNL     1      10.354   7.120   2.199  0.00  0.00    +0.149 HD
BRANCH   9  27
ATOM     27  C   UNL     1       8.592   7.830   3.117  0.00  0.00    +0.139 C 
BRANCH  27  29
ATOM     29  C   UNL     1       8.991   7.018   4.315  0.00  0.00    -0.030 A 
ATOM     31  C   UNL     1       8.528   7.377   5.575  0.00  0.00    +0.009 A 
ATOM     32  C   UNL     1       9.821   5.914   4.152  0.00  0.00    +0.009 A 
ATOM     33  C   UNL     1       8.899   6.623   6.688  0.00  0.00    +0.046 A 
ATOM     34  C   UNL     1      10.192   5.160   5.265  0.00  0.00    +0.046 A 
ATOM     35  C   UNL     1       9.732   5.514   6.533  0.00  0.00    +0.120 A 
BRANCH  35   7
ATOM      7  O   UNL     1      10.093   4.779   7.619  0.00  0.00    -0.495 OA
ATOM     37  C   UNL     1       9.403   5.042   8.841  0.00  0.00    +0.277 C 
ENDBRANCH  35   7
ENDBRANCH  27  29
ENDBRANCH   9  27
ENDBRANCH  24  25
ENDBRANCH  14  24
BRANCH  28  30
ATOM     30  C   UNL     1      14.616   7.411   5.419  0.00  0.00    +0.255 C 
BRANCH  30   6
ATOM      6  O   UNL     1      13.960   7.767   6.618  0.00  0.00    -0.374 OA
ATOM     36  C   UNL     1      13.442   6.627   7.298  0.00  0.00    +0.194 C 
ENDBRANCH  30   6
ENDBRANCH  28  30
TORSDOF 10
ENDMDL
MODEL 3
REMARK VINA RESULT:      -6.4     28.246     31.671
REMARK  Name = 11867064
REMARK  14 active torsions:
REMARK  status: ('A' for Active; 'I' for Inactive)
REMARK    1  A    between atoms: O_2  and  C_16
REMARK    2  A    between atoms: O_3  and  C_21
REMARK    3  A    between atoms: O_6  and  C_30
REMARK    4  A    between atoms: O_6  and  C_36
REMARK    5  A    between atoms: O_7  and  C_35
REMARK    6  A    between atoms: O_7  and  C_37
REMARK    7  A    between atoms: N_9  and  C_27
REMARK    8  A    between atoms: C_11  and  C_19
REMARK    9  A    between atoms: C_13  and  C_21
REMARK   10  A    between atoms: C_13  and  C_22
REMARK   11  A    between atoms: C_14  and  C_24
REMARK   12  A    between atoms: C_24  and  C_25
REMARK   13  A    between atoms: C_27  and  C_29
REMARK   14  A    between atoms: C_28  and  C_30
REMARK                            x       y       z     vdW  Elec       q    Type
REMARK                         _______ _______ _______ _____ _____    ______ ____
ROOT
ATOM      1  S   UNL     1      -7.139 -10.330  11.329  0.00  0.00    -0.057 S 
ATOM      5  O   UNL     1     -11.169  -9.020  13.276  0.00  0.00    -0.273 OA
ATOM      8  N   UNL     1      -8.332  -9.847  13.573  0.00  0.00    -0.229 NA
ATOM     10  N   UNL     1      -9.638  -9.575  11.566  0.00  0.00    -0.263 N 
ATOM     11  C   UNL     1      -5.167 -11.106  15.379  0.00  0.00    -0.019 C 
ATOM     12  C   UNL     1      -4.207 -10.614  14.207  0.00  0.00    +0.011 C 
ATOM     13  C   UNL     1      -2.678 -10.981  14.332  0.00  0.00    +0.021 C 
ATOM     14  C   UNL     1      -6.528 -10.275  15.283  0.00  0.00    +0.054 C 
ATOM     15  C   UNL     1      -4.505 -10.804  16.748  0.00  0.00    +0.010 C 
ATOM     16  C   UNL     1      -2.190 -10.660  15.773  0.00  0.00    +0.123 C 
ATOM     17  C   UNL     1      -4.814 -10.924  12.807  0.00  0.00    +0.049 C 
ATOM     18  C   UNL     1      -3.064 -11.282  16.856  0.00  0.00    +0.032 C 
ATOM     19  C   UNL     1      -5.481 -12.621  15.303  0.00  0.00    +0.012 C 
ATOM     20  C   UNL     1      -7.035 -10.228  13.865  0.00  0.00    +0.058 A 
ATOM     22  C   UNL     1      -1.861 -10.087  13.356  0.00  0.00    +0.016 C 
ATOM     23  C   UNL     1      -6.245 -10.504  12.768  0.00  0.00    +0.015 A 
ATOM     26  C   UNL     1      -8.501  -9.872  12.268  0.00  0.00    +0.165 A 
ATOM     28  C   UNL     1     -10.879  -9.175  12.095  0.00  0.00    +0.244 C 
ATOM     41  H   UNL     1      -9.553  -9.658  10.555  0.00  0.00    +0.157 HD
ENDROOT
BRANCH  16   2
ATOM      2  O   UNL     1      -0.845 -11.100  15.958  0.00  0.00    -0.391 OA
ATOM     38  H   UNL     1      -0.391 -10.450  16.520  0.00  0.00    +0.210 HD
ENDBRANCH  16   2
BRANCH  13  21
ATOM     21  C   UNL     1      -2.335 -12.437  13.947  0.00  0.00    +0.165 C 
BRANCH  21   3
ATOM      3  O   UNL     1      -1.582 -12.402  12.755  0.00  0.00    -0.394 OA
ATOM     39  H   UNL     1      -1.815 -11.590  12.275  0.00  0.00    +0.209 HD
ENDBRANCH  21   3
ENDBRANCH  13  21
BRANCH  14  24
ATOM     24  C   UNL     1      -7.623 -10.730  16.257  0.00  0.00    +0.106 C 
BRANCH  24  25
ATOM      4  O   UNL     1      -7.546  -9.320  18.222  0.00  0.00    -0.276 OA
ATOM      9  N   UNL     1      -9.186  -8.959  16.615  0.00  0.00    -0.311 N 
ATOM     25  C   UNL     1      -8.084  -9.607  17.156  0.00  0.00    +0.214 C 
ATOM     40  H   UNL     1      -9.528  -9.229  15.698  0.00  0.00    +0.149 HD
BRANCH   9  27
ATOM     27  C   UNL     1      -9.842  -7.845  17.260  0.00  0.00    +0.139 C 
BRANCH  27  29
ATOM     29  C   UNL     1     -10.962  -7.293  16.427  0.00  0.00    -0.030 A 
ATOM     31  C   UNL     1     -12.221  -7.877  16.493  0.00  0.00    +0.009 A 
ATOM     32  C   UNL     1     -10.727  -6.204  15.595  0.00  0.00    +0.009 A 
ATOM     33  C   UNL     1     -13.261  -7.365  15.718  0.00  0.00    +0.046 A 
ATOM     34  C   UNL     1     -11.768  -5.692  14.820  0.00  0.00    +0.046 A 
ATOM     35  C   UNL     1     -13.035  -6.272  14.881  0.00  0.00    +0.120 A 
BRANCH  35   7
ATOM      7  O   UNL     1     -14.050  -5.773  14.126  0.00  0.00    -0.495 OA
ATOM     37  C   UNL     1     -13.762  -4.629  13.323  0.00  0.00    +0.277 C 
ENDBRANCH  35   7
ENDBRANCH  27  29
ENDBRANCH   9  27
ENDBRANCH  24  25
ENDBRANCH  14  24
BRANCH  28  30
ATOM     30  C   UNL     1     -11.896  -8.934  10.994  0.00  0.00    +0.255 C 
BRANCH  30   6
ATOM      6  O   UNL     1     -12.673  -7.787  11.267  0.00  0.00    -0.374 OA
ATOM     36  C   UNL     1     -14.051  -8.106  11.433  0.00  0.00    +0.194 C 
ENDBRANCH  30   6
ENDBRANCH  28  30
TORSDOF 10
ENDMDL
MODEL 4
REMARK VINA RESULT:      -6.3     23.821     28.358
REMARK  Name = 11867064
REMARK  14 active torsions:
REMARK  status: ('A' for Active; 'I' for Inactive)
REMARK    1  A    between atoms: O_2  and  C_16
REMARK    2  A    between atoms: O_3  and  C_21
REMARK    3  A    between atoms: O_6  and  C_30
REMARK    4  A    between atoms: O_6  and  C_36
REMARK    5  A    between atoms: O_7  and  C_35
REMARK    6  A    between atoms: O_7  and  C_37
REMARK    7  A    between atoms: N_9  and  C_27
REMARK    8  A    between atoms: C_11  and  C_19
REMARK    9  A    between atoms: C_13  and  C_21
REMARK   10  A    between atoms: C_13  and  C_22
REMARK   11  A    between atoms: C_14  and  C_24
REMARK   12  A    between atoms: C_24  and  C_25
REMARK   13  A    between atoms: C_27  and  C_29
REMARK   14  A    between atoms: C_28  and  C_30
REMARK                            x       y       z     vdW  Elec       q    Type
REMARK                         _______ _______ _______ _____ _____    ______ ____
ROOT
ATOM      1  S   UNL     1      -6.247   8.254  41.858  0.00  0.00    -0.057 S 
ATOM      5  O   UNL     1      -9.162  10.691  39.154  0.00  0.00    -0.273 OA
ATOM      8  N   UNL     1      -6.523   9.387  39.549  0.00  0.00    -0.229 NA
ATOM     10  N   UNL     1      -8.395   9.527  41.060  0.00  0.00    -0.263 N 
ATOM     11  C   UNL     1      -2.819   8.576  38.852  0.00  0.00    -0.019 C 
ATOM     12  C   UNL     1      -2.859   7.255  39.741  0.00  0.00    +0.011 C 
ATOM     13  C   UNL     1      -1.496   6.489  39.948  0.00  0.00    +0.021 C 
ATOM     14  C   UNL     1      -4.316   8.924  38.418  0.00  0.00    +0.054 C 
ATOM     15  C   UNL     1      -1.988   8.310  37.571  0.00  0.00    +0.010 C 
ATOM     16  C   UNL     1      -0.774   6.349  38.578  0.00  0.00    +0.123 C 
ATOM     17  C   UNL     1      -3.658   7.480  41.058  0.00  0.00    +0.049 C 
ATOM     18  C   UNL     1      -0.631   7.675  37.836  0.00  0.00    +0.032 C 
ATOM     19  C   UNL     1      -2.205   9.786  39.600  0.00  0.00    +0.012 C 
ATOM     20  C   UNL     1      -5.256   8.836  39.593  0.00  0.00    +0.058 A 
ATOM     22  C   UNL     1      -1.795   5.052  40.462  0.00  0.00    +0.016 C 
ATOM     23  C   UNL     1      -4.948   8.168  40.760  0.00  0.00    +0.015 A 
ATOM     26  C   UNL     1      -7.133   9.148  40.690  0.00  0.00    +0.165 A 
ATOM     28  C   UNL     1      -9.318  10.260  40.291  0.00  0.00    +0.244 C 
ATOM     41  H   UNL     1      -8.675   9.237  41.994  0.00  0.00    +0.157 HD
ENDROOT
BRANCH  16   2
ATOM      2  O   UNL     1       0.522   5.776  38.748  0.00  0.00    -0.391 OA
ATOM     38  H   UNL     1       0.964   6.243  39.477  0.00  0.00    +0.210 HD
ENDBRANCH  16   2
BRANCH  13  21
ATOM     21  C   UNL     1      -0.560   7.121  41.001  0.00  0.00    +0.165 C 
BRANCH  21   3
ATOM      3  O   UNL     1       0.147   6.077  41.632  0.00  0.00    -0.394 OA
ATOM     39  H   UNL     1       0.807   6.473  42.225  0.00  0.00    +0.209 HD
ENDBRANCH  21   3
ENDBRANCH  13  21
BRANCH  14  24
ATOM     24  C   UNL     1      -4.471  10.257  37.673  0.00  0.00    +0.106 C 
BRANCH  24  25
ATOM      4  O   UNL     1      -4.617   9.831  35.296  0.00  0.00    -0.276 OA
ATOM      9  N   UNL     1      -6.555  10.266  36.504  0.00  0.00    -0.311 N 
ATOM     25  C   UNL     1      -5.186  10.088  36.353  0.00  0.00    +0.214 C 
ATOM     40  H   UNL     1      -6.943  10.420  37.429  0.00  0.00    +0.149 HD
BRANCH   9  27
ATOM     27  C   UNL     1      -7.490  10.166  35.407  0.00  0.00    +0.139 C 
BRANCH  27  29
ATOM     29  C   UNL     1      -8.760   9.477  35.813  0.00  0.00    -0.030 A 
ATOM     31  C   UNL     1      -9.966   9.866  35.241  0.00  0.00    +0.009 A 
ATOM     32  C   UNL     1      -8.719   8.459  36.758  0.00  0.00    +0.009 A 
ATOM     33  C   UNL     1     -11.147   9.227  35.618  0.00  0.00    +0.046 A 
ATOM     34  C   UNL     1      -9.900   7.820  37.136  0.00  0.00    +0.046 A 
ATOM     35  C   UNL     1     -11.114   8.204  36.566  0.00  0.00    +0.120 A 
BRANCH  35   7
ATOM      7  O   UNL     1     -12.266   7.581  36.934  0.00  0.00    -0.495 OA
ATOM     37  C   UNL     1     -13.027   6.958  35.899  0.00  0.00    +0.277 C 
ENDBRANCH  35   7
ENDBRANCH  27  29
ENDBRANCH   9  27
ENDBRANCH  24  25
ENDBRANCH  14  24
BRANCH  28  30
ATOM     30  C   UNL     1     -10.614  10.482  41.049  0.00  0.00    +0.255 C 
BRANCH  30   6
ATOM      6  O   UNL     1     -11.455   9.352  40.952  0.00  0.00    -0.374 OA
ATOM     36  C   UNL     1     -11.598   8.687  42.204  0.00  0.00    +0.194 C 
ENDBRANCH  30   6
ENDBRANCH  28  30
TORSDOF 10
ENDMDL
MODEL 5
REMARK VINA RESULT:      -6.2      2.629      5.432
REMARK  Name = 11867064
REMARK  14 active torsions:
REMARK  status: ('A' for Active; 'I' for Inactive)
REMARK    1  A    between atoms: O_2  and  C_16
REMARK    2  A    between atoms: O_3  and  C_21
REMARK    3  A    between atoms: O_6  and  C_30
REMARK    4  A    between atoms: O_6  and  C_36
REMARK    5  A    between atoms: O_7  and  C_35
REMARK    6  A    between atoms: O_7  and  C_37
REMARK    7  A    between atoms: N_9  and  C_27
REMARK    8  A    between atoms: C_11  and  C_19
REMARK    9  A    between atoms: C_13  and  C_21
REMARK   10  A    between atoms: C_13  and  C_22
REMARK   11  A    between atoms: C_14  and  C_24
REMARK   12  A    between atoms: C_24  and  C_25
REMARK   13  A    between atoms: C_27  and  C_29
REMARK   14  A    between atoms: C_28  and  C_30
REMARK                            x       y       z     vdW  Elec       q    Type
REMARK                         _______ _______ _______ _____ _____    ______ ____
ROOT
ATOM      1  S   UNL     1      17.586   5.818  19.808  0.00  0.00    -0.057 S 
ATOM      5  O   UNL     1      21.740   7.395  21.223  0.00  0.00    -0.273 OA
ATOM      8  N   UNL     1      18.808   7.787  20.958  0.00  0.00    -0.229 NA
ATOM     10  N   UNL     1      20.166   5.922  20.258  0.00  0.00    -0.263 N 
ATOM     11  C   UNL     1      15.468   9.712  20.926  0.00  0.00    -0.019 C 
ATOM     12  C   UNL     1      14.607   8.378  21.048  0.00  0.00    +0.011 C 
ATOM     13  C   UNL     1      13.039   8.526  20.964  0.00  0.00    +0.021 C 
ATOM     14  C   UNL     1      16.938   9.402  21.467  0.00  0.00    +0.054 C 
ATOM     15  C   UNL     1      14.841  10.814  21.817  0.00  0.00    +0.010 C 
ATOM     16  C   UNL     1      12.585   9.699  21.878  0.00  0.00    +0.123 C 
ATOM     17  C   UNL     1      15.179   7.247  20.145  0.00  0.00    +0.049 C 
ATOM     18  C   UNL     1      13.344  10.996  21.613  0.00  0.00    +0.032 C 
ATOM     19  C   UNL     1      15.554  10.240  19.471  0.00  0.00    +0.012 C 
ATOM     20  C   UNL     1      17.466   8.111  20.895  0.00  0.00    +0.058 A 
ATOM     22  C   UNL     1      12.377   7.230  21.511  0.00  0.00    +0.016 C 
ATOM     23  C   UNL     1      16.657   7.150  20.323  0.00  0.00    +0.015 A 
ATOM     26  C   UNL     1      18.989   6.605  20.408  0.00  0.00    +0.165 A 
ATOM     28  C   UNL     1      21.445   6.344  20.664  0.00  0.00    +0.244 C 
ATOM     41  H   UNL     1      20.082   5.016  19.804  0.00  0.00    +0.157 HD
ENDROOT
BRANCH  16   2
ATOM      2  O   UNL     1      11.188   9.945  21.726  0.00  0.00    -0.391 OA
ATOM     38  H   UNL     1      10.907   9.565  20.877  0.00  0.00    +0.210 HD
ENDBRANCH  16   2
BRANCH  13  21
ATOM     21  C   UNL     1      12.489   8.701  19.531  0.00  0.00    +0.165 C 
BRANCH  21   3
ATOM      3  O   UNL     1      11.263   8.009  19.452  0.00  0.00    -0.394 OA
ATOM     39  H   UNL     1      10.544   8.657  19.536  0.00  0.00    +0.209 HD
ENDBRANCH  21   3
ENDBRANCH  13  21
BRANCH  14  24
ATOM     24  C   UNL     1      17.941  10.549  21.283  0.00  0.00    +0.106 C 
BRANCH  24  25
ATOM      4  O   UNL     1      18.108  11.752  23.376  0.00  0.00    -0.276 OA
ATOM      9  N   UNL     1      19.800  10.281  22.760  0.00  0.00    -0.311 N 
ATOM     25  C   UNL     1      18.594  10.946  22.587  0.00  0.00    +0.214 C 
ATOM     40  H   UNL     1      20.094   9.587  22.081  0.00  0.00    +0.149 HD
BRANCH   9  27
ATOM     27  C   UNL     1      20.644  10.467  23.918  0.00  0.00    +0.139 C 
BRANCH  27  29
ATOM     29  C   UNL     1      20.503   9.342  24.902  0.00  0.00    -0.030 A 
ATOM     31  C   UNL     1      20.353   9.626  26.254  0.00  0.00    +0.009 A 
ATOM     32  C   UNL     1      20.526   8.027  24.451  0.00  0.00    +0.009 A 
ATOM     33  C   UNL     1      20.224   8.581  27.169  0.00  0.00    +0.046 A 
ATOM     34  C   UNL     1      20.397   6.982  25.366  0.00  0.00    +0.046 A 
ATOM     35  C   UNL     1      20.246   7.259  26.725  0.00  0.00    +0.120 A 
BRANCH  35   7
ATOM      7  O   UNL     1      20.119   6.240  27.618  0.00  0.00    -0.495 OA
ATOM     37  C   UNL     1      21.307   5.534  27.972  0.00  0.00    +0.277 C 
ENDBRANCH  35   7
ENDBRANCH  27  29
ENDBRANCH   9  27
ENDBRANCH  24  25
ENDBRANCH  14  24
BRANCH  28  30
ATOM     30  C   UNL     1      22.501   5.307  20.323  0.00  0.00    +0.255 C 
BRANCH  30   6
ATOM      6  O   UNL     1      22.188   4.059  20.905  0.00  0.00    -0.374 OA
ATOM     36  C   UNL     1      22.382   4.067  22.316  0.00  0.00    +0.194 C 
ENDBRANCH  30   6
ENDBRANCH  28  30
TORSDOF 10
ENDMDL
MODEL 6
REMARK VINA RESULT:      -6.2     28.767     31.441
REMARK  Name = 11867064
REMARK  14 active torsions:
REMARK  status: ('A' for Active; 'I' for Inactive)
REMARK    1  A    between atoms: O_2  and  C_16
REMARK    2  A    between atoms: O_3  and  C_21
REMARK    3  A    between atoms: O_6  and  C_30
REMARK    4  A    between atoms: O_6  and  C_36
REMARK    5  A    between atoms: O_7  and  C_35
REMARK    6  A    between atoms: O_7  and  C_37
REMARK    7  A    between atoms: N_9  and  C_27
REMARK    8  A    between atoms: C_11  and  C_19
REMARK    9  A    between atoms: C_13  and  C_21
REMARK   10  A    between atoms: C_13  and  C_22
REMARK   11  A    between atoms: C_14  and  C_24
REMARK   12  A    between atoms: C_24  and  C_25
REMARK   13  A    between atoms: C_27  and  C_29
REMARK   14  A    between atoms: C_28  and  C_30
REMARK                            x       y       z     vdW  Elec       q    Type
REMARK                         _______ _______ _______ _____ _____    ______ ____
ROOT
ATOM      1  S   UNL     1      -7.472 -14.229  12.841  0.00  0.00    -0.057 S 
ATOM      5  O   UNL     1      -5.437 -15.381  16.875  0.00  0.00    -0.273 OA
ATOM      8  N   UNL     1      -5.446 -13.768  14.381  0.00  0.00    -0.229 NA
ATOM     10  N   UNL     1      -7.038 -15.411  15.140  0.00  0.00    -0.263 N 
ATOM     11  C   UNL     1      -4.019 -11.499  11.610  0.00  0.00    -0.019 C 
ATOM     12  C   UNL     1      -5.468 -11.083  11.095  0.00  0.00    +0.011 C 
ATOM     13  C   UNL     1      -5.537 -10.185   9.801  0.00  0.00    +0.021 C 
ATOM     14  C   UNL     1      -4.158 -12.004  13.119  0.00  0.00    +0.054 C 
ATOM     15  C   UNL     1      -3.090 -10.257  11.594  0.00  0.00    +0.010 C 
ATOM     16  C   UNL     1      -4.516  -9.020   9.930  0.00  0.00    +0.123 C 
ATOM     17  C   UNL     1      -6.432 -12.305  11.063  0.00  0.00    +0.049 C 
ATOM     18  C   UNL     1      -3.108  -9.491  10.279  0.00  0.00    +0.032 C 
ATOM     19  C   UNL     1      -3.372 -12.614  10.751  0.00  0.00    +0.012 C 
ATOM     20  C   UNL     1      -5.312 -12.962  13.266  0.00  0.00    +0.058 A 
ATOM     22  C   UNL     1      -6.953  -9.550   9.700  0.00  0.00    +0.016 C 
ATOM     23  C   UNL     1      -6.331 -13.068  12.341  0.00  0.00    +0.015 A 
ATOM     26  C   UNL     1      -6.544 -14.484  14.262  0.00  0.00    +0.165 A 
ATOM     28  C   UNL     1      -6.472 -15.799  16.368  0.00  0.00    +0.244 C 
ATOM     41  H   UNL     1      -7.908 -15.852  14.853  0.00  0.00    +0.157 HD
ENDROOT
BRANCH  16   2
ATOM      2  O   UNL     1      -4.460  -8.262   8.722  0.00  0.00    -0.391 OA
ATOM     38  H   UNL     1      -3.870  -7.504   8.869  0.00  0.00    +0.210 HD
ENDBRANCH  16   2
BRANCH  13  21
ATOM     21  C   UNL     1      -5.331 -10.953   8.476  0.00  0.00    +0.165 C 
BRANCH  21   3
ATOM      3  O   UNL     1      -5.940 -10.207   7.446  0.00  0.00    -0.394 OA
ATOM     39  H   UNL     1      -5.570 -10.505   6.599  0.00  0.00    +0.209 HD
ENDBRANCH  21   3
ENDBRANCH  13  21
BRANCH  14  24
ATOM     24  C   UNL     1      -2.869 -12.581  13.721  0.00  0.00    +0.106 C 
BRANCH  24  25
ATOM      4  O   UNL     1      -1.311 -11.331  15.086  0.00  0.00    -0.276 OA
ATOM      9  N   UNL     1      -3.449 -11.761  15.888  0.00  0.00    -0.311 N 
ATOM     25  C   UNL     1      -2.428 -11.821  14.950  0.00  0.00    +0.214 C 
ATOM     40  H   UNL     1      -4.361 -12.147  15.665  0.00  0.00    +0.149 HD
BRANCH   9  27
ATOM     27  C   UNL     1      -3.310 -11.098  17.165  0.00  0.00    +0.139 C 
BRANCH  27  29
ATOM     29  C   UNL     1      -4.613 -11.031  17.908  0.00  0.00    -0.030 A 
ATOM     31  C   UNL     1      -5.699 -10.381  17.335  0.00  0.00    +0.009 A 
ATOM     32  C   UNL     1      -4.719 -11.620  19.163  0.00  0.00    +0.009 A 
ATOM     33  C   UNL     1      -6.909 -10.318  18.026  0.00  0.00    +0.046 A 
ATOM     34  C   UNL     1      -5.929 -11.558  19.854  0.00  0.00    +0.046 A 
ATOM     35  C   UNL     1      -7.024 -10.907  19.286  0.00  0.00    +0.120 A 
BRANCH  35   7
ATOM      7  O   UNL     1      -8.205 -10.846  19.959  0.00  0.00    -0.495 OA
ATOM     37  C   UNL     1      -9.214 -11.786  19.588  0.00  0.00    +0.277 C 
ENDBRANCH  35   7
ENDBRANCH  27  29
ENDBRANCH   9  27
ENDBRANCH  24  25
ENDBRANCH  14  24
BRANCH  28  30
ATOM     30  C   UNL     1      -7.318 -16.856  17.056  0.00  0.00    +0.255 C 
BRANCH  30   6
ATOM      6  O   UNL     1      -8.689 -16.522  16.993  0.00  0.00    -0.374 OA
ATOM     36  C   UNL     1      -9.132 -15.872  18.180  0.00  0.00    +0.194 C 
ENDBRANCH  30   6
ENDBRANCH  28  30
TORSDOF 10
ENDMDL
MODEL 7
REMARK VINA RESULT:      -6.1     15.900     20.613
REMARK  Name = 11867064
REMARK  14 active torsions:
REMARK  status: ('A' for Active; 'I' for Inactive)
REMARK    1  A    between atoms: O_2  and  C_16
REMARK    2  A    between atoms: O_3  and  C_21
REMARK    3  A    between atoms: O_6  and  C_30
REMARK    4  A    between atoms: O_6  and  C_36
REMARK    5  A    between atoms: O_7  and  C_35
REMARK    6  A    between atoms: O_7  and  C_37
REMARK    7  A    between atoms: N_9  and  C_27
REMARK    8  A    between atoms: C_11  and  C_19
REMARK    9  A    between atoms: C_13  and  C_21
REMARK   10  A    between atoms: C_13  and  C_22
REMARK   11  A    between atoms: C_14  and  C_24
REMARK   12  A    between atoms: C_24  and  C_25
REMARK   13  A    between atoms: C_27  and  C_29
REMARK   14  A    between atoms: C_28  and  C_30
REMARK                            x       y       z     vdW  Elec       q    Type
REMARK                         _______ _______ _______ _____ _____    ______ ____
ROOT
ATOM      1  S   UNL     1      13.811   8.100   6.901  0.00  0.00    -0.057 S 
ATOM      5  O   UNL     1      10.999   5.579   4.165  0.00  0.00    -0.273 OA
ATOM      8  N   UNL     1      13.581   6.987   4.577  0.00  0.00    -0.229 NA
ATOM     10  N   UNL     1      11.716   6.751   6.086  0.00  0.00    -0.263 N 
ATOM     11  C   UNL     1      16.926   8.636   3.600  0.00  0.00    -0.019 C 
ATOM     12  C   UNL     1      17.478   8.584   5.092  0.00  0.00    +0.011 C 
ATOM     13  C   UNL     1      18.871   9.273   5.366  0.00  0.00    +0.021 C 
ATOM     14  C   UNL     1      15.775   7.537   3.461  0.00  0.00    +0.054 C 
ATOM     15  C   UNL     1      18.067   8.276   2.614  0.00  0.00    +0.010 C 
ATOM     16  C   UNL     1      19.881   8.842   4.265  0.00  0.00    +0.123 C 
ATOM     17  C   UNL     1      16.375   8.969   6.121  0.00  0.00    +0.049 C 
ATOM     18  C   UNL     1      19.354   9.054   2.849  0.00  0.00    +0.032 C 
ATOM     19  C   UNL     1      16.360  10.027   3.217  0.00  0.00    +0.012 C 
ATOM     20  C   UNL     1      14.816   7.607   4.621  0.00  0.00    +0.058 A 
ATOM     22  C   UNL     1      19.427   8.769   6.727  0.00  0.00    +0.016 C 
ATOM     23  C   UNL     1      15.112   8.238   5.812  0.00  0.00    +0.015 A 
ATOM     26  C   UNL     1      12.961   7.187   5.721  0.00  0.00    +0.165 A 
ATOM     28  C   UNL     1      10.825   5.990   5.307  0.00  0.00    +0.244 C 
ATOM     41  H   UNL     1      11.425   7.017   7.023  0.00  0.00    +0.157 HD
ENDROOT
BRANCH  16   2
ATOM      2  O   UNL     1      21.113   9.548   4.407  0.00  0.00    -0.391 OA
ATOM     38  H   UNL     1      20.928  10.384   4.868  0.00  0.00    +0.210 HD
ENDBRANCH  16   2
BRANCH  13  21
ATOM     21  C   UNL     1      18.811  10.812   5.485  0.00  0.00    +0.165 C 
BRANCH  21   3
ATOM      3  O   UNL     1      19.841  11.217   6.359  0.00  0.00    -0.394 OA
ATOM     39  H   UNL     1      19.887  12.187   6.342  0.00  0.00    +0.209 HD
ENDBRANCH  21   3
ENDBRANCH  13  21
BRANCH  14  24
ATOM     24  C   UNL     1      15.034   7.556   2.117  0.00  0.00    +0.106 C 
BRANCH  24  25
ATOM      4  O   UNL     1      15.801   5.971   0.458  0.00  0.00    -0.276 OA
ATOM      9  N   UNL     1      14.216   5.313   2.024  0.00  0.00    -0.311 N 
ATOM     25  C   UNL     1      15.084   6.214   1.424  0.00  0.00    +0.214 C 
ATOM     40  H   UNL     1      13.704   5.586   2.857  0.00  0.00    +0.149 HD
BRANCH   9  27
ATOM     27  C   UNL     1      14.054   3.951   1.569  0.00  0.00    +0.139 C 
BRANCH  27  29
ATOM     29  C   UNL     1      12.997   3.835   0.509  0.00  0.00    -0.030 A 
ATOM     31  C   UNL     1      13.314   3.265  -0.718  0.00  0.00    +0.009 A 
ATOM     32  C   UNL     1      11.713   4.302   0.765  0.00  0.00    +0.009 A 
ATOM     33  C   UNL     1      12.332   3.158  -1.703  0.00  0.00    +0.046 A 
ATOM     34  C   UNL     1      10.731   4.195  -0.220  0.00  0.00    +0.046 A 
ATOM     35  C   UNL     1      11.040   3.624  -1.454  0.00  0.00    +0.120 A 
BRANCH  35   7
ATOM      7  O   UNL     1      10.084   3.519  -2.416  0.00  0.00    -0.495 OA
ATOM     37  C   UNL     1       9.777   4.698  -3.160  0.00  0.00    +0.277 C 
ENDBRANCH  35   7
ENDBRANCH  27  29
ENDBRANCH   9  27
ENDBRANCH  24  25
ENDBRANCH  14  24
BRANCH  28  30
ATOM     30  C   UNL     1       9.540   5.703   6.063  0.00  0.00    +0.255 C 
BRANCH  30   6
ATOM      6  O   UNL     1       9.755   5.745   7.458  0.00  0.00    -0.374 OA
ATOM     36  C   UNL     1       9.835   4.440   8.023  0.00  0.00    +0.194 C 
ENDBRANCH  30   6
ENDBRANCH  28  30
TORSDOF 10
ENDMDL
MODEL 8
REMARK VINA RESULT:      -6.1     28.703     32.971
REMARK  Name = 11867064
REMARK  14 active torsions:
REMARK  status: ('A' for Active; 'I' for Inactive)
REMARK    1  A    between atoms: O_2  and  C_16
REMARK    2  A    between atoms: O_3  and  C_21
REMARK    3  A    between atoms: O_6  and  C_30
REMARK    4  A    between atoms: O_6  and  C_36
REMARK    5  A    between atoms: O_7  and  C_35
REMARK    6  A    between atoms: O_7  and  C_37
REMARK    7  A    between atoms: N_9  and  C_27
REMARK    8  A    between atoms: C_11  and  C_19
REMARK    9  A    between atoms: C_13  and  C_21
REMARK   10  A    between atoms: C_13  and  C_22
REMARK   11  A    between atoms: C_14  and  C_24
REMARK   12  A    between atoms: C_24  and  C_25
REMARK   13  A    between atoms: C_27  and  C_29
REMARK   14  A    between atoms: C_28  and  C_30
REMARK                            x       y       z     vdW  Elec       q    Type
REMARK                         _______ _______ _______ _____ _____    ______ ____
ROOT
ATOM      1  S   UNL     1     -12.743 -12.799  20.106  0.00  0.00    -0.057 S 
ATOM      5  O   UNL     1     -10.081 -14.836  23.349  0.00  0.00    -0.273 OA
ATOM      8  N   UNL     1     -10.328 -13.034  21.001  0.00  0.00    -0.229 NA
ATOM     10  N   UNL     1     -12.040 -14.278  22.154  0.00  0.00    -0.263 N 
ATOM     11  C   UNL     1      -9.145 -10.944  17.985  0.00  0.00    -0.019 C 
ATOM     12  C   UNL     1     -10.506 -10.119  17.922  0.00  0.00    +0.011 C 
ATOM     13  C   UNL     1     -10.677  -9.108  16.723  0.00  0.00    +0.021 C 
ATOM     14  C   UNL     1      -8.999 -11.544  19.458  0.00  0.00    +0.054 C 
ATOM     15  C   UNL     1      -7.951  -9.989  17.726  0.00  0.00    +0.010 C 
ATOM     16  C   UNL     1      -9.378  -8.265  16.575  0.00  0.00    +0.123 C 
ATOM     17  C   UNL     1     -11.740 -11.042  18.145  0.00  0.00    +0.049 C 
ATOM     18  C   UNL     1      -8.116  -9.117  16.490  0.00  0.00    +0.032 C 
ATOM     19  C   UNL     1      -9.092 -12.096  16.950  0.00  0.00    +0.012 C 
ATOM     20  C   UNL     1     -10.287 -12.182  19.913  0.00  0.00    +0.058 A 
ATOM     22  C   UNL     1     -11.833  -8.123  17.052  0.00  0.00    +0.016 C 
ATOM     23  C   UNL     1     -11.508 -11.928  19.322  0.00  0.00    +0.015 A 
ATOM     26  C   UNL     1     -11.569 -13.426  21.191  0.00  0.00    +0.165 A 
ATOM     28  C   UNL     1     -11.289 -14.919  23.156  0.00  0.00    +0.244 C 
ATOM     41  H   UNL     1     -13.042 -14.448  22.123  0.00  0.00    +0.157 HD
ENDROOT
BRANCH  16   2
ATOM      2  O   UNL     1      -9.449  -7.431  15.420  0.00  0.00    -0.391 OA
ATOM     38  H   UNL     1      -9.828  -6.577  15.688  0.00  0.00    +0.210 HD
ENDBRANCH  16   2
BRANCH  13  21
ATOM     21  C   UNL     1     -11.061  -9.767  15.380  0.00  0.00    +0.165 C 
BRANCH  21   3
ATOM      3  O   UNL     1     -11.864  -8.854  14.666  0.00  0.00    -0.394 OA
ATOM     39  H   UNL     1     -12.018  -9.217  13.778  0.00  0.00    +0.209 HD
ENDBRANCH  21   3
ENDBRANCH  13  21
BRANCH  14  24
ATOM     24  C   UNL     1      -7.806 -12.491  19.646  0.00  0.00    +0.106 C 
BRANCH  24  25
ATOM      4  O   UNL     1      -6.283 -10.802  20.470  0.00  0.00    -0.276 OA
ATOM      9  N   UNL     1      -5.581 -12.267  18.808  0.00  0.00    -0.311 N 
ATOM     25  C   UNL     1      -6.495 -11.745  19.712  0.00  0.00    +0.214 C 
ATOM     40  H   UNL     1      -5.825 -13.087  18.262  0.00  0.00    +0.149 HD
BRANCH   9  27
ATOM     27  C   UNL     1      -4.241 -11.748  18.651  0.00  0.00    +0.139 C 
BRANCH  27  29
ATOM     29  C   UNL     1      -3.948 -11.372  17.228  0.00  0.00    -0.030 A 
ATOM     31  C   UNL     1      -2.660 -10.996  16.867  0.00  0.00    +0.009 A 
ATOM     32  C   UNL     1      -4.969 -11.403  16.284  0.00  0.00    +0.009 A 
ATOM     33  C   UNL     1      -2.387 -10.646  15.544  0.00  0.00    +0.046 A 
ATOM     34  C   UNL     1      -4.696 -11.053  14.962  0.00  0.00    +0.046 A 
ATOM     35  C   UNL     1      -3.406 -10.675  14.592  0.00  0.00    +0.120 A 
BRANCH  35   7
ATOM      7  O   UNL     1      -3.139 -10.334  13.302  0.00  0.00    -0.495 OA
ATOM     37  C   UNL     1      -4.108 -10.699  12.319  0.00  0.00    +0.277 C 
ENDBRANCH  35   7
ENDBRANCH  27  29
ENDBRANCH   9  27
ENDBRANCH  24  25
ENDBRANCH  14  24
BRANCH  28  30
ATOM     30  C   UNL     1     -12.172 -15.785  24.037  0.00  0.00    +0.255 C 
BRANCH  30   6
ATOM      6  O   UNL     1     -12.240 -15.265  25.348  0.00  0.00    -0.374 OA
ATOM     36  C   UNL     1     -13.575 -14.936  25.720  0.00  0.00    +0.194 C 
ENDBRANCH  30   6
ENDBRANCH  28  30
TORSDOF 10
ENDMDL
MODEL 9
REMARK VINA RESULT:      -6.0     20.258     25.049
REMARK  Name = 11867064
REMARK  14 active torsions:
REMARK  status: ('A' for Active; 'I' for Inactive)
REMARK    1  A    between atoms: O_2  and  C_16
REMARK    2  A    between atoms: O_3  and  C_21
REMARK    3  A    between atoms: O_6  and  C_30
REMARK    4  A    between atoms: O_6  and  C_36
REMARK    5  A    between atoms: O_7  and  C_35
REMARK    6  A    between atoms: O_7  and  C_37
REMARK    7  A    between atoms: N_9  and  C_27
REMARK    8  A    between atoms: C_11  and  C_19
REMARK    9  A    between atoms: C_13  and  C_21
REMARK   10  A    between atoms: C_13  and  C_22
REMARK   11  A    between atoms: C_14  and  C_24
REMARK   12  A    between atoms: C_24  and  C_25
REMARK   13  A    between atoms: C_27  and  C_29
REMARK   14  A    between atoms: C_28  and  C_30
REMARK                            x       y       z     vdW  Elec       q    Type
REMARK                         _______ _______ _______ _____ _____    ______ ____
ROOT
ATOM      1  S   UNL     1      -4.508  13.473  33.484  0.00  0.00    -0.057 S 
ATOM      5  O   UNL     1       0.050  12.885  34.277  0.00  0.00    -0.273 OA
ATOM      8  N   UNL     1      -2.766  12.136  34.852  0.00  0.00    -0.229 NA
ATOM     10  N   UNL     1      -1.911  13.787  33.318  0.00  0.00    -0.263 N 
ATOM     11  C   UNL     1      -5.697  10.541  36.784  0.00  0.00    -0.019 C 
ATOM     12  C   UNL     1      -6.675  10.631  35.531  0.00  0.00    +0.011 C 
ATOM     13  C   UNL     1      -8.175  10.199  35.760  0.00  0.00    +0.021 C 
ATOM     14  C   UNL     1      -4.195  10.590  36.242  0.00  0.00    +0.054 C 
ATOM     15  C   UNL     1      -5.911   9.188  37.510  0.00  0.00    +0.010 C 
ATOM     16  C   UNL     1      -8.207   8.852  36.537  0.00  0.00    +0.123 C 
ATOM     17  C   UNL     1      -6.520  11.988  34.784  0.00  0.00    +0.049 C 
ATOM     18  C   UNL     1      -7.369   8.874  37.811  0.00  0.00    +0.032 C 
ATOM     19  C   UNL     1      -5.915  11.690  37.800  0.00  0.00    +0.012 C 
ATOM     20  C   UNL     1      -4.020  11.691  35.228  0.00  0.00    +0.058 A 
ATOM     22  C   UNL     1      -8.848   9.953  34.381  0.00  0.00    +0.016 C 
ATOM     23  C   UNL     1      -5.075  12.291  34.573  0.00  0.00    +0.015 A 
ATOM     26  C   UNL     1      -2.901  13.079  33.944  0.00  0.00    +0.165 A 
ATOM     28  C   UNL     1      -0.524  13.654  33.514  0.00  0.00    +0.244 C 
ATOM     41  H   UNL     1      -2.235  14.475  32.643  0.00  0.00    +0.157 HD
ENDROOT
BRANCH  16   2
ATOM      2  O   UNL     1      -9.548   8.499  36.875  0.00  0.00    -0.391 OA
ATOM     38  H   UNL     1      -9.797   8.993  37.673  0.00  0.00    +0.210 HD
ENDBRANCH  16   2
BRANCH  13  21
ATOM     21  C   UNL     1      -9.046  11.262  36.465  0.00  0.00    +0.165 C 
BRANCH  21   3
ATOM      3  O   UNL     1     -10.355  11.155  35.953  0.00  0.00    -0.394 OA
ATOM     39  H   UNL     1     -10.293  10.912  35.014  0.00  0.00    +0.209 HD
ENDBRANCH  21   3
ENDBRANCH  13  21
BRANCH  14  24
ATOM     24  C   UNL     1      -3.123  10.660  37.338  0.00  0.00    +0.106 C 
BRANCH  24  25
ATOM      4  O   UNL     1      -0.952   9.839  36.655  0.00  0.00    -0.276 OA
ATOM      9  N   UNL     1      -2.483   8.375  37.610  0.00  0.00    -0.311 N 
ATOM     25  C   UNL     1      -2.052   9.611  37.151  0.00  0.00    +0.214 C 
ATOM     40  H   UNL     1      -3.389   8.293  38.059  0.00  0.00    +0.149 HD
BRANCH   9  27
ATOM     27  C   UNL     1      -1.666   7.184  37.555  0.00  0.00    +0.139 C 
BRANCH  27  29
ATOM     29  C   UNL     1      -1.542   6.525  38.898  0.00  0.00    -0.030 A 
ATOM     31  C   UNL     1      -2.581   6.632  39.815  0.00  0.00    +0.009 A 
ATOM     32  C   UNL     1      -0.388   5.816  39.212  0.00  0.00    +0.009 A 
ATOM     33  C   UNL     1      -2.466   6.021  41.063  0.00  0.00    +0.046 A 
ATOM     34  C   UNL     1      -0.273   5.205  40.461  0.00  0.00    +0.046 A 
ATOM     35  C   UNL     1      -1.311   5.308  41.387  0.00  0.00    +0.120 A 
BRANCH  35   7
ATOM      7  O   UNL     1      -1.200   4.711  42.605  0.00  0.00    -0.495 OA
ATOM     37  C   UNL     1      -2.359   4.713  43.438  0.00  0.00    +0.277 C 
ENDBRANCH  35   7
ENDBRANCH  27  29
ENDBRANCH   9  27
ENDBRANCH  24  25
ENDBRANCH  14  24
BRANCH  28  30
ATOM     30  C   UNL     1       0.252  14.616  32.632  0.00  0.00    +0.255 C 
BRANCH  30   6
ATOM      6  O   UNL     1       1.462  14.035  32.195  0.00  0.00    -0.374 OA
ATOM     36  C   UNL     1       1.299  13.327  30.969  0.00  0.00    +0.194 C 
ENDBRANCH  30   6
ENDBRANCH  28  30
TORSDOF 10
ENDMDL
MODEL 10
REMARK VINA RESULT:      -5.9     28.052     31.497
REMARK  Name = 11867064
REMARK  14 active torsions:
REMARK  status: ('A' for Active; 'I' for Inactive)
REMARK    1  A    between atoms: O_2  and  C_16
REMARK    2  A    between atoms: O_3  and  C_21
REMARK    3  A    between atoms: O_6  and  C_30
REMARK    4  A    between atoms: O_6  and  C_36
REMARK    5  A    between atoms: O_7  and  C_35
REMARK    6  A    between atoms: O_7  and  C_37
REMARK    7  A    between atoms: N_9  and  C_27
REMARK    8  A    between atoms: C_11  and  C_19
REMARK    9  A    between atoms: C_13  and  C_21
REMARK   10  A    between atoms: C_13  and  C_22
REMARK   11  A    between atoms: C_14  and  C_24
REMARK   12  A    between atoms: C_24  and  C_25
REMARK   13  A    between atoms: C_27  and  C_29
REMARK   14  A    between atoms: C_28  and  C_30
REMARK                            x       y       z     vdW  Elec       q    Type
REMARK                         _______ _______ _______ _____ _____    ______ ____
ROOT
ATOM      1  S   UNL     1      -4.438  -9.281   9.805  0.00  0.00    -0.057 S 
ATOM      5  O   UNL     1      -8.804  -7.951   8.850  0.00  0.00    -0.273 OA
ATOM      8  N   UNL     1      -6.839  -9.110  10.752  0.00  0.00    -0.229 NA
ATOM     10  N   UNL     1      -6.500  -8.328   8.497  0.00  0.00    -0.263 N 
ATOM     11  C   UNL     1      -5.606 -11.010  13.872  0.00  0.00    -0.019 C 
ATOM     12  C   UNL     1      -4.137 -10.409  13.755  0.00  0.00    +0.011 C 
ATOM     13  C   UNL     1      -3.058 -10.950  14.771  0.00  0.00    +0.021 C 
ATOM     14  C   UNL     1      -6.601 -10.039  13.085  0.00  0.00    +0.054 C 
ATOM     15  C   UNL     1      -6.033 -11.044  15.362  0.00  0.00    +0.010 C 
ATOM     16  C   UNL     1      -3.663 -10.960  16.203  0.00  0.00    +0.123 C 
ATOM     17  C   UNL     1      -3.649 -10.383  12.277  0.00  0.00    +0.049 C 
ATOM     18  C   UNL     1      -5.004 -11.682  16.284  0.00  0.00    +0.032 C 
ATOM     19  C   UNL     1      -5.718 -12.443  13.292  0.00  0.00    +0.012 C 
ATOM     20  C   UNL     1      -6.044  -9.672  11.734  0.00  0.00    +0.058 A 
ATOM     22  C   UNL     1      -1.845  -9.978  14.787  0.00  0.00    +0.016 C 
ATOM     23  C   UNL     1      -4.713  -9.817  11.399  0.00  0.00    +0.015 A 
ATOM     26  C   UNL     1      -6.101  -8.870   9.690  0.00  0.00    +0.165 A 
ATOM     28  C   UNL     1      -7.797  -7.908   8.152  0.00  0.00    +0.244 C 
ATOM     41  H   UNL     1      -5.763  -8.227   7.804  0.00  0.00    +0.157 HD
ENDROOT
BRANCH  16   2
ATOM      2  O   UNL     1      -2.759 -11.565  17.127  0.00  0.00    -0.391 OA
ATOM     38  H   UNL     1      -2.002 -10.966  17.243  0.00  0.00    +0.210 HD
ENDBRANCH  16   2
BRANCH  13  21
ATOM     21  C   UNL     1      -2.476 -12.335  14.409  0.00  0.00    +0.165 C 
BRANCH  21   3
ATOM      3  O   UNL     1      -1.121 -12.347  14.798  0.00  0.00    -0.394 OA
ATOM     39  H   UNL     1      -0.672 -11.611  14.349  0.00  0.00    +0.209 HD
ENDBRANCH  21   3
ENDBRANCH  13  21
BRANCH  14  24
ATOM     24  C   UNL     1      -8.043 -10.554  12.977  0.00  0.00    +0.106 C 
BRANCH  24  25
ATOM      4  O   UNL     1     -10.074  -9.250  13.145  0.00  0.00    -0.276 OA
ATOM      9  N   UNL     1      -8.582  -9.283  14.927  0.00  0.00    -0.311 N 
ATOM     25  C   UNL     1      -9.026  -9.632  13.659  0.00  0.00    +0.214 C 
ATOM     40  H   UNL     1      -7.729  -9.695  15.292  0.00  0.00    +0.149 HD
BRANCH   9  27
ATOM     27  C   UNL     1      -9.320  -8.408  15.809  0.00  0.00    +0.139 C 
BRANCH  27  29
ATOM     29  C   UNL     1      -9.767  -9.115  17.055  0.00  0.00    -0.030 A 
ATOM     31  C   UNL     1      -8.880  -9.943  17.732  0.00  0.00    +0.009 A 
ATOM     32  C   UNL     1     -11.066  -8.935  17.519  0.00  0.00    +0.009 A 
ATOM     33  C   UNL     1      -9.296 -10.601  18.890  0.00  0.00    +0.046 A 
ATOM     34  C   UNL     1     -11.482  -9.592  18.677  0.00  0.00    +0.046 A 
ATOM     35  C   UNL     1     -10.598 -10.425  19.362  0.00  0.00    +0.120 A 
BRANCH  35   7
ATOM      7  O   UNL     1     -11.002 -11.066  20.492  0.00  0.00    -0.495 OA
ATOM     37  C   UNL     1     -10.991 -12.494  20.470  0.00  0.00    +0.277 C 
ENDBRANCH  35   7
ENDBRANCH  27  29
ENDBRANCH   9  27
ENDBRANCH  24  25
ENDBRANCH  14  24
BRANCH  28  30
ATOM     30  C   UNL     1      -7.841  -7.359   6.737  0.00  0.00    +0.255 C 
BRANCH  30   6
ATOM      6  O   UNL     1      -8.820  -8.025   5.968  0.00  0.00    -0.374 OA
ATOM     36  C   UNL     1      -8.332  -9.251   5.432  0.00  0.00    +0.194 C 
ENDBRANCH  30   6
ENDBRANCH  28  30
TORSDOF 10
ENDMDL
