MODEL 1
REMARK VINA RESULT:      -6.5      0.000      0.000
REMARK  Name = 75367103
REMARK  5 active torsions:
REMARK  status: ('A' for Active; 'I' for Inactive)
REMARK    1  A    between atoms: O_2  and  C_10
REMARK    2  A    between atoms: N_5  and  C_8
REMARK    3  A    between atoms: N_5  and  C_9
REMARK    4  A    between atoms: N_6  and  C_18
REMARK    5  A    between atoms: C_11  and  C_18
REMARK                            x       y       z     vdW  Elec       q    Type
REMARK                         _______ _______ _______ _____ _____    ______ ____
ROOT
ATOM      1  O   UNL     1      13.220   8.248  21.758  0.00  0.00    -0.371 OA
ATOM      8  C   UNL     1      11.240   9.093  22.762  0.00  0.00    +0.111 C 
ATOM     10  C   UNL     1      10.860   8.178  21.612  0.00  0.00    +0.164 C 
ATOM     11  C   UNL     1      12.133   7.357  21.459  0.00  0.00    +0.165 C 
ATOM     14  C   UNL     1      12.691   9.404  22.433  0.00  0.00    +0.181 C 
ENDROOT
BRANCH  10   2
ATOM      2  O   UNL     1       9.741   7.366  21.908  0.00  0.00    -0.388 OA
ATOM     25  H   UNL     1       9.096   7.902  22.400  0.00  0.00    +0.210 HD
ENDBRANCH  10   2
BRANCH   8   5
ATOM      5  N   UNL     1      10.413  10.286  22.856  0.00  0.00    -0.306 NA
ATOM     24  H   UNL     1       9.623  10.117  23.478  0.00  0.00    +0.123 HD
BRANCH   5   9
ATOM      9  C   UNL     1      11.189  11.427  23.338  0.00  0.00    +0.054 C 
ATOM     12  C   UNL     1      10.840  12.677  22.522  0.00  0.00    +0.019 C 
ATOM     13  C   UNL     1      10.919  11.648  24.831  0.00  0.00    +0.019 C 
ATOM     15  C   UNL     1      11.576  13.907  23.048  0.00  0.00    +0.002 C 
ATOM     16  C   UNL     1      11.655  12.879  25.353  0.00  0.00    +0.002 C 
ATOM     17  C   UNL     1      11.319  14.124  24.536  0.00  0.00    +0.000 C 
ENDBRANCH   5   9
ENDBRANCH   8   5
BRANCH  11  18
ATOM     18  C   UNL     1      12.311   6.779  20.066  0.00  0.00    +0.140 C 
BRANCH  18   6
ATOM      3  O   UNL     1      14.495  11.061  15.813  0.00  0.00    -0.377 OA
ATOM      4  O   UNL     1      11.677   7.306  17.375  0.00  0.00    -0.253 OA
ATOM      6  N   UNL     1      13.015   7.697  19.198  0.00  0.00    -0.297 N 
ATOM      7  N   UNL     1      13.422   8.818  17.157  0.00  0.00    -0.281 N 
ATOM     19  C   UNL     1      12.637   7.901  17.876  0.00  0.00    +0.302 C 
ATOM     20  C   UNL     1      14.665   9.450  17.626  0.00  0.00    +0.137 C 
ATOM     21  C   UNL     1      13.100   9.089  15.755  0.00  0.00    +0.137 C 
ATOM     22  C   UNL     1      14.713  10.919  17.217  0.00  0.00    +0.179 C 
ATOM     23  C   UNL     1      13.203  10.576  15.449  0.00  0.00    +0.179 C 
ATOM     26  H   UNL     1      13.810   8.169  19.604  0.00  0.00    +0.150 HD
ENDBRANCH  18   6
ENDBRANCH  11  18
TORSDOF 5
ENDMDL
MODEL 2
REMARK VINA RESULT:      -6.4      2.917      6.891
REMARK  Name = 75367103
REMARK  5 active torsions:
REMARK  status: ('A' for Active; 'I' for Inactive)
REMARK    1  A    between atoms: O_2  and  C_10
REMARK    2  A    between atoms: N_5  and  C_8
REMARK    3  A    between atoms: N_5  and  C_9
REMARK    4  A    between atoms: N_6  and  C_18
REMARK    5  A    between atoms: C_11  and  C_18
REMARK                            x       y       z     vdW  Elec       q    Type
REMARK                         _______ _______ _______ _____ _____    ______ ____
ROOT
ATOM      1  O   UNL     1      11.222   7.418  20.696  0.00  0.00    -0.371 OA
ATOM      8  C   UNL     1      13.491   8.069  20.429  0.00  0.00    +0.111 C 
ATOM     10  C   UNL     1      12.863   8.904  21.529  0.00  0.00    +0.164 C 
ATOM     11  C   UNL     1      11.673   8.036  21.913  0.00  0.00    +0.165 C 
ATOM     14  C   UNL     1      12.260   7.547  19.707  0.00  0.00    +0.181 C 
ENDROOT
BRANCH  10   2
ATOM      2  O   UNL     1      13.738   9.114  22.621  0.00  0.00    -0.388 OA
ATOM     25  H   UNL     1      13.904   8.258  23.050  0.00  0.00    +0.210 HD
ENDBRANCH  10   2
BRANCH   8   5
ATOM      5  N   UNL     1      14.379   8.824  19.559  0.00  0.00    -0.306 NA
ATOM     24  H   UNL     1      14.438   9.792  19.873  0.00  0.00    +0.123 HD
BRANCH   5   9
ATOM      9  C   UNL     1      15.714   8.230  19.527  0.00  0.00    +0.054 C 
ATOM     12  C   UNL     1      16.443   8.516  20.845  0.00  0.00    +0.019 C 
ATOM     13  C   UNL     1      15.610   6.723  19.268  0.00  0.00    +0.019 C 
ATOM     15  C   UNL     1      17.814   7.846  20.879  0.00  0.00    +0.002 C 
ATOM     16  C   UNL     1      16.983   6.056  19.304  0.00  0.00    +0.002 C 
ATOM     17  C   UNL     1      17.716   6.347  20.611  0.00  0.00    +0.000 C 
ENDBRANCH   5   9
ENDBRANCH   8   5
BRANCH  11  18
ATOM     18  C   UNL     1      10.536   8.820  22.543  0.00  0.00    +0.140 C 
BRANCH  18   6
ATOM      3  O   UNL     1      12.055  15.056  22.621  0.00  0.00    -0.377 OA
ATOM      4  O   UNL     1      11.007  10.655  24.624  0.00  0.00    -0.253 OA
ATOM      6  N   UNL     1      10.724  10.245  22.385  0.00  0.00    -0.297 N 
ATOM      7  N   UNL     1      11.109  12.447  23.156  0.00  0.00    -0.281 N 
ATOM     19  C   UNL     1      10.952  11.085  23.468  0.00  0.00    +0.302 C 
ATOM     20  C   UNL     1      10.908  13.061  21.835  0.00  0.00    +0.137 C 
ATOM     21  C   UNL     1      11.346  13.405  24.237  0.00  0.00    +0.137 C 
ATOM     22  C   UNL     1      11.982  14.107  21.556  0.00  0.00    +0.179 C 
ATOM     23  C   UNL     1      12.414  14.415  23.846  0.00  0.00    +0.179 C 
ATOM     26  H   UNL     1      10.660  10.598  21.441  0.00  0.00    +0.150 HD
ENDBRANCH  18   6
ENDBRANCH  11  18
TORSDOF 5
ENDMDL
MODEL 3
REMARK VINA RESULT:      -6.2      6.279      8.264
REMARK  Name = 75367103
REMARK  5 active torsions:
REMARK  status: ('A' for Active; 'I' for Inactive)
REMARK    1  A    between atoms: O_2  and  C_10
REMARK    2  A    between atoms: N_5  and  C_8
REMARK    3  A    between atoms: N_5  and  C_9
REMARK    4  A    between atoms: N_6  and  C_18
REMARK    5  A    between atoms: C_11  and  C_18
REMARK                            x       y       z     vdW  Elec       q    Type
REMARK                         _______ _______ _______ _____ _____    ______ ____
ROOT
ATOM      1  O   UNL     1      17.619   6.929  19.843  0.00  0.00    -0.371 OA
ATOM      8  C   UNL     1      15.298   6.977  20.350  0.00  0.00    +0.111 C 
ATOM     10  C   UNL     1      16.071   7.585  21.507  0.00  0.00    +0.164 C 
ATOM     11  C   UNL     1      17.381   7.953  20.824  0.00  0.00    +0.165 C 
ATOM     14  C   UNL     1      16.393   6.207  19.630  0.00  0.00    +0.181 C 
ENDROOT
BRANCH  10   2
ATOM      2  O   UNL     1      15.427   8.718  22.057  0.00  0.00    -0.388 OA
ATOM     25  H   UNL     1      15.335   9.387  21.359  0.00  0.00    +0.210 HD
ENDBRANCH  10   2
BRANCH   8   5
ATOM      5  N   UNL     1      14.192   6.132  20.767  0.00  0.00    -0.306 NA
ATOM     24  H   UNL     1      14.193   6.029  21.782  0.00  0.00    +0.123 HD
BRANCH   5   9
ATOM      9  C   UNL     1      12.913   6.683  20.325  0.00  0.00    +0.054 C 
ATOM     12  C   UNL     1      12.098   7.147  21.538  0.00  0.00    +0.019 C 
ATOM     13  C   UNL     1      13.152   7.837  19.345  0.00  0.00    +0.019 C 
ATOM     15  C   UNL     1      10.785   7.799  21.109  0.00  0.00    +0.002 C 
ATOM     16  C   UNL     1      11.838   8.487  18.920  0.00  0.00    +0.002 C 
ATOM     17  C   UNL     1      11.019   8.941  20.125  0.00  0.00    +0.000 C 
ENDBRANCH   5   9
ENDBRANCH   8   5
BRANCH  11  18
ATOM     18  C   UNL     1      18.556   8.029  21.782  0.00  0.00    +0.140 C 
BRANCH  18   6
ATOM      3  O   UNL     1      22.580   3.029  21.806  0.00  0.00    -0.377 OA
ATOM      4  O   UNL     1      20.500   7.139  23.611  0.00  0.00    -0.253 OA
ATOM      6  N   UNL     1      19.493   6.950  21.559  0.00  0.00    -0.297 N 
ATOM      7  N   UNL     1      21.271   5.510  22.152  0.00  0.00    -0.281 N 
ATOM     19  C   UNL     1      20.425   6.571  22.517  0.00  0.00    +0.302 C 
ATOM     20  C   UNL     1      21.351   4.884  20.824  0.00  0.00    +0.137 C 
ATOM     21  C   UNL     1      22.288   5.050  23.098  0.00  0.00    +0.137 C 
ATOM     22  C   UNL     1      21.491   3.370  20.947  0.00  0.00    +0.179 C 
ATOM     23  C   UNL     1      22.361   3.530  23.125  0.00  0.00    +0.179 C 
ATOM     26  H   UNL     1      19.442   6.499  20.657  0.00  0.00    +0.150 HD
ENDBRANCH  18   6
ENDBRANCH  11  18
TORSDOF 5
ENDMDL
MODEL 4
REMARK VINA RESULT:      -6.2     25.596     27.336
REMARK  Name = 75367103
REMARK  5 active torsions:
REMARK  status: ('A' for Active; 'I' for Inactive)
REMARK    1  A    between atoms: O_2  and  C_10
REMARK    2  A    between atoms: N_5  and  C_8
REMARK    3  A    between atoms: N_5  and  C_9
REMARK    4  A    between atoms: N_6  and  C_18
REMARK    5  A    between atoms: C_11  and  C_18
REMARK                            x       y       z     vdW  Elec       q    Type
REMARK                         _______ _______ _______ _____ _____    ______ ____
ROOT
ATOM      1  O   UNL     1      -1.116 -11.442  15.084  0.00  0.00    -0.371 OA
ATOM      8  C   UNL     1      -3.191 -11.011  16.157  0.00  0.00    +0.111 C 
ATOM     10  C   UNL     1      -3.454 -11.683  14.822  0.00  0.00    +0.164 C 
ATOM     11  C   UNL     1      -2.106 -12.338  14.552  0.00  0.00    +0.165 C 
ATOM     14  C   UNL     1      -1.768 -10.512  15.967  0.00  0.00    +0.181 C 
ENDROOT
BRANCH  10   2
ATOM      2  O   UNL     1      -4.499 -12.633  14.886  0.00  0.00    -0.388 OA
ATOM     25  H   UNL     1      -5.134 -12.345  15.564  0.00  0.00    +0.210 HD
ENDBRANCH  10   2
BRANCH   8   5
ATOM      5  N   UNL     1      -4.128  -9.943  16.468  0.00  0.00    -0.306 NA
ATOM     24  H   UNL     1      -4.724  -9.755  15.662  0.00  0.00    +0.123 HD
BRANCH   5   9
ATOM      9  C   UNL     1      -4.951 -10.286  17.626  0.00  0.00    +0.054 C 
ATOM     12  C   UNL     1      -6.378 -10.612  17.172  0.00  0.00    +0.019 C 
ATOM     13  C   UNL     1      -4.327 -11.467  18.379  0.00  0.00    +0.019 C 
ATOM     15  C   UNL     1      -7.249 -11.049  18.348  0.00  0.00    +0.002 C 
ATOM     16  C   UNL     1      -5.200 -11.902  19.553  0.00  0.00    +0.002 C 
ATOM     17  C   UNL     1      -6.626 -12.217  19.107  0.00  0.00    +0.000 C 
ENDBRANCH   5   9
ENDBRANCH   8   5
BRANCH  11  18
ATOM     18  C   UNL     1      -1.841 -12.580  13.077  0.00  0.00    +0.140 C 
BRANCH  18   6
ATOM      3  O   UNL     1      -5.642  -9.651   8.815  0.00  0.00    -0.377 OA
ATOM      4  O   UNL     1      -1.670 -10.116  11.729  0.00  0.00    -0.253 OA
ATOM      6  N   UNL     1      -2.874 -11.998  12.250  0.00  0.00    -0.297 N 
ATOM      7  N   UNL     1      -3.807 -10.334  10.853  0.00  0.00    -0.281 N 
ATOM     19  C   UNL     1      -2.711 -10.772  11.617  0.00  0.00    +0.302 C 
ATOM     20  C   UNL     1      -5.129 -10.974  10.790  0.00  0.00    +0.137 C 
ATOM     21  C   UNL     1      -3.724  -9.049  10.156  0.00  0.00    +0.137 C 
ATOM     22  C   UNL     1      -5.665 -10.970   9.362  0.00  0.00    +0.179 C 
ATOM     23  C   UNL     1      -4.306  -9.150   8.755  0.00  0.00    +0.179 C 
ATOM     26  H   UNL     1      -3.731 -12.527  12.175  0.00  0.00    +0.150 HD
ENDBRANCH  18   6
ENDBRANCH  11  18
TORSDOF 5
ENDMDL
MODEL 5
REMARK VINA RESULT:      -6.2     26.702     28.712
REMARK  Name = 75367103
REMARK  5 active torsions:
REMARK  status: ('A' for Active; 'I' for Inactive)
REMARK    1  A    between atoms: O_2  and  C_10
REMARK    2  A    between atoms: N_5  and  C_8
REMARK    3  A    between atoms: N_5  and  C_9
REMARK    4  A    between atoms: N_6  and  C_18
REMARK    5  A    between atoms: C_11  and  C_18
REMARK                            x       y       z     vdW  Elec       q    Type
REMARK                         _______ _______ _______ _____ _____    ______ ____
ROOT
ATOM      1  O   UNL     1      -3.268 -11.495  16.724  0.00  0.00    -0.371 OA
ATOM      8  C   UNL     1      -4.149 -10.569  14.722  0.00  0.00    +0.111 C 
ATOM     10  C   UNL     1      -5.175 -10.419  15.830  0.00  0.00    +0.164 C 
ATOM     11  C   UNL     1      -4.294 -10.548  17.065  0.00  0.00    +0.165 C 
ATOM     14  C   UNL     1      -3.244 -11.648  15.294  0.00  0.00    +0.181 C 
ENDROOT
BRANCH  10   2
ATOM      2  O   UNL     1      -5.846  -9.175  15.788  0.00  0.00    -0.388 OA
ATOM     25  H   UNL     1      -6.635  -9.271  15.229  0.00  0.00    +0.210 HD
ENDBRANCH  10   2
BRANCH   8   5
ATOM      5  N   UNL     1      -4.725 -10.935  13.439  0.00  0.00    -0.306 NA
ATOM     24  H   UNL     1      -5.739 -11.014  13.519  0.00  0.00    +0.123 HD
BRANCH   5   9
ATOM      9  C   UNL     1      -4.384  -9.956  12.409  0.00  0.00    +0.054 C 
ATOM     12  C   UNL     1      -3.190 -10.456  11.588  0.00  0.00    +0.019 C 
ATOM     13  C   UNL     1      -5.600  -9.694  11.514  0.00  0.00    +0.019 C 
ATOM     15  C   UNL     1      -2.853  -9.492  10.453  0.00  0.00    +0.002 C 
ATOM     16  C   UNL     1      -5.259  -8.731  10.380  0.00  0.00    +0.002 C 
ATOM     17  C   UNL     1      -4.064  -9.220   9.566  0.00  0.00    +0.000 C 
ENDBRANCH   5   9
ENDBRANCH   8   5
BRANCH  11  18
ATOM     18  C   UNL     1      -5.048 -11.027  18.293  0.00  0.00    +0.140 C 
BRANCH  18   6
ATOM      3  O   UNL     1     -11.322  -9.775  18.802  0.00  0.00    -0.377 OA
ATOM      4  O   UNL     1      -7.009 -11.779  20.166  0.00  0.00    -0.253 OA
ATOM      6  N   UNL     1      -6.467 -10.776  18.175  0.00  0.00    -0.297 N 
ATOM      7  N   UNL     1      -8.718 -10.872  18.888  0.00  0.00    -0.281 N 
ATOM     19  C   UNL     1      -7.373 -11.181  19.148  0.00  0.00    +0.302 C 
ATOM     20  C   UNL     1      -9.252 -10.305  17.641  0.00  0.00    +0.137 C 
ATOM     21  C   UNL     1      -9.742 -11.268  19.857  0.00  0.00    +0.137 C 
ATOM     22  C   UNL     1     -10.314  -9.251  17.937  0.00  0.00    +0.179 C 
ATOM     23  C   UNL     1     -10.762 -10.157  20.059  0.00  0.00    +0.179 C 
ATOM     26  H   UNL     1      -6.764 -10.304  17.333  0.00  0.00    +0.150 HD
ENDBRANCH  18   6
ENDBRANCH  11  18
TORSDOF 5
ENDMDL
MODEL 6
REMARK VINA RESULT:      -6.1     26.522     28.983
REMARK  Name = 75367103
REMARK  5 active torsions:
REMARK  status: ('A' for Active; 'I' for Inactive)
REMARK    1  A    between atoms: O_2  and  C_10
REMARK    2  A    between atoms: N_5  and  C_8
REMARK    3  A    between atoms: N_5  and  C_9
REMARK    4  A    between atoms: N_6  and  C_18
REMARK    5  A    between atoms: C_11  and  C_18
REMARK                            x       y       z     vdW  Elec       q    Type
REMARK                         _______ _______ _______ _____ _____    ______ ____
ROOT
ATOM      1  O   UNL     1     -16.966   3.902  22.004  0.00  0.00    -0.371 OA
ATOM      8  C   UNL     1     -15.030   5.163  22.555  0.00  0.00    +0.111 C 
ATOM     10  C   UNL     1     -15.524   4.446  23.799  0.00  0.00    +0.164 C 
ATOM     11  C   UNL     1     -16.366   3.337  23.182  0.00  0.00    +0.165 C 
ATOM     14  C   UNL     1     -16.264   5.112  21.669  0.00  0.00    +0.181 C 
ENDROOT
BRANCH  10   2
ATOM      2  O   UNL     1     -14.468   3.931  24.587  0.00  0.00    -0.388 OA
ATOM     25  H   UNL     1     -14.523   2.960  24.575  0.00  0.00    +0.210 HD
ENDBRANCH  10   2
BRANCH   8   5
ATOM      5  N   UNL     1     -14.572   6.520  22.809  0.00  0.00    -0.306 NA
ATOM     24  H   UNL     1     -13.940   6.533  23.609  0.00  0.00    +0.123 HD
BRANCH   5   9
ATOM      9  C   UNL     1     -13.899   7.075  21.636  0.00  0.00    +0.054 C 
ATOM     12  C   UNL     1     -13.626   8.568  21.850  0.00  0.00    +0.019 C 
ATOM     13  C   UNL     1     -12.599   6.308  21.369  0.00  0.00    +0.019 C 
ATOM     15  C   UNL     1     -12.855   9.166  20.675  0.00  0.00    +0.002 C 
ATOM     16  C   UNL     1     -11.829   6.909  20.195  0.00  0.00    +0.002 C 
ATOM     17  C   UNL     1     -11.565   8.398  20.399  0.00  0.00    +0.000 C 
ENDBRANCH   5   9
ENDBRANCH   8   5
BRANCH  11  18
ATOM     18  C   UNL     1     -17.448   2.818  24.111  0.00  0.00    +0.140 C 
BRANCH  18   6
ATOM      3  O   UNL     1     -15.132   2.563  30.092  0.00  0.00    -0.377 OA
ATOM      4  O   UNL     1     -16.907   0.689  25.871  0.00  0.00    -0.253 OA
ATOM      6  N   UNL     1     -17.062   2.947  25.499  0.00  0.00    -0.297 N 
ATOM      7  N   UNL     1     -16.454   2.129  27.631  0.00  0.00    -0.281 N 
ATOM     19  C   UNL     1     -16.812   1.842  26.303  0.00  0.00    +0.302 C 
ATOM     20  C   UNL     1     -16.466   3.456  28.265  0.00  0.00    +0.137 C 
ATOM     21  C   UNL     1     -16.179   1.024  28.551  0.00  0.00    +0.137 C 
ATOM     22  C   UNL     1     -15.245   3.639  29.160  0.00  0.00    +0.179 C 
ATOM     23  C   UNL     1     -14.960   1.319  29.411  0.00  0.00    +0.179 C 
ATOM     26  H   UNL     1     -17.003   3.890  25.855  0.00  0.00    +0.150 HD
ENDBRANCH  18   6
ENDBRANCH  11  18
TORSDOF 5
ENDMDL
MODEL 7
REMARK VINA RESULT:      -6.1      6.751      9.326
REMARK  Name = 75367103
REMARK  5 active torsions:
REMARK  status: ('A' for Active; 'I' for Inactive)
REMARK    1  A    between atoms: O_2  and  C_10
REMARK    2  A    between atoms: N_5  and  C_8
REMARK    3  A    between atoms: N_5  and  C_9
REMARK    4  A    between atoms: N_6  and  C_18
REMARK    5  A    between atoms: C_11  and  C_18
REMARK                            x       y       z     vdW  Elec       q    Type
REMARK                         _______ _______ _______ _____ _____    ______ ____
ROOT
ATOM      1  O   UNL     1      18.693   7.131  21.826  0.00  0.00    -0.371 OA
ATOM      8  C   UNL     1      19.949   5.897  20.231  0.00  0.00    +0.111 C 
ATOM     10  C   UNL     1      18.472   5.615  20.024  0.00  0.00    +0.164 C 
ATOM     11  C   UNL     1      17.844   6.821  20.708  0.00  0.00    +0.165 C 
ATOM     14  C   UNL     1      19.953   6.460  21.643  0.00  0.00    +0.181 C 
ENDROOT
BRANCH  10   2
ATOM      2  O   UNL     1      18.117   5.539  18.657  0.00  0.00    -0.388 OA
ATOM     25  H   UNL     1      18.933   5.527  18.129  0.00  0.00    +0.210 HD
ENDBRANCH  10   2
BRANCH   8   5
ATOM      5  N   UNL     1      20.793   4.722  20.088  0.00  0.00    -0.306 NA
ATOM     24  H   UNL     1      21.232   4.716  19.167  0.00  0.00    +0.123 HD
BRANCH   5   9
ATOM      9  C   UNL     1      21.819   4.682  21.127  0.00  0.00    +0.054 C 
ATOM     12  C   UNL     1      21.857   3.291  21.769  0.00  0.00    +0.019 C 
ATOM     13  C   UNL     1      23.181   5.053  20.530  0.00  0.00    +0.019 C 
ATOM     15  C   UNL     1      22.971   3.188  22.809  0.00  0.00    +0.002 C 
ATOM     16  C   UNL     1      24.293   4.949  21.572  0.00  0.00    +0.002 C 
ATOM     17  C   UNL     1      24.327   3.568  22.222  0.00  0.00    +0.000 C 
ENDBRANCH   5   9
ENDBRANCH   8   5
BRANCH  11  18
ATOM     18  C   UNL     1      16.429   6.567  21.194  0.00  0.00    +0.140 C 
BRANCH  18   6
ATOM      3  O   UNL     1      11.693   8.595  17.365  0.00  0.00    -0.377 OA
ATOM      4  O   UNL     1      13.704   7.114  21.636  0.00  0.00    -0.253 OA
ATOM      6  N   UNL     1      15.454   6.879  20.172  0.00  0.00    -0.297 N 
ATOM      7  N   UNL     1      13.295   7.417  19.374  0.00  0.00    -0.281 N 
ATOM     19  C   UNL     1      14.123   7.137  20.474  0.00  0.00    +0.302 C 
ATOM     20  C   UNL     1      13.674   7.315  17.956  0.00  0.00    +0.137 C 
ATOM     21  C   UNL     1      11.875   7.694  19.599  0.00  0.00    +0.137 C 
ATOM     22  C   UNL     1      13.102   8.482  17.158  0.00  0.00    +0.179 C 
ATOM     23  C   UNL     1      11.402   8.855  18.739  0.00  0.00    +0.179 C 
ATOM     26  H   UNL     1      15.794   6.879  19.221  0.00  0.00    +0.150 HD
ENDBRANCH  18   6
ENDBRANCH  11  18
TORSDOF 5
ENDMDL
MODEL 8
REMARK VINA RESULT:      -6.0     25.741     27.613
REMARK  Name = 75367103
REMARK  5 active torsions:
REMARK  status: ('A' for Active; 'I' for Inactive)
REMARK    1  A    between atoms: O_2  and  C_10
REMARK    2  A    between atoms: N_5  and  C_8
REMARK    3  A    between atoms: N_5  and  C_9
REMARK    4  A    between atoms: N_6  and  C_18
REMARK    5  A    between atoms: C_11  and  C_18
REMARK                            x       y       z     vdW  Elec       q    Type
REMARK                         _______ _______ _______ _____ _____    ______ ____
ROOT
ATOM      1  O   UNL     1      -1.250 -11.154  14.610  0.00  0.00    -0.371 OA
ATOM      8  C   UNL     1      -3.343 -10.925  15.710  0.00  0.00    +0.111 C 
ATOM     10  C   UNL     1      -3.558 -10.825  14.210  0.00  0.00    +0.164 C 
ATOM     11  C   UNL     1      -2.297 -11.499  13.688  0.00  0.00    +0.165 C 
ATOM     14  C   UNL     1      -1.851 -10.656  15.818  0.00  0.00    +0.181 C 
ENDROOT
BRANCH  10   2
ATOM      2  O   UNL     1      -4.730 -11.491  13.781  0.00  0.00    -0.388 OA
ATOM     25  H   UNL     1      -5.401 -11.409  14.479  0.00  0.00    +0.210 HD
ENDBRANCH  10   2
BRANCH   8   5
ATOM      5  N   UNL     1      -4.145  -9.986  16.478  0.00  0.00    -0.306 NA
ATOM     24  H   UNL     1      -4.510  -9.255  15.867  0.00  0.00    +0.123 HD
BRANCH   5   9
ATOM      9  C   UNL     1      -5.249 -10.667  17.152  0.00  0.00    +0.054 C 
ATOM     12  C   UNL     1      -4.834 -11.047  18.578  0.00  0.00    +0.019 C 
ATOM     13  C   UNL     1      -6.490  -9.767  17.158  0.00  0.00    +0.019 C 
ATOM     15  C   UNL     1      -5.989 -11.693  19.339  0.00  0.00    +0.002 C 
ATOM     16  C   UNL     1      -7.643 -10.415  17.922  0.00  0.00    +0.002 C 
ATOM     17  C   UNL     1      -7.230 -10.805  19.339  0.00  0.00    +0.000 C 
ENDBRANCH   5   9
ENDBRANCH   8   5
BRANCH  11  18
ATOM     18  C   UNL     1      -1.915 -11.055  12.287  0.00  0.00    +0.140 C 
BRANCH  18   6
ATOM      3  O   UNL     1      -6.213 -11.175   7.522  0.00  0.00    -0.377 OA
ATOM      4  O   UNL     1      -2.673  -9.172  10.338  0.00  0.00    -0.253 OA
ATOM      6  N   UNL     1      -3.023 -11.192  11.367  0.00  0.00    -0.297 N 
ATOM      7  N   UNL     1      -4.440 -10.486   9.613  0.00  0.00    -0.281 N 
ATOM     19  C   UNL     1      -3.332 -10.212  10.432  0.00  0.00    +0.302 C 
ATOM     20  C   UNL     1      -5.366 -11.619   9.757  0.00  0.00    +0.137 C 
ATOM     21  C   UNL     1      -4.842  -9.505   8.603  0.00  0.00    +0.137 C 
ATOM     22  C   UNL     1      -5.731 -12.198   8.394  0.00  0.00    +0.179 C 
ATOM     23  C   UNL     1      -5.207 -10.187   7.294  0.00  0.00    +0.179 C 
ATOM     26  H   UNL     1      -3.571 -12.035  11.457  0.00  0.00    +0.150 HD
ENDBRANCH  18   6
ENDBRANCH  11  18
TORSDOF 5
ENDMDL
MODEL 9
REMARK VINA RESULT:      -6.0     27.534     29.787
REMARK  Name = 75367103
REMARK  5 active torsions:
REMARK  status: ('A' for Active; 'I' for Inactive)
REMARK    1  A    between atoms: O_2  and  C_10
REMARK    2  A    between atoms: N_5  and  C_8
REMARK    3  A    between atoms: N_5  and  C_9
REMARK    4  A    between atoms: N_6  and  C_18
REMARK    5  A    between atoms: C_11  and  C_18
REMARK                            x       y       z     vdW  Elec       q    Type
REMARK                         _______ _______ _______ _____ _____    ______ ____
ROOT
ATOM      1  O   UNL     1     -10.102 -12.645  18.280  0.00  0.00    -0.371 OA
ATOM      8  C   UNL     1      -8.612 -11.478  19.716  0.00  0.00    +0.111 C 
ATOM     10  C   UNL     1      -9.886 -10.667  19.559  0.00  0.00    +0.164 C 
ATOM     11  C   UNL     1     -10.862 -11.741  19.099  0.00  0.00    +0.165 C 
ATOM     14  C   UNL     1      -8.703 -12.414  18.522  0.00  0.00    +0.181 C 
ENDROOT
BRANCH  10   2
ATOM      2  O   UNL     1     -10.299 -10.061  20.768  0.00  0.00    -0.388 OA
ATOM     25  H   UNL     1      -9.563  -9.526  21.110  0.00  0.00    +0.210 HD
ENDBRANCH  10   2
BRANCH   8   5
ATOM      5  N   UNL     1      -7.403 -10.672  19.713  0.00  0.00    -0.306 NA
ATOM     24  H   UNL     1      -6.843 -10.874  20.541  0.00  0.00    +0.123 HD
BRANCH   5   9
ATOM      9  C   UNL     1      -6.611 -10.915  18.508  0.00  0.00    +0.054 C 
ATOM     12  C   UNL     1      -6.717  -9.713  17.563  0.00  0.00    +0.019 C 
ATOM     13  C   UNL     1      -5.153 -11.193  18.889  0.00  0.00    +0.019 C 
ATOM     15  C   UNL     1      -5.842  -9.900  16.326  0.00  0.00    +0.002 C 
ATOM     16  C   UNL     1      -4.280 -11.378  17.650  0.00  0.00    +0.002 C 
ATOM     17  C   UNL     1      -4.391 -10.188  16.701  0.00  0.00    +0.000 C 
ENDBRANCH   5   9
ENDBRANCH   8   5
BRANCH  11  18
ATOM     18  C   UNL     1     -12.032 -11.188  18.304  0.00  0.00    +0.140 C 
BRANCH  18   6
ATOM      3  O   UNL     1     -11.348  -5.796  14.890  0.00  0.00    -0.377 OA
ATOM      4  O   UNL     1     -12.191 -10.626  15.551  0.00  0.00    -0.253 OA
ATOM      6  N   UNL     1     -11.699  -9.926  17.680  0.00  0.00    -0.297 N 
ATOM      7  N   UNL     1     -11.439  -8.453  15.850  0.00  0.00    -0.281 N 
ATOM     19  C   UNL     1     -11.805  -9.730  16.309  0.00  0.00    +0.302 C 
ATOM     20  C   UNL     1     -10.828  -7.385  16.656  0.00  0.00    +0.137 C 
ATOM     21  C   UNL     1     -11.514  -8.160  14.418  0.00  0.00    +0.137 C 
ATOM     22  C   UNL     1     -11.425  -6.028  16.297  0.00  0.00    +0.179 C 
ATOM     23  C   UNL     1     -12.098  -6.777  14.173  0.00  0.00    +0.179 C 
ATOM     26  H   UNL     1     -11.366  -9.201  18.298  0.00  0.00    +0.150 HD
ENDBRANCH  18   6
ENDBRANCH  11  18
TORSDOF 5
ENDMDL
MODEL 10
REMARK VINA RESULT:      -5.9     27.142     29.276
REMARK  Name = 75367103
REMARK  5 active torsions:
REMARK  status: ('A' for Active; 'I' for Inactive)
REMARK    1  A    between atoms: O_2  and  C_10
REMARK    2  A    between atoms: N_5  and  C_8
REMARK    3  A    between atoms: N_5  and  C_9
REMARK    4  A    between atoms: N_6  and  C_18
REMARK    5  A    between atoms: C_11  and  C_18
REMARK                            x       y       z     vdW  Elec       q    Type
REMARK                         _______ _______ _______ _____ _____    ______ ____
ROOT
ATOM      1  O   UNL     1     -10.613  -8.933  14.646  0.00  0.00    -0.371 OA
ATOM      8  C   UNL     1     -11.898  -6.963  14.309  0.00  0.00    +0.111 C 
ATOM     10  C   UNL     1     -11.172  -6.860  15.639  0.00  0.00    +0.164 C 
ATOM     11  C   UNL     1     -10.054  -7.874  15.442  0.00  0.00    +0.165 C 
ATOM     14  C   UNL     1     -11.832  -8.459  14.046  0.00  0.00    +0.181 C 
ENDROOT
BRANCH  10   2
ATOM      2  O   UNL     1     -10.669  -5.561  15.887  0.00  0.00    -0.388 OA
ATOM     25  H   UNL     1      -9.778  -5.500  15.504  0.00  0.00    +0.210 HD
ENDBRANCH  10   2
BRANCH   8   5
ATOM      5  N   UNL     1     -13.260  -6.455  14.348  0.00  0.00    -0.306 NA
ATOM     24  H   UNL     1     -13.616  -6.479  15.303  0.00  0.00    +0.123 HD
BRANCH   5   9
ATOM      9  C   UNL     1     -13.327  -5.092  13.826  0.00  0.00    +0.054 C 
ATOM     12  C   UNL     1     -12.256  -4.892  12.748  0.00  0.00    +0.019 C 
ATOM     13  C   UNL     1     -14.729  -4.814  13.272  0.00  0.00    +0.019 C 
ATOM     15  C   UNL     1     -12.346  -3.501  12.126  0.00  0.00    +0.002 C 
ATOM     16  C   UNL     1     -14.815  -3.422  12.649  0.00  0.00    +0.002 C 
ATOM     17  C   UNL     1     -13.743  -3.216  11.582  0.00  0.00    +0.000 C 
ENDBRANCH   5   9
ENDBRANCH   8   5
BRANCH  11  18
ATOM     18  C   UNL     1      -9.519  -8.439  16.745  0.00  0.00    +0.140 C 
BRANCH  18   6
ATOM      3  O   UNL     1      -3.911 -11.543  16.412  0.00  0.00    -0.377 OA
ATOM      4  O   UNL     1      -8.259 -10.311  18.427  0.00  0.00    -0.253 OA
ATOM      6  N   UNL     1      -8.169  -8.934  16.594  0.00  0.00    -0.297 N 
ATOM      7  N   UNL     1      -6.294 -10.241  17.197  0.00  0.00    -0.281 N 
ATOM     19  C   UNL     1      -7.619  -9.861  17.471  0.00  0.00    +0.302 C 
ATOM     20  C   UNL     1      -5.414  -9.646  16.180  0.00  0.00    +0.137 C 
ATOM     21  C   UNL     1      -5.633 -11.209  18.074  0.00  0.00    +0.137 C 
ATOM     22  C   UNL     1      -4.603 -10.723  15.469  0.00  0.00    +0.179 C 
ATOM     23  C   UNL     1      -4.833 -12.220  17.267  0.00  0.00    +0.179 C 
ATOM     26  H   UNL     1      -7.641  -8.552  15.823  0.00  0.00    +0.150 HD
ENDBRANCH  18   6
ENDBRANCH  11  18
TORSDOF 5
ENDMDL
