MODEL 1
REMARK VINA RESULT:      -6.3      0.000      0.000
REMARK  Name = 40777872
REMARK  7 active torsions:
REMARK  status: ('A' for Active; 'I' for Inactive)
REMARK    1  A    between atoms: O_4  and  C_11
REMARK    2  A    between atoms: O_5  and  C_12
REMARK    3  A    between atoms: N_9  and  C_15
REMARK    4  A    between atoms: C_10  and  C_14
REMARK    5  A    between atoms: C_13  and  C_15
REMARK    6  A    between atoms: C_14  and  C_16
REMARK    7  A    between atoms: C_23  and  C_26
REMARK                            x       y       z     vdW  Elec       q    Type
REMARK                         _______ _______ _______ _____ _____    ______ ____
ROOT
ATOM      3  O   UNL     1      -5.849 -10.481  18.204  0.00  0.00    -0.366 OA
ATOM     10  C   UNL     1      -5.823 -11.754  18.888  0.00  0.00    +0.159 C 
ATOM     11  C   UNL     1      -4.613 -12.507  18.348  0.00  0.00    +0.175 C 
ATOM     12  C   UNL     1      -4.487 -11.941  16.948  0.00  0.00    +0.176 C 
ATOM     13  C   UNL     1      -4.839 -10.480  17.180  0.00  0.00    +0.167 C 
ENDROOT
BRANCH  11   4
ATOM      4  O   UNL     1      -3.478 -12.144  19.133  0.00  0.00    -0.387 OA
ATOM     32  H   UNL     1      -3.442 -12.753  19.891  0.00  0.00    +0.210 HD
ENDBRANCH  11   4
BRANCH  12   5
ATOM      5  O   UNL     1      -3.197 -12.094  16.397  0.00  0.00    -0.387 OA
ATOM     33  H   UNL     1      -2.559 -11.769  17.055  0.00  0.00    +0.210 HD
ENDBRANCH  12   5
BRANCH  10  14
ATOM     14  C   UNL     1      -7.141 -12.462  18.606  0.00  0.00    +0.130 C 
BRANCH  14  16
ATOM      6  O   UNL     1      -8.089 -10.886  20.100  0.00  0.00    -0.275 OA
ATOM      8  N   UNL     1      -9.502 -11.843  18.509  0.00  0.00    -0.271 N 
ATOM     16  C   UNL     1      -8.289 -11.647  19.153  0.00  0.00    +0.222 C 
ATOM     17  C   UNL     1      -9.740 -12.758  17.371  0.00  0.00    +0.118 C 
ATOM     18  C   UNL     1     -10.720 -11.207  18.826  0.00  0.00    +0.039 A 
ATOM     19  C   UNL     1     -11.217 -12.646  16.981  0.00  0.00    +0.056 C 
ATOM     20  C   UNL     1     -11.729 -11.648  17.967  0.00  0.00    -0.024 A 
ATOM     21  C   UNL     1     -10.994 -10.273  19.815  0.00  0.00    +0.024 A 
ATOM     22  C   UNL     1     -13.027 -11.170  18.072  0.00  0.00    +0.005 A 
ATOM     24  C   UNL     1     -12.300  -9.786  19.928  0.00  0.00    +0.002 A 
ATOM     25  C   UNL     1     -13.309 -10.230  19.063  0.00  0.00    +0.000 A 
ENDBRANCH  14  16
ENDBRANCH  10  14
BRANCH  13  15
ATOM     15  C   UNL     1      -5.369  -9.785  15.938  0.00  0.00    +0.138 C 
BRANCH  15   9
ATOM      7  O   UNL     1      -7.783 -11.003  14.969  0.00  0.00    -0.270 OA
ATOM      9  N   UNL     1      -6.707  -9.313  16.140  0.00  0.00    -0.309 N 
ATOM     23  C   UNL     1      -7.824  -9.970  15.631  0.00  0.00    +0.244 C 
ATOM     34  H   UNL     1      -6.808  -8.426  16.622  0.00  0.00    +0.149 HD
BRANCH  23  26
ATOM      1 CL   UNL     1     -12.862  -9.520  14.453  0.00  0.00    -0.081 Cl
ATOM      2  F   UNL     1     -12.791  -7.567  16.684  0.00  0.00    -0.204 F 
ATOM     26  C   UNL     1      -9.140  -9.337  15.907  0.00  0.00    +0.038 A 
ATOM     27  C   UNL     1     -10.254  -9.683  15.142  0.00  0.00    +0.036 A 
ATOM     28  C   UNL     1      -9.262  -8.397  16.930  0.00  0.00    +0.016 A 
ATOM     29  C   UNL     1     -11.490  -9.089  15.401  0.00  0.00    +0.077 A 
ATOM     30  C   UNL     1     -10.496  -7.802  17.188  0.00  0.00    +0.040 A 
ATOM     31  C   UNL     1     -11.611  -8.148  16.424  0.00  0.00    +0.142 A 
ENDBRANCH  23  26
ENDBRANCH  15   9
ENDBRANCH  13  15
TORSDOF 7
ENDMDL
MODEL 2
REMARK VINA RESULT:      -6.2     27.873     30.655
REMARK  Name = 40777872
REMARK  7 active torsions:
REMARK  status: ('A' for Active; 'I' for Inactive)
REMARK    1  A    between atoms: O_4  and  C_11
REMARK    2  A    between atoms: O_5  and  C_12
REMARK    3  A    between atoms: N_9  and  C_15
REMARK    4  A    between atoms: C_10  and  C_14
REMARK    5  A    between atoms: C_13  and  C_15
REMARK    6  A    between atoms: C_14  and  C_16
REMARK    7  A    between atoms: C_23  and  C_26
REMARK                            x       y       z     vdW  Elec       q    Type
REMARK                         _______ _______ _______ _____ _____    ______ ____
ROOT
ATOM      3  O   UNL     1      12.025   6.391  19.516  0.00  0.00    -0.366 OA
ATOM     10  C   UNL     1      13.041   7.015  18.698  0.00  0.00    +0.159 C 
ATOM     11  C   UNL     1      14.221   7.297  19.620  0.00  0.00    +0.175 C 
ATOM     12  C   UNL     1      13.538   7.479  20.960  0.00  0.00    +0.176 C 
ATOM     13  C   UNL     1      12.446   6.424  20.890  0.00  0.00    +0.167 C 
ENDROOT
BRANCH  11   4
ATOM      4  O   UNL     1      15.054   6.137  19.642  0.00  0.00    -0.387 OA
ATOM     32  H   UNL     1      15.062   5.803  20.555  0.00  0.00    +0.210 HD
ENDBRANCH  11   4
BRANCH  12   5
ATOM      5  O   UNL     1      14.401   7.276  22.059  0.00  0.00    -0.387 OA
ATOM     33  H   UNL     1      15.131   7.913  21.977  0.00  0.00    +0.210 HD
ENDBRANCH  12   5
BRANCH  10  14
ATOM     14  C   UNL     1      12.442   8.277  18.093  0.00  0.00    +0.130 C 
BRANCH  14  16
ATOM      6  O   UNL     1      13.692   8.099  16.088  0.00  0.00    -0.275 OA
ATOM      8  N   UNL     1      13.764  10.138  17.221  0.00  0.00    -0.271 N 
ATOM     16  C   UNL     1      13.364   8.822  17.028  0.00  0.00    +0.222 C 
ATOM     17  C   UNL     1      13.368  11.005  18.352  0.00  0.00    +0.118 C 
ATOM     18  C   UNL     1      14.617  10.876  16.376  0.00  0.00    +0.039 A 
ATOM     19  C   UNL     1      14.038  12.368  18.152  0.00  0.00    +0.056 C 
ATOM     20  C   UNL     1      14.797  12.164  16.883  0.00  0.00    -0.024 A 
ATOM     21  C   UNL     1      15.241  10.488  15.198  0.00  0.00    +0.024 A 
ATOM     22  C   UNL     1      15.598  13.091  16.232  0.00  0.00    +0.005 A 
ATOM     24  C   UNL     1      16.049  11.415  14.535  0.00  0.00    +0.002 A 
ATOM     25  C   UNL     1      16.227  12.708  15.047  0.00  0.00    +0.000 A 
ENDBRANCH  14  16
ENDBRANCH  10  14
BRANCH  13  15
ATOM     15  C   UNL     1      11.257   6.729  21.784  0.00  0.00    +0.138 C 
BRANCH  15   9
ATOM      7  O   UNL     1      10.452   9.172  20.506  0.00  0.00    -0.270 OA
ATOM      9  N   UNL     1      11.346   8.051  22.330  0.00  0.00    -0.309 N 
ATOM     23  C   UNL     1      10.930   9.184  21.637  0.00  0.00    +0.244 C 
ATOM     34  H   UNL     1      11.796   8.138  23.236  0.00  0.00    +0.149 HD
BRANCH  23  26
ATOM      1 CL   UNL     1      12.171  14.220  21.370  0.00  0.00    -0.081 Cl
ATOM      2  F   UNL     1      11.624  14.091  24.282  0.00  0.00    -0.204 F 
ATOM     26  C   UNL     1      11.114  10.484  22.333  0.00  0.00    +0.038 A 
ATOM     27  C   UNL     1      11.510  11.611  21.612  0.00  0.00    +0.036 A 
ATOM     28  C   UNL     1      10.893  10.578  23.707  0.00  0.00    +0.016 A 
ATOM     29  C   UNL     1      11.682  12.832  22.265  0.00  0.00    +0.077 A 
ATOM     30  C   UNL     1      11.066  11.798  24.360  0.00  0.00    +0.040 A 
ATOM     31  C   UNL     1      11.461  12.925  23.639  0.00  0.00    +0.142 A 
ENDBRANCH  23  26
ENDBRANCH  15   9
ENDBRANCH  13  15
TORSDOF 7
ENDMDL
MODEL 3
REMARK VINA RESULT:      -6.2     17.193     18.529
REMARK  Name = 40777872
REMARK  7 active torsions:
REMARK  status: ('A' for Active; 'I' for Inactive)
REMARK    1  A    between atoms: O_4  and  C_11
REMARK    2  A    between atoms: O_5  and  C_12
REMARK    3  A    between atoms: N_9  and  C_15
REMARK    4  A    between atoms: C_10  and  C_14
REMARK    5  A    between atoms: C_13  and  C_15
REMARK    6  A    between atoms: C_14  and  C_16
REMARK    7  A    between atoms: C_23  and  C_26
REMARK                            x       y       z     vdW  Elec       q    Type
REMARK                         _______ _______ _______ _____ _____    ______ ____
ROOT
ATOM      3  O   UNL     1     -15.322   3.283  24.588  0.00  0.00    -0.366 OA
ATOM     10  C   UNL     1     -16.456   2.408  24.780  0.00  0.00    +0.159 C 
ATOM     11  C   UNL     1     -17.382   2.638  23.591  0.00  0.00    +0.175 C 
ATOM     12  C   UNL     1     -17.077   4.076  23.227  0.00  0.00    +0.176 C 
ATOM     13  C   UNL     1     -15.576   4.136  23.458  0.00  0.00    +0.167 C 
ENDROOT
BRANCH  11   4
ATOM      4  O   UNL     1     -16.978   1.764  22.538  0.00  0.00    -0.387 OA
ATOM     32  H   UNL     1     -16.329   2.243  21.996  0.00  0.00    +0.210 HD
ENDBRANCH  11   4
BRANCH  12   5
ATOM      5  O   UNL     1     -17.421   4.402  21.898  0.00  0.00    -0.387 OA
ATOM     33  H   UNL     1     -17.894   5.252  21.920  0.00  0.00    +0.210 HD
ENDBRANCH  12   5
BRANCH  10  14
ATOM     14  C   UNL     1     -17.098   2.762  26.113  0.00  0.00    +0.130 C 
BRANCH  14  16
ATOM      6  O   UNL     1     -16.653   0.602  26.980  0.00  0.00    -0.275 OA
ATOM      8  N   UNL     1     -16.149   2.430  28.340  0.00  0.00    -0.271 N 
ATOM     16  C   UNL     1     -16.613   1.814  27.185  0.00  0.00    +0.222 C 
ATOM     17  C   UNL     1     -16.102   3.887  28.585  0.00  0.00    +0.118 C 
ATOM     18  C   UNL     1     -15.645   1.773  29.482  0.00  0.00    +0.039 A 
ATOM     19  C   UNL     1     -15.514   4.108  29.983  0.00  0.00    +0.056 C 
ATOM     20  C   UNL     1     -15.271   2.710  30.447  0.00  0.00    -0.024 A 
ATOM     21  C   UNL     1     -15.496   0.414  29.723  0.00  0.00    +0.024 A 
ATOM     22  C   UNL     1     -14.743   2.317  31.668  0.00  0.00    +0.005 A 
ATOM     24  C   UNL     1     -14.964   0.009  30.950  0.00  0.00    +0.002 A 
ATOM     25  C   UNL     1     -14.589   0.953  31.916  0.00  0.00    +0.000 A 
ENDBRANCH  14  16
ENDBRANCH  10  14
BRANCH  13  15
ATOM     15  C   UNL     1     -15.066   5.536  23.748  0.00  0.00    +0.138 C 
BRANCH  15   9
ATOM      7  O   UNL     1     -15.830   7.124  21.479  0.00  0.00    -0.270 OA
ATOM      9  N   UNL     1     -14.207   6.002  22.700  0.00  0.00    -0.309 N 
ATOM     23  C   UNL     1     -14.664   6.770  21.632  0.00  0.00    +0.244 C 
ATOM     34  H   UNL     1     -13.243   5.687  22.730  0.00  0.00    +0.149 HD
BRANCH  23  26
ATOM      1 CL   UNL     1     -13.612   8.723  16.938  0.00  0.00    -0.081 Cl
ATOM      2  F   UNL     1     -10.822   8.201  17.794  0.00  0.00    -0.204 F 
ATOM     26  C   UNL     1     -13.651   7.150  20.615  0.00  0.00    +0.038 A 
ATOM     27  C   UNL     1     -14.057   7.695  19.396  0.00  0.00    +0.036 A 
ATOM     28  C   UNL     1     -12.294   6.962  20.876  0.00  0.00    +0.016 A 
ATOM     29  C   UNL     1     -13.106   8.052  18.440  0.00  0.00    +0.077 A 
ATOM     30  C   UNL     1     -11.343   7.318  19.921  0.00  0.00    +0.040 A 
ATOM     31  C   UNL     1     -11.748   7.864  18.703  0.00  0.00    +0.142 A 
ENDBRANCH  23  26
ENDBRANCH  15   9
ENDBRANCH  13  15
TORSDOF 7
ENDMDL
MODEL 4
REMARK VINA RESULT:      -6.1     29.130     32.047
REMARK  Name = 40777872
REMARK  7 active torsions:
REMARK  status: ('A' for Active; 'I' for Inactive)
REMARK    1  A    between atoms: O_4  and  C_11
REMARK    2  A    between atoms: O_5  and  C_12
REMARK    3  A    between atoms: N_9  and  C_15
REMARK    4  A    between atoms: C_10  and  C_14
REMARK    5  A    between atoms: C_13  and  C_15
REMARK    6  A    between atoms: C_14  and  C_16
REMARK    7  A    between atoms: C_23  and  C_26
REMARK                            x       y       z     vdW  Elec       q    Type
REMARK                         _______ _______ _______ _____ _____    ______ ____
ROOT
ATOM      3  O   UNL     1      13.679   7.388  17.599  0.00  0.00    -0.366 OA
ATOM     10  C   UNL     1      13.987   6.897  18.923  0.00  0.00    +0.159 C 
ATOM     11  C   UNL     1      12.735   7.116  19.765  0.00  0.00    +0.175 C 
ATOM     12  C   UNL     1      12.109   8.320  19.091  0.00  0.00    +0.176 C 
ATOM     13  C   UNL     1      12.392   8.030  17.626  0.00  0.00    +0.167 C 
ENDROOT
BRANCH  11   4
ATOM      4  O   UNL     1      11.895   5.971  19.615  0.00  0.00    -0.387 OA
ATOM     32  H   UNL     1      12.454   5.184  19.725  0.00  0.00    +0.210 HD
ENDBRANCH  11   4
BRANCH  12   5
ATOM      5  O   UNL     1      10.727   8.448  19.348  0.00  0.00    -0.387 OA
ATOM     33  H   UNL     1      10.556   8.056  20.221  0.00  0.00    +0.210 HD
ENDBRANCH  12   5
BRANCH  10  14
ATOM     14  C   UNL     1      15.193   7.669  19.437  0.00  0.00    +0.130 C 
BRANCH  14  16
ATOM      6  O   UNL     1      16.422   5.750  18.786  0.00  0.00    -0.275 OA
ATOM      8  N   UNL     1      17.407   7.178  20.347  0.00  0.00    -0.271 N 
ATOM     16  C   UNL     1      16.401   6.763  19.486  0.00  0.00    +0.222 C 
ATOM     17  C   UNL     1      17.379   8.395  21.187  0.00  0.00    +0.118 C 
ATOM     18  C   UNL     1      18.630   6.513  20.573  0.00  0.00    +0.039 A 
ATOM     19  C   UNL     1      18.697   8.456  21.966  0.00  0.00    +0.056 C 
ATOM     20  C   UNL     1      19.396   7.221  21.501  0.00  0.00    -0.024 A 
ATOM     21  C   UNL     1      19.106   5.333  20.019  0.00  0.00    +0.024 A 
ATOM     22  C   UNL     1      20.648   6.773  21.896  0.00  0.00    +0.005 A 
ATOM     24  C   UNL     1      20.367   4.874  20.410  0.00  0.00    +0.002 A 
ATOM     25  C   UNL     1      21.134   5.588  21.342  0.00  0.00    +0.000 A 
ENDBRANCH  14  16
ENDBRANCH  10  14
BRANCH  13  15
ATOM     15  C   UNL     1      12.423   9.277  16.761  0.00  0.00    +0.138 C 
BRANCH  15   9
ATOM      7  O   UNL     1      14.995  10.549  16.640  0.00  0.00    -0.270 OA
ATOM      9  N   UNL     1      12.850  10.419  17.515  0.00  0.00    -0.309 N 
ATOM     23  C   UNL     1      14.122  10.972  17.392  0.00  0.00    +0.244 C 
ATOM     34  H   UNL     1      12.199  10.776  18.206  0.00  0.00    +0.149 HD
BRANCH  23  26
ATOM      1 CL   UNL     1      17.650  13.933  19.791  0.00  0.00    -0.081 Cl
ATOM      2  F   UNL     1      15.224  15.384  20.690  0.00  0.00    -0.204 F 
ATOM     26  C   UNL     1      14.417  12.138  18.264  0.00  0.00    +0.038 A 
ATOM     27  C   UNL     1      15.739  12.454  18.583  0.00  0.00    +0.036 A 
ATOM     28  C   UNL     1      13.375  12.918  18.764  0.00  0.00    +0.016 A 
ATOM     29  C   UNL     1      16.017  13.549  19.401  0.00  0.00    +0.077 A 
ATOM     30  C   UNL     1      13.653  14.012  19.583  0.00  0.00    +0.040 A 
ATOM     31  C   UNL     1      14.974  14.328  19.901  0.00  0.00    +0.142 A 
ENDBRANCH  23  26
ENDBRANCH  15   9
ENDBRANCH  13  15
TORSDOF 7
ENDMDL
MODEL 5
REMARK VINA RESULT:      -6.0     16.928     18.955
REMARK  Name = 40777872
REMARK  7 active torsions:
REMARK  status: ('A' for Active; 'I' for Inactive)
REMARK    1  A    between atoms: O_4  and  C_11
REMARK    2  A    between atoms: O_5  and  C_12
REMARK    3  A    between atoms: N_9  and  C_15
REMARK    4  A    between atoms: C_10  and  C_14
REMARK    5  A    between atoms: C_13  and  C_15
REMARK    6  A    between atoms: C_14  and  C_16
REMARK    7  A    between atoms: C_23  and  C_26
REMARK                            x       y       z     vdW  Elec       q    Type
REMARK                         _______ _______ _______ _____ _____    ______ ____
ROOT
ATOM      3  O   UNL     1     -16.023   2.087  26.388  0.00  0.00    -0.366 OA
ATOM     10  C   UNL     1     -16.811   0.918  26.707  0.00  0.00    +0.159 C 
ATOM     11  C   UNL     1     -17.790   0.733  25.554  0.00  0.00    +0.175 C 
ATOM     12  C   UNL     1     -17.972   2.154  25.062  0.00  0.00    +0.176 C 
ATOM     13  C   UNL     1     -16.564   2.708  25.209  0.00  0.00    +0.167 C 
ENDROOT
BRANCH  11   4
ATOM      4  O   UNL     1     -17.152  -0.060  24.553  0.00  0.00    -0.387 OA
ATOM     32  H   UNL     1     -17.226   0.421  23.711  0.00  0.00    +0.210 HD
ENDBRANCH  11   4
BRANCH  12   5
ATOM      5  O   UNL     1     -18.435   2.231  23.732  0.00  0.00    -0.387 OA
ATOM     33  H   UNL     1     -19.309   1.805  23.703  0.00  0.00    +0.210 HD
ENDBRANCH  12   5
BRANCH  10  14
ATOM     14  C   UNL     1     -17.500   1.170  28.040  0.00  0.00    +0.130 C 
BRANCH  14  16
ATOM      6  O   UNL     1     -15.955   0.131  29.507  0.00  0.00    -0.275 OA
ATOM      8  N   UNL     1     -16.216   2.443  29.683  0.00  0.00    -0.271 N 
ATOM     16  C   UNL     1     -16.477   1.188  29.152  0.00  0.00    +0.222 C 
ATOM     17  C   UNL     1     -16.844   3.712  29.255  0.00  0.00    +0.118 C 
ATOM     18  C   UNL     1     -15.307   2.729  30.723  0.00  0.00    +0.039 A 
ATOM     19  C   UNL     1     -16.252   4.838  30.108  0.00  0.00    +0.056 C 
ATOM     20  C   UNL     1     -15.305   4.099  30.994  0.00  0.00    -0.024 A 
ATOM     21  C   UNL     1     -14.491   1.866  31.441  0.00  0.00    +0.024 A 
ATOM     22  C   UNL     1     -14.492   4.638  31.980  0.00  0.00    +0.005 A 
ATOM     24  C   UNL     1     -13.668   2.401  32.436  0.00  0.00    +0.002 A 
ATOM     25  C   UNL     1     -13.668   3.777  32.705  0.00  0.00    +0.000 A 
ENDBRANCH  14  16
ENDBRANCH  10  14
BRANCH  13  15
ATOM     15  C   UNL     1     -16.525   4.218  25.361  0.00  0.00    +0.138 C 
BRANCH  15   9
ATOM      7  O   UNL     1     -16.885   5.565  22.850  0.00  0.00    -0.270 OA
ATOM      9  N   UNL     1     -15.498   4.795  24.544  0.00  0.00    -0.309 N 
ATOM     23  C   UNL     1     -15.764   5.432  23.335  0.00  0.00    +0.244 C 
ATOM     34  H   UNL     1     -14.542   4.659  24.853  0.00  0.00    +0.149 HD
BRANCH  23  26
ATOM      1 CL   UNL     1     -13.450   9.399  20.913  0.00  0.00    -0.081 Cl
ATOM      2  F   UNL     1     -11.306   7.386  20.533  0.00  0.00    -0.204 F 
ATOM     26  C   UNL     1     -14.587   5.952  22.594  0.00  0.00    +0.038 A 
ATOM     27  C   UNL     1     -14.570   7.276  22.151  0.00  0.00    +0.036 A 
ATOM     28  C   UNL     1     -13.497   5.120  22.339  0.00  0.00    +0.016 A 
ATOM     29  C   UNL     1     -13.465   7.765  21.456  0.00  0.00    +0.077 A 
ATOM     30  C   UNL     1     -12.393   5.608  21.643  0.00  0.00    +0.040 A 
ATOM     31  C   UNL     1     -12.376   6.931  21.201  0.00  0.00    +0.142 A 
ENDBRANCH  23  26
ENDBRANCH  15   9
ENDBRANCH  13  15
TORSDOF 7
ENDMDL
MODEL 6
REMARK VINA RESULT:      -5.9      3.870      5.138
REMARK  Name = 40777872
REMARK  7 active torsions:
REMARK  status: ('A' for Active; 'I' for Inactive)
REMARK    1  A    between atoms: O_4  and  C_11
REMARK    2  A    between atoms: O_5  and  C_12
REMARK    3  A    between atoms: N_9  and  C_15
REMARK    4  A    between atoms: C_10  and  C_14
REMARK    5  A    between atoms: C_13  and  C_15
REMARK    6  A    between atoms: C_14  and  C_16
REMARK    7  A    between atoms: C_23  and  C_26
REMARK                            x       y       z     vdW  Elec       q    Type
REMARK                         _______ _______ _______ _____ _____    ______ ____
ROOT
ATOM      3  O   UNL     1      -2.992 -11.239  16.957  0.00  0.00    -0.366 OA
ATOM     10  C   UNL     1      -4.276 -11.649  17.482  0.00  0.00    +0.159 C 
ATOM     11  C   UNL     1      -4.893 -12.570  16.437  0.00  0.00    +0.175 C 
ATOM     12  C   UNL     1      -4.277 -12.049  15.154  0.00  0.00    +0.176 C 
ATOM     13  C   UNL     1      -2.865 -11.718  15.608  0.00  0.00    +0.167 C 
ENDROOT
BRANCH  11   4
ATOM      4  O   UNL     1      -4.444 -13.900  16.697  0.00  0.00    -0.387 OA
ATOM     32  H   UNL     1      -5.153 -14.505  16.423  0.00  0.00    +0.210 HD
ENDBRANCH  11   4
BRANCH  12   5
ATOM      5  O   UNL     1      -4.289 -12.993  14.105  0.00  0.00    -0.387 OA
ATOM     33  H   UNL     1      -5.153 -13.438  14.123  0.00  0.00    +0.210 HD
ENDBRANCH  12   5
BRANCH  10  14
ATOM     14  C   UNL     1      -5.099 -10.393  17.730  0.00  0.00    +0.130 C 
BRANCH  14  16
ATOM      6  O   UNL     1      -6.269 -11.507  19.464  0.00  0.00    -0.275 OA
ATOM      8  N   UNL     1      -7.511 -10.146  18.033  0.00  0.00    -0.271 N 
ATOM     16  C   UNL     1      -6.350 -10.744  18.502  0.00  0.00    +0.222 C 
ATOM     17  C   UNL     1      -7.606  -9.228  16.877  0.00  0.00    +0.118 C 
ATOM     18  C   UNL     1      -8.803 -10.309  18.574  0.00  0.00    +0.039 A 
ATOM     19  C   UNL     1      -9.073  -8.811  16.730  0.00  0.00    +0.056 C 
ATOM     20  C   UNL     1      -9.726  -9.555  17.847  0.00  0.00    -0.024 A 
ATOM     21  C   UNL     1      -9.214 -11.073  19.658  0.00  0.00    +0.024 A 
ATOM     22  C   UNL     1     -11.073  -9.545  18.181  0.00  0.00    +0.005 A 
ATOM     24  C   UNL     1     -10.569 -11.069  20.001  0.00  0.00    +0.002 A 
ATOM     25  C   UNL     1     -11.492 -10.310  19.269  0.00  0.00    +0.000 A 
ENDBRANCH  14  16
ENDBRANCH  10  14
BRANCH  13  15
ATOM     15  C   UNL     1      -2.190 -10.663  14.750  0.00  0.00    +0.138 C 
BRANCH  15   9
ATOM      7  O   UNL     1      -1.617 -10.785  11.939  0.00  0.00    -0.270 OA
ATOM      9  N   UNL     1      -3.046 -10.238  13.683  0.00  0.00    -0.309 N 
ATOM     23  C   UNL     1      -2.686 -10.334  12.341  0.00  0.00    +0.244 C 
ATOM     34  H   UNL     1      -3.917  -9.792  13.950  0.00  0.00    +0.149 HD
BRANCH  23  26
ATOM      1 CL   UNL     1      -7.630  -9.252  11.181  0.00  0.00    -0.081 Cl
ATOM      2  F   UNL     1      -6.417  -8.409   8.610  0.00  0.00    -0.204 F 
ATOM     26  C   UNL     1      -3.675  -9.825  11.357  0.00  0.00    +0.038 A 
ATOM     27  C   UNL     1      -5.030  -9.782  11.689  0.00  0.00    +0.036 A 
ATOM     28  C   UNL     1      -3.252  -9.391  10.102  0.00  0.00    +0.016 A 
ATOM     29  C   UNL     1      -5.960  -9.303  10.766  0.00  0.00    +0.077 A 
ATOM     30  C   UNL     1      -4.181  -8.914   9.178  0.00  0.00    +0.040 A 
ATOM     31  C   UNL     1      -5.535  -8.870   9.510  0.00  0.00    +0.142 A 
ENDBRANCH  23  26
ENDBRANCH  15   9
ENDBRANCH  13  15
TORSDOF 7
ENDMDL
MODEL 7
REMARK VINA RESULT:      -5.9     26.797     29.473
REMARK  Name = 40777872
REMARK  7 active torsions:
REMARK  status: ('A' for Active; 'I' for Inactive)
REMARK    1  A    between atoms: O_4  and  C_11
REMARK    2  A    between atoms: O_5  and  C_12
REMARK    3  A    between atoms: N_9  and  C_15
REMARK    4  A    between atoms: C_10  and  C_14
REMARK    5  A    between atoms: C_13  and  C_15
REMARK    6  A    between atoms: C_14  and  C_16
REMARK    7  A    between atoms: C_23  and  C_26
REMARK                            x       y       z     vdW  Elec       q    Type
REMARK                         _______ _______ _______ _____ _____    ______ ____
ROOT
ATOM      3  O   UNL     1      11.007   6.875   7.330  0.00  0.00    -0.366 OA
ATOM     10  C   UNL     1       9.997   6.303   8.191  0.00  0.00    +0.159 C 
ATOM     11  C   UNL     1       9.685   4.921   7.627  0.00  0.00    +0.175 C 
ATOM     12  C   UNL     1       9.983   5.107   6.153  0.00  0.00    +0.176 C 
ATOM     13  C   UNL     1      11.208   6.006   6.202  0.00  0.00    +0.167 C 
ENDROOT
BRANCH  11   4
ATOM      4  O   UNL     1      10.600   3.990   8.204  0.00  0.00    -0.387 OA
ATOM     32  H   UNL     1      11.192   4.490   8.792  0.00  0.00    +0.210 HD
ENDBRANCH  11   4
BRANCH  12   5
ATOM      5  O   UNL     1      10.242   3.895   5.479  0.00  0.00    -0.387 OA
ATOM     33  H   UNL     1      11.077   3.539   5.829  0.00  0.00    +0.210 HD
ENDBRANCH  12   5
BRANCH  10  14
ATOM     14  C   UNL     1       8.794   7.235   8.182  0.00  0.00    +0.130 C 
BRANCH  14  16
ATOM      6  O   UNL     1       9.868   9.328   8.471  0.00  0.00    -0.275 OA
ATOM      8  N   UNL     1       8.804   8.940   6.431  0.00  0.00    -0.271 N 
ATOM     16  C   UNL     1       9.214   8.610   7.716  0.00  0.00    +0.222 C 
ATOM     17  C   UNL     1       8.017   8.076   5.525  0.00  0.00    +0.118 C 
ATOM     18  C   UNL     1       9.066  10.156   5.766  0.00  0.00    +0.039 A 
ATOM     19  C   UNL     1       7.804   8.843   4.216  0.00  0.00    +0.056 C 
ATOM     20  C   UNL     1       8.502  10.134   4.489  0.00  0.00    -0.024 A 
ATOM     21  C   UNL     1       9.761  11.271   6.212  0.00  0.00    +0.024 A 
ATOM     22  C   UNL     1       8.620  11.217   3.629  0.00  0.00    +0.005 A 
ATOM     24  C   UNL     1       9.884  12.367   5.352  0.00  0.00    +0.002 A 
ATOM     25  C   UNL     1       9.319  12.341   4.070  0.00  0.00    +0.000 A 
ENDBRANCH  14  16
ENDBRANCH  10  14
BRANCH  13  15
ATOM     15  C   UNL     1      11.397   6.834   4.944  0.00  0.00    +0.138 C 
BRANCH  15   9
ATOM      7  O   UNL     1       9.863   6.418   2.551  0.00  0.00    -0.270 OA
ATOM      9  N   UNL     1      11.755   6.007   3.829  0.00  0.00    -0.309 N 
ATOM     23  C   UNL     1      10.947   5.863   2.705  0.00  0.00    +0.244 C 
ATOM     34  H   UNL     1      12.608   5.465   3.922  0.00  0.00    +0.149 HD
BRANCH  23  26
ATOM      1 CL   UNL     1      10.580   4.081  -2.159  0.00  0.00    -0.081 Cl
ATOM      2  F   UNL     1      12.858   2.397  -1.281  0.00  0.00    -0.204 F 
ATOM     26  C   UNL     1      11.450   4.948   1.648  0.00  0.00    +0.038 A 
ATOM     27  C   UNL     1      10.851   4.942   0.387  0.00  0.00    +0.036 A 
ATOM     28  C   UNL     1      12.520   4.094   1.914  0.00  0.00    +0.016 A 
ATOM     29  C   UNL     1      11.323   4.083  -0.606  0.00  0.00    +0.077 A 
ATOM     30  C   UNL     1      12.991   3.234   0.922  0.00  0.00    +0.040 A 
ATOM     31  C   UNL     1      12.393   3.229  -0.338  0.00  0.00    +0.142 A 
ENDBRANCH  23  26
ENDBRANCH  15   9
ENDBRANCH  13  15
TORSDOF 7
ENDMDL
MODEL 8
REMARK VINA RESULT:      -5.8      4.727      7.702
REMARK  Name = 40777872
REMARK  7 active torsions:
REMARK  status: ('A' for Active; 'I' for Inactive)
REMARK    1  A    between atoms: O_4  and  C_11
REMARK    2  A    between atoms: O_5  and  C_12
REMARK    3  A    between atoms: N_9  and  C_15
REMARK    4  A    between atoms: C_10  and  C_14
REMARK    5  A    between atoms: C_13  and  C_15
REMARK    6  A    between atoms: C_14  and  C_16
REMARK    7  A    between atoms: C_23  and  C_26
REMARK                            x       y       z     vdW  Elec       q    Type
REMARK                         _______ _______ _______ _____ _____    ______ ____
ROOT
ATOM      3  O   UNL     1      -5.391 -12.353  18.069  0.00  0.00    -0.366 OA
ATOM     10  C   UNL     1      -5.157 -11.019  18.575  0.00  0.00    +0.159 C 
ATOM     11  C   UNL     1      -6.260 -10.745  19.590  0.00  0.00    +0.175 C 
ATOM     12  C   UNL     1      -7.392 -11.604  19.066  0.00  0.00    +0.176 C 
ATOM     13  C   UNL     1      -6.642 -12.836  18.588  0.00  0.00    +0.167 C 
ENDROOT
BRANCH  11   4
ATOM      4  O   UNL     1      -5.821 -11.224  20.861  0.00  0.00    -0.387 OA
ATOM     32  H   UNL     1      -5.941 -10.502  21.501  0.00  0.00    +0.210 HD
ENDBRANCH  11   4
BRANCH  12   5
ATOM      5  O   UNL     1      -8.356 -11.918  20.048  0.00  0.00    -0.387 OA
ATOM     33  H   UNL     1      -7.881 -12.080  20.881  0.00  0.00    +0.210 HD
ENDBRANCH  12   5
BRANCH  10  14
ATOM     14  C   UNL     1      -5.184 -10.061  17.392  0.00  0.00    +0.130 C 
BRANCH  14  16
ATOM      6  O   UNL     1      -3.041 -10.854  16.764  0.00  0.00    -0.275 OA
ATOM      8  N   UNL     1      -4.552 -10.372  15.052  0.00  0.00    -0.271 N 
ATOM     16  C   UNL     1      -4.144 -10.471  16.375  0.00  0.00    +0.222 C 
ATOM     17  C   UNL     1      -5.879  -9.912  14.588  0.00  0.00    +0.118 C 
ATOM     18  C   UNL     1      -3.774 -10.692  13.920  0.00  0.00    +0.039 A 
ATOM     19  C   UNL     1      -5.885  -9.972  13.057  0.00  0.00    +0.056 C 
ATOM     20  C   UNL     1      -4.511 -10.472  12.755  0.00  0.00    -0.024 A 
ATOM     21  C   UNL     1      -2.469 -11.160  13.852  0.00  0.00    +0.024 A 
ATOM     22  C   UNL     1      -3.968 -10.713  11.501  0.00  0.00    +0.005 A 
ATOM     24  C   UNL     1      -1.914 -11.405  12.593  0.00  0.00    +0.002 A 
ATOM     25  C   UNL     1      -2.657 -11.184  11.426  0.00  0.00    +0.000 A 
ENDBRANCH  14  16
ENDBRANCH  10  14
BRANCH  13  15
ATOM     15  C   UNL     1      -7.380 -13.609  17.510  0.00  0.00    +0.138 C 
BRANCH  15   9
ATOM      7  O   UNL     1      -7.830 -12.782  14.796  0.00  0.00    -0.270 OA
ATOM      9  N   UNL     1      -6.531 -13.866  16.384  0.00  0.00    -0.309 N 
ATOM     23  C   UNL     1      -6.828 -13.425  15.097  0.00  0.00    +0.244 C 
ATOM     34  H   UNL     1      -5.720 -14.452  16.552  0.00  0.00    +0.149 HD
BRANCH  23  26
ATOM      1 CL   UNL     1      -2.069 -15.059  13.816  0.00  0.00    -0.081 Cl
ATOM      2  F   UNL     1      -3.170 -14.826  11.072  0.00  0.00    -0.204 F 
ATOM     26  C   UNL     1      -5.858 -13.797  14.035  0.00  0.00    +0.038 A 
ATOM     27  C   UNL     1      -4.569 -14.206  14.381  0.00  0.00    +0.036 A 
ATOM     28  C   UNL     1      -6.234 -13.737  12.694  0.00  0.00    +0.016 A 
ATOM     29  C   UNL     1      -3.658 -14.555  13.384  0.00  0.00    +0.077 A 
ATOM     30  C   UNL     1      -5.323 -14.085  11.697  0.00  0.00    +0.040 A 
ATOM     31  C   UNL     1      -4.034 -14.495  12.042  0.00  0.00    +0.142 A 
ENDBRANCH  23  26
ENDBRANCH  15   9
ENDBRANCH  13  15
TORSDOF 7
ENDMDL
MODEL 9
REMARK VINA RESULT:      -5.8     17.660     19.816
REMARK  Name = 40777872
REMARK  7 active torsions:
REMARK  status: ('A' for Active; 'I' for Inactive)
REMARK    1  A    between atoms: O_4  and  C_11
REMARK    2  A    between atoms: O_5  and  C_12
REMARK    3  A    between atoms: N_9  and  C_15
REMARK    4  A    between atoms: C_10  and  C_14
REMARK    5  A    between atoms: C_13  and  C_15
REMARK    6  A    between atoms: C_14  and  C_16
REMARK    7  A    between atoms: C_23  and  C_26
REMARK                            x       y       z     vdW  Elec       q    Type
REMARK                         _______ _______ _______ _____ _____    ______ ____
ROOT
ATOM      3  O   UNL     1     -17.174   5.554  24.136  0.00  0.00    -0.366 OA
ATOM     10  C   UNL     1     -16.405   5.397  22.922  0.00  0.00    +0.159 C 
ATOM     11  C   UNL     1     -15.757   4.019  22.999  0.00  0.00    +0.175 C 
ATOM     12  C   UNL     1     -15.618   3.819  24.495  0.00  0.00    +0.176 C 
ATOM     13  C   UNL     1     -16.907   4.440  25.006  0.00  0.00    +0.167 C 
ENDROOT
BRANCH  11   4
ATOM      4  O   UNL     1     -16.672   3.068  22.456  0.00  0.00    -0.387 OA
ATOM     32  H   UNL     1     -17.546   3.493  22.420  0.00  0.00    +0.210 HD
ENDBRANCH  11   4
BRANCH  12   5
ATOM      5  O   UNL     1     -15.497   2.464  24.869  0.00  0.00    -0.387 OA
ATOM     33  H   UNL     1     -16.195   2.279  25.521  0.00  0.00    +0.210 HD
ENDBRANCH  12   5
BRANCH  10  14
ATOM     14  C   UNL     1     -15.390   6.530  22.864  0.00  0.00    +0.130 C 
BRANCH  14  16
ATOM      6  O   UNL     1     -16.367   7.487  20.929  0.00  0.00    -0.275 OA
ATOM      8  N   UNL     1     -14.063   7.116  20.898  0.00  0.00    -0.271 N 
ATOM     16  C   UNL     1     -15.331   7.095  21.464  0.00  0.00    +0.222 C 
ATOM     17  C   UNL     1     -12.819   6.644  21.543  0.00  0.00    +0.118 C 
ATOM     18  C   UNL     1     -13.740   7.591  19.610  0.00  0.00    +0.039 A 
ATOM     19  C   UNL     1     -11.668   6.866  20.557  0.00  0.00    +0.056 C 
ATOM     20  C   UNL     1     -12.369   7.460  19.381  0.00  0.00    -0.024 A 
ATOM     21  C   UNL     1     -14.571   8.126  18.635  0.00  0.00    +0.024 A 
ATOM     22  C   UNL     1     -11.797   7.858  18.182  0.00  0.00    +0.005 A 
ATOM     24  C   UNL     1     -14.002   8.530  17.423  0.00  0.00    +0.002 A 
ATOM     25  C   UNL     1     -12.625   8.397  17.197  0.00  0.00    +0.000 A 
ENDBRANCH  14  16
ENDBRANCH  10  14
BRANCH  13  15
ATOM     15  C   UNL     1     -16.815   4.922  26.442  0.00  0.00    +0.138 C 
BRANCH  15   9
ATOM      7  O   UNL     1     -16.297   5.123  29.260  0.00  0.00    -0.270 OA
ATOM      9  N   UNL     1     -16.454   3.852  27.325  0.00  0.00    -0.309 N 
ATOM     23  C   UNL     1     -16.220   4.041  28.685  0.00  0.00    +0.244 C 
ATOM     34  H   UNL     1     -16.306   2.943  26.900  0.00  0.00    +0.149 HD
BRANCH  23  26
ATOM      1 CL   UNL     1     -14.703   1.964  33.196  0.00  0.00    -0.081 Cl
ATOM      2  F   UNL     1     -14.739  -0.530  31.593  0.00  0.00    -0.204 F 
ATOM     26  C   UNL     1     -15.828   2.834  29.457  0.00  0.00    +0.038 A 
ATOM     27  C   UNL     1     -15.489   2.949  30.806  0.00  0.00    +0.036 A 
ATOM     28  C   UNL     1     -15.799   1.586  28.836  0.00  0.00    +0.016 A 
ATOM     29  C   UNL     1     -15.121   1.816  31.532  0.00  0.00    +0.077 A 
ATOM     30  C   UNL     1     -15.430   0.454  29.560  0.00  0.00    +0.040 A 
ATOM     31  C   UNL     1     -15.091   0.568  30.909  0.00  0.00    +0.142 A 
ENDBRANCH  23  26
ENDBRANCH  15   9
ENDBRANCH  13  15
TORSDOF 7
ENDMDL
MODEL 10
REMARK VINA RESULT:      -5.7      2.641      6.116
REMARK  Name = 40777872
REMARK  7 active torsions:
REMARK  status: ('A' for Active; 'I' for Inactive)
REMARK    1  A    between atoms: O_4  and  C_11
REMARK    2  A    between atoms: O_5  and  C_12
REMARK    3  A    between atoms: N_9  and  C_15
REMARK    4  A    between atoms: C_10  and  C_14
REMARK    5  A    between atoms: C_13  and  C_15
REMARK    6  A    between atoms: C_14  and  C_16
REMARK    7  A    between atoms: C_23  and  C_26
REMARK                            x       y       z     vdW  Elec       q    Type
REMARK                         _______ _______ _______ _____ _____    ______ ____
ROOT
ATOM      3  O   UNL     1      -6.374 -12.786  17.684  0.00  0.00    -0.366 OA
ATOM     10  C   UNL     1      -5.243 -11.944  17.365  0.00  0.00    +0.159 C 
ATOM     11  C   UNL     1      -4.851 -11.244  18.661  0.00  0.00    +0.175 C 
ATOM     12  C   UNL     1      -6.172 -11.181  19.399  0.00  0.00    +0.176 C 
ATOM     13  C   UNL     1      -6.787 -12.522  19.036  0.00  0.00    +0.167 C 
ENDROOT
BRANCH  11   4
ATOM      4  O   UNL     1      -3.934 -12.086  19.359  0.00  0.00    -0.387 OA
ATOM     32  H   UNL     1      -3.302 -11.509  19.820  0.00  0.00    +0.210 HD
ENDBRANCH  11   4
BRANCH  12   5
ATOM      5  O   UNL     1      -6.027 -11.025  20.794  0.00  0.00    -0.387 OA
ATOM     33  H   UNL     1      -6.106 -11.907  21.195  0.00  0.00    +0.210 HD
ENDBRANCH  12   5
BRANCH  10  14
ATOM     14  C   UNL     1      -5.677 -10.977  16.273  0.00  0.00    +0.130 C 
BRANCH  14  16
ATOM      6  O   UNL     1      -3.491 -11.342  15.431  0.00  0.00    -0.275 OA
ATOM      8  N   UNL     1      -5.046 -10.361  13.994  0.00  0.00    -0.271 N 
ATOM     16  C   UNL     1      -4.621 -10.915  15.194  0.00  0.00    +0.222 C 
ATOM     17  C   UNL     1      -6.404  -9.849  13.710  0.00  0.00    +0.118 C 
ATOM     18  C   UNL     1      -4.259 -10.190  12.836  0.00  0.00    +0.039 A 
ATOM     19  C   UNL     1      -6.420  -9.340  12.265  0.00  0.00    +0.056 C 
ATOM     20  C   UNL     1      -5.018  -9.604  11.822  0.00  0.00    -0.024 A 
ATOM     21  C   UNL     1      -2.926 -10.515  12.622  0.00  0.00    +0.024 A 
ATOM     22  C   UNL     1      -4.472  -9.329  10.577  0.00  0.00    +0.005 A 
ATOM     24  C   UNL     1      -2.367 -10.242  11.370  0.00  0.00    +0.002 A 
ATOM     25  C   UNL     1      -3.133  -9.654  10.354  0.00  0.00    +0.000 A 
ENDBRANCH  14  16
ENDBRANCH  10  14
BRANCH  13  15
ATOM     15  C   UNL     1      -8.303 -12.531  19.119  0.00  0.00    +0.138 C 
BRANCH  15   9
ATOM      7  O   UNL     1     -10.147 -10.557  20.095  0.00  0.00    -0.270 OA
ATOM      9  N   UNL     1      -8.869 -11.445  18.374  0.00  0.00    -0.309 N 
ATOM     23  C   UNL     1      -9.760 -10.531  18.931  0.00  0.00    +0.244 C 
ATOM     34  H   UNL     1      -8.643 -11.406  17.386  0.00  0.00    +0.149 HD
BRANCH  23  26
ATOM      1 CL   UNL     1     -13.828  -8.242  16.655  0.00  0.00    -0.081 Cl
ATOM      2  F   UNL     1     -11.698  -6.550  15.475  0.00  0.00    -0.204 F 
ATOM     26  C   UNL     1     -10.276  -9.479  18.018  0.00  0.00    +0.038 A 
ATOM     27  C   UNL     1     -11.648  -9.365  17.790  0.00  0.00    +0.036 A 
ATOM     28  C   UNL     1      -9.391  -8.605  17.388  0.00  0.00    +0.016 A 
ATOM     29  C   UNL     1     -12.134  -8.377  16.933  0.00  0.00    +0.077 A 
ATOM     30  C   UNL     1      -9.875  -7.618  16.530  0.00  0.00    +0.040 A 
ATOM     31  C   UNL     1     -11.247  -7.504  16.302  0.00  0.00    +0.142 A 
ENDBRANCH  23  26
ENDBRANCH  15   9
ENDBRANCH  13  15
TORSDOF 7
ENDMDL
