MODEL 1
REMARK VINA RESULT:      -7.9      0.000      0.000
REMARK  Name = 11911662
REMARK  10 active torsions:
REMARK  status: ('A' for Active; 'I' for Inactive)
REMARK    1  A    between atoms: O_3  and  C_14
REMARK    2  A    between atoms: O_3  and  C_18
REMARK    3  A    between atoms: N_6  and  C_13
REMARK    4  A    between atoms: N_9  and  C_22
REMARK    5  A    between atoms: N_10  and  C_32
REMARK    6  A    between atoms: N_10  and  C_35
REMARK    7  A    between atoms: N_10  and  C_36
REMARK    8  A    between atoms: C_19  and  C_23
REMARK    9  A    between atoms: C_33  and  C_34
REMARK   10  A    between atoms: C_34  and  C_37
REMARK                            x       y       z     vdW  Elec       q    Type
REMARK                         _______ _______ _______ _____ _____    ______ ____
ROOT
ATOM      1  O   UNL     1      -4.566  -9.070   9.961  0.00  0.00    -0.368 OA
ATOM      2  O   UNL     1      -5.788 -11.865  10.287  0.00  0.00    -0.368 OA
ATOM     11  C   UNL     1      -4.472 -11.354  10.592  0.00  0.00    +0.173 C 
ATOM     12  C   UNL     1      -4.125 -10.358   9.503  0.00  0.00    +0.192 C 
ATOM     13  C   UNL     1      -4.522 -10.518  11.849  0.00  0.00    +0.130 C 
ATOM     14  C   UNL     1      -4.950 -10.849   8.337  0.00  0.00    +0.235 C 
ATOM     15  C   UNL     1      -4.999  -9.174  11.327  0.00  0.00    +0.185 C 
ATOM     16  C   UNL     1      -6.207 -11.340   9.019  0.00  0.00    +0.207 C 
ENDROOT
BRANCH  13   6
ATOM      6  N   UNL     1      -3.198 -10.392  12.421  0.00  0.00    -0.306 N 
ATOM      7  N   UNL     1      -3.997 -10.706  14.579  0.00  0.00    -0.214 NA
ATOM      8  N   UNL     1      -1.652 -10.351  14.153  0.00  0.00    -0.223 NA
ATOM     17  C   UNL     1      -2.938 -10.487  13.777  0.00  0.00    +0.216 A 
ATOM     19  C   UNL     1      -3.708 -10.793  15.894  0.00  0.00    +0.076 A 
ATOM     20  C   UNL     1      -1.435 -10.448  15.482  0.00  0.00    +0.116 A 
ATOM     21  C   UNL     1      -2.433 -10.671  16.407  0.00  0.00    +0.048 A 
ATOM     38  H   UNL     1      -2.399 -10.280  11.808  0.00  0.00    +0.149 HD
BRANCH  19  23
ATOM     23  C   UNL     1      -4.841 -11.029  16.757  0.00  0.00    +0.001 A 
ATOM     26  C   UNL     1      -6.098 -11.274  16.205  0.00  0.00    +0.012 A 
ATOM     27  C   UNL     1      -4.677 -11.014  18.142  0.00  0.00    +0.012 A 
ATOM     30  C   UNL     1      -7.193 -11.504  17.038  0.00  0.00    +0.024 A 
ATOM     31  C   UNL     1      -5.773 -11.243  18.975  0.00  0.00    +0.024 A 
ATOM     32  C   UNL     1      -7.029 -11.488  18.423  0.00  0.00    +0.029 A 
BRANCH  32  10
ATOM     10  N   UNL     1      -8.136 -11.720  19.267  0.00  0.00    -0.336 N 
ATOM     35  C   UNL     1      -8.205 -12.923  20.074  0.00  0.00    +0.129 C 
ATOM     36  C   UNL     1      -9.212 -10.752  19.349  0.00  0.00    +0.129 C 
ENDBRANCH  32  10
ENDBRANCH  19  23
ENDBRANCH  13   6
BRANCH  14   3
ATOM      3  O   UNL     1      -5.221  -9.850   7.380  0.00  0.00    -0.442 OA
BRANCH   3  18
ATOM      4  O   UNL     1      -7.368  -9.881   6.594  0.00  0.00    -0.226 OA
ATOM      9  N   UNL     1      -6.660  -8.306   8.175  0.00  0.00    -0.251 N 
ATOM     18  C   UNL     1      -6.516  -9.380   7.318  0.00  0.00    +0.405 C 
ATOM     39  H   UNL     1      -5.831  -8.033   8.697  0.00  0.00    +0.158 HD
BRANCH   9  22
ATOM     22  C   UNL     1      -7.819  -7.533   8.416  0.00  0.00    +0.036 A 
ATOM     24  C   UNL     1      -7.833  -6.178   8.089  0.00  0.00    +0.024 A 
ATOM     25  C   UNL     1      -8.948  -8.128   8.978  0.00  0.00    +0.024 A 
ATOM     28  C   UNL     1      -8.977  -5.416   8.325  0.00  0.00    +0.013 A 
ATOM     29  C   UNL     1     -10.093  -7.365   9.214  0.00  0.00    +0.013 A 
ATOM     33  C   UNL     1     -10.107  -6.009   8.888  0.00  0.00    +0.017 A 
BRANCH  33  34
ATOM      5  O   UNL     1     -12.424  -5.744   9.234  0.00  0.00    -0.292 OA
ATOM     34  C   UNL     1     -11.299  -5.215   9.135  0.00  0.00    +0.160 C 
ATOM     37  C   UNL     1     -11.198  -3.700   9.283  0.00  0.00    +0.091 C 
ENDBRANCH  33  34
ENDBRANCH   9  22
ENDBRANCH   3  18
ENDBRANCH  14   3
TORSDOF 7
ENDMDL
MODEL 2
REMARK VINA RESULT:      -7.9      4.128      7.360
REMARK  Name = 11911662
REMARK  10 active torsions:
REMARK  status: ('A' for Active; 'I' for Inactive)
REMARK    1  A    between atoms: O_3  and  C_14
REMARK    2  A    between atoms: O_3  and  C_18
REMARK    3  A    between atoms: N_6  and  C_13
REMARK    4  A    between atoms: N_9  and  C_22
REMARK    5  A    between atoms: N_10  and  C_32
REMARK    6  A    between atoms: N_10  and  C_35
REMARK    7  A    between atoms: N_10  and  C_36
REMARK    8  A    between atoms: C_19  and  C_23
REMARK    9  A    between atoms: C_33  and  C_34
REMARK   10  A    between atoms: C_34  and  C_37
REMARK                            x       y       z     vdW  Elec       q    Type
REMARK                         _______ _______ _______ _____ _____    ______ ____
ROOT
ATOM      1  O   UNL     1     -11.418  -8.513  17.618  0.00  0.00    -0.368 OA
ATOM      2  O   UNL     1      -9.645  -8.681  15.119  0.00  0.00    -0.368 OA
ATOM     11  C   UNL     1      -9.318  -8.655  16.526  0.00  0.00    +0.173 C 
ATOM     12  C   UNL     1     -10.305  -7.713  17.188  0.00  0.00    +0.192 C 
ATOM     13  C   UNL     1      -9.618  -9.997  17.150  0.00  0.00    +0.130 C 
ATOM     14  C   UNL     1     -10.684  -6.789  16.056  0.00  0.00    +0.235 C 
ATOM     15  C   UNL     1     -11.108  -9.902  17.424  0.00  0.00    +0.185 C 
ATOM     16  C   UNL     1     -10.683  -7.722  14.867  0.00  0.00    +0.207 C 
ENDROOT
BRANCH  13   6
ATOM      6  N   UNL     1      -8.888 -10.147  18.392  0.00  0.00    -0.306 N 
ATOM      7  N   UNL     1      -6.875 -10.474  17.280  0.00  0.00    -0.214 NA
ATOM      8  N   UNL     1      -6.992 -10.495  19.687  0.00  0.00    -0.223 NA
ATOM     17  C   UNL     1      -7.526 -10.382  18.455  0.00  0.00    +0.216 A 
ATOM     19  C   UNL     1      -5.549 -10.702  17.379  0.00  0.00    +0.076 A 
ATOM     20  C   UNL     1      -5.662 -10.725  19.711  0.00  0.00    +0.116 A 
ATOM     21  C   UNL     1      -4.883 -10.839  18.579  0.00  0.00    +0.048 A 
ATOM     38  H   UNL     1      -9.374 -10.024  19.273  0.00  0.00    +0.149 HD
BRANCH  19  23
ATOM     23  C   UNL     1      -4.849 -10.800  16.120  0.00  0.00    +0.001 A 
ATOM     26  C   UNL     1      -5.544 -10.642  14.921  0.00  0.00    +0.012 A 
ATOM     27  C   UNL     1      -3.477 -11.050  16.104  0.00  0.00    +0.012 A 
ATOM     30  C   UNL     1      -4.867 -10.734  13.705  0.00  0.00    +0.024 A 
ATOM     31  C   UNL     1      -2.800 -11.142  14.887  0.00  0.00    +0.024 A 
ATOM     32  C   UNL     1      -3.495 -10.984  13.689  0.00  0.00    +0.029 A 
BRANCH  32  10
ATOM     10  N   UNL     1      -2.810 -11.078  12.460  0.00  0.00    -0.336 N 
ATOM     35  C   UNL     1      -3.200 -12.067  11.474  0.00  0.00    +0.129 C 
ATOM     36  C   UNL     1      -1.714 -10.176  12.159  0.00  0.00    +0.129 C 
ENDBRANCH  32  10
ENDBRANCH  19  23
ENDBRANCH  13   6
BRANCH  14   3
ATOM      3  O   UNL     1     -11.934  -6.161  16.237  0.00  0.00    -0.442 OA
BRANCH   3  18
ATOM      4  O   UNL     1     -13.607  -6.803  14.816  0.00  0.00    -0.226 OA
ATOM      9  N   UNL     1     -12.354  -4.860  14.445  0.00  0.00    -0.251 N 
ATOM     18  C   UNL     1     -12.724  -6.008  15.117  0.00  0.00    +0.405 C 
ATOM     39  H   UNL     1     -11.591  -4.325  14.853  0.00  0.00    +0.158 HD
BRANCH   9  22
ATOM     22  C   UNL     1     -12.903  -4.334  13.253  0.00  0.00    +0.036 A 
ATOM     24  C   UNL     1     -14.240  -3.936  13.217  0.00  0.00    +0.024 A 
ATOM     25  C   UNL     1     -12.108  -4.211  12.114  0.00  0.00    +0.024 A 
ATOM     28  C   UNL     1     -14.781  -3.415  12.043  0.00  0.00    +0.013 A 
ATOM     29  C   UNL     1     -12.650  -3.690  10.938  0.00  0.00    +0.013 A 
ATOM     33  C   UNL     1     -13.987  -3.292  10.903  0.00  0.00    +0.017 A 
BRANCH  33  34
ATOM      5  O   UNL     1     -14.159  -3.133   8.556  0.00  0.00    -0.292 OA
ATOM     34  C   UNL     1     -14.550  -2.751   9.677  0.00  0.00    +0.160 C 
ATOM     37  C   UNL     1     -15.647  -1.692   9.736  0.00  0.00    +0.091 C 
ENDBRANCH  33  34
ENDBRANCH   9  22
ENDBRANCH   3  18
ENDBRANCH  14   3
TORSDOF 7
ENDMDL
MODEL 3
REMARK VINA RESULT:      -7.6      4.465      9.526
REMARK  Name = 11911662
REMARK  10 active torsions:
REMARK  status: ('A' for Active; 'I' for Inactive)
REMARK    1  A    between atoms: O_3  and  C_14
REMARK    2  A    between atoms: O_3  and  C_18
REMARK    3  A    between atoms: N_6  and  C_13
REMARK    4  A    between atoms: N_9  and  C_22
REMARK    5  A    between atoms: N_10  and  C_32
REMARK    6  A    between atoms: N_10  and  C_35
REMARK    7  A    between atoms: N_10  and  C_36
REMARK    8  A    between atoms: C_19  and  C_23
REMARK    9  A    between atoms: C_33  and  C_34
REMARK   10  A    between atoms: C_34  and  C_37
REMARK                            x       y       z     vdW  Elec       q    Type
REMARK                         _______ _______ _______ _____ _____    ______ ____
ROOT
ATOM      1  O   UNL     1      -6.123 -12.284  19.036  0.00  0.00    -0.368 OA
ATOM      2  O   UNL     1      -7.432 -11.172  16.495  0.00  0.00    -0.368 OA
ATOM     11  C   UNL     1      -6.182 -10.857  17.144  0.00  0.00    +0.173 C 
ATOM     12  C   UNL     1      -6.430 -10.939  18.637  0.00  0.00    +0.192 C 
ATOM     13  C   UNL     1      -5.174 -11.950  16.880  0.00  0.00    +0.130 C 
ATOM     14  C   UNL     1      -7.908 -10.648  18.739  0.00  0.00    +0.235 C 
ATOM     15  C   UNL     1      -5.537 -12.987  17.929  0.00  0.00    +0.185 C 
ATOM     16  C   UNL     1      -8.451 -11.315  17.496  0.00  0.00    +0.207 C 
ENDROOT
BRANCH  13   6
ATOM      6  N   UNL     1      -3.830 -11.459  17.104  0.00  0.00    -0.306 N 
ATOM      7  N   UNL     1      -3.498 -11.056  14.841  0.00  0.00    -0.214 NA
ATOM      8  N   UNL     1      -1.778 -10.585  16.461  0.00  0.00    -0.223 NA
ATOM     17  C   UNL     1      -3.000 -11.014  16.091  0.00  0.00    +0.216 A 
ATOM     19  C   UNL     1      -2.662 -10.614  13.879  0.00  0.00    +0.076 A 
ATOM     20  C   UNL     1      -0.994 -10.158  15.449  0.00  0.00    +0.116 A 
ATOM     21  C   UNL     1      -1.386 -10.150  14.127  0.00  0.00    +0.048 A 
ATOM     38  H   UNL     1      -3.480 -11.381  18.052  0.00  0.00    +0.149 HD
BRANCH  19  23
ATOM     23  C   UNL     1      -3.195 -10.657  12.538  0.00  0.00    +0.001 A 
ATOM     26  C   UNL     1      -4.243 -11.524  12.231  0.00  0.00    +0.012 A 
ATOM     27  C   UNL     1      -2.661  -9.829  11.550  0.00  0.00    +0.012 A 
ATOM     30  C   UNL     1      -4.759 -11.563  10.936  0.00  0.00    +0.024 A 
ATOM     31  C   UNL     1      -3.177  -9.869  10.254  0.00  0.00    +0.024 A 
ATOM     32  C   UNL     1      -4.226 -10.736   9.948  0.00  0.00    +0.029 A 
BRANCH  32  10
ATOM     10  N   UNL     1      -4.747 -10.776   8.638  0.00  0.00    -0.336 N 
ATOM     35  C   UNL     1      -5.406  -9.614   8.074  0.00  0.00    +0.129 C 
ATOM     36  C   UNL     1      -4.617 -11.974   7.832  0.00  0.00    +0.129 C 
ENDBRANCH  32  10
ENDBRANCH  19  23
ENDBRANCH  13   6
BRANCH  14   3
ATOM      3  O   UNL     1      -8.501 -11.154  19.915  0.00  0.00    -0.442 OA
BRANCH   3  18
ATOM      4  O   UNL     1     -10.381 -12.451  20.024  0.00  0.00    -0.226 OA
ATOM      9  N   UNL     1     -10.501 -10.134  19.706  0.00  0.00    -0.251 N 
ATOM     18  C   UNL     1      -9.866 -11.347  19.892  0.00  0.00    +0.405 C 
ATOM     39  H   UNL     1      -9.898  -9.320  19.616  0.00  0.00    +0.158 HD
BRANCH   9  22
ATOM     22  C   UNL     1     -11.889  -9.882  19.622  0.00  0.00    +0.036 A 
ATOM     24  C   UNL     1     -12.649  -9.772  20.786  0.00  0.00    +0.024 A 
ATOM     25  C   UNL     1     -12.498  -9.741  18.375  0.00  0.00    +0.024 A 
ATOM     28  C   UNL     1     -14.018  -9.521  20.704  0.00  0.00    +0.013 A 
ATOM     29  C   UNL     1     -13.868  -9.490  18.293  0.00  0.00    +0.013 A 
ATOM     33  C   UNL     1     -14.629  -9.381  19.457  0.00  0.00    +0.017 A 
BRANCH  33  34
ATOM      5  O   UNL     1     -16.686  -9.292  18.307  0.00  0.00    -0.292 OA
ATOM     34  C   UNL     1     -16.056  -9.120  19.370  0.00  0.00    +0.160 C 
ATOM     37  C   UNL     1     -16.825  -8.628  20.592  0.00  0.00    +0.091 C 
ENDBRANCH  33  34
ENDBRANCH   9  22
ENDBRANCH   3  18
ENDBRANCH  14   3
TORSDOF 7
ENDMDL
MODEL 4
REMARK VINA RESULT:      -7.5      1.916      2.963
REMARK  Name = 11911662
REMARK  10 active torsions:
REMARK  status: ('A' for Active; 'I' for Inactive)
REMARK    1  A    between atoms: O_3  and  C_14
REMARK    2  A    between atoms: O_3  and  C_18
REMARK    3  A    between atoms: N_6  and  C_13
REMARK    4  A    between atoms: N_9  and  C_22
REMARK    5  A    between atoms: N_10  and  C_32
REMARK    6  A    between atoms: N_10  and  C_35
REMARK    7  A    between atoms: N_10  and  C_36
REMARK    8  A    between atoms: C_19  and  C_23
REMARK    9  A    between atoms: C_33  and  C_34
REMARK   10  A    between atoms: C_34  and  C_37
REMARK                            x       y       z     vdW  Elec       q    Type
REMARK                         _______ _______ _______ _____ _____    ______ ____
ROOT
ATOM      1  O   UNL     1      -6.520  -7.941   8.825  0.00  0.00    -0.368 OA
ATOM      2  O   UNL     1      -8.160 -10.534   8.844  0.00  0.00    -0.368 OA
ATOM     11  C   UNL     1      -6.739 -10.301   8.747  0.00  0.00    +0.173 C 
ATOM     12  C   UNL     1      -6.555  -9.049   7.912  0.00  0.00    +0.192 C 
ATOM     13  C   UNL     1      -6.184  -9.922  10.100  0.00  0.00    +0.130 C 
ATOM     14  C   UNL     1      -7.805  -9.036   7.064  0.00  0.00    +0.235 C 
ATOM     15  C   UNL     1      -6.493  -8.437  10.173  0.00  0.00    +0.185 C 
ATOM     16  C   UNL     1      -8.843  -9.579   8.019  0.00  0.00    +0.207 C 
ENDROOT
BRANCH  13   6
ATOM      6  N   UNL     1      -4.753 -10.140  10.135  0.00  0.00    -0.306 N 
ATOM      7  N   UNL     1      -4.739 -10.307  12.451  0.00  0.00    -0.214 NA
ATOM      8  N   UNL     1      -2.710 -10.525  11.169  0.00  0.00    -0.223 NA
ATOM     17  C   UNL     1      -4.037 -10.332  11.303  0.00  0.00    +0.216 A 
ATOM     19  C   UNL     1      -4.009 -10.499  13.570  0.00  0.00    +0.076 A 
ATOM     20  C   UNL     1      -2.043 -10.708  12.327  0.00  0.00    +0.116 A 
ATOM     21  C   UNL     1      -2.645 -10.706  13.568  0.00  0.00    +0.048 A 
ATOM     38  H   UNL     1      -4.239 -10.210   9.264  0.00  0.00    +0.149 HD
BRANCH  19  23
ATOM     23  C   UNL     1      -4.760 -10.474  14.802  0.00  0.00    +0.001 A 
ATOM     26  C   UNL     1      -6.137 -10.253  14.776  0.00  0.00    +0.012 A 
ATOM     27  C   UNL     1      -4.108 -10.673  16.019  0.00  0.00    +0.012 A 
ATOM     30  C   UNL     1      -6.862 -10.231  15.967  0.00  0.00    +0.024 A 
ATOM     31  C   UNL     1      -4.834 -10.650  17.210  0.00  0.00    +0.024 A 
ATOM     32  C   UNL     1      -6.210 -10.430  17.184  0.00  0.00    +0.029 A 
BRANCH  32  10
ATOM     10  N   UNL     1      -6.943 -10.407  18.389  0.00  0.00    -0.336 N 
ATOM     35  C   UNL     1      -6.265 -10.539  19.664  0.00  0.00    +0.129 C 
ATOM     36  C   UNL     1      -8.383 -10.237  18.369  0.00  0.00    +0.129 C 
ENDBRANCH  32  10
ENDBRANCH  19  23
ENDBRANCH  13   6
BRANCH  14   3
ATOM      3  O   UNL     1      -8.144  -7.754   6.583  0.00  0.00    -0.442 OA
BRANCH   3  18
ATOM      4  O   UNL     1     -10.406  -7.447   6.459  0.00  0.00    -0.226 OA
ATOM      9  N   UNL     1      -9.117  -6.436   8.131  0.00  0.00    -0.251 N 
ATOM     18  C   UNL     1      -9.339  -7.221   7.017  0.00  0.00    +0.405 C 
ATOM     39  H   UNL     1      -8.153  -6.369   8.450  0.00  0.00    +0.158 HD
BRANCH   9  22
ATOM     22  C   UNL     1     -10.065  -5.708   8.887  0.00  0.00    +0.036 A 
ATOM     24  C   UNL     1     -10.976  -6.383   9.699  0.00  0.00    +0.024 A 
ATOM     25  C   UNL     1     -10.086  -4.315   8.822  0.00  0.00    +0.024 A 
ATOM     28  C   UNL     1     -11.909  -5.666  10.446  0.00  0.00    +0.013 A 
ATOM     29  C   UNL     1     -11.021  -3.597   9.570  0.00  0.00    +0.013 A 
ATOM     33  C   UNL     1     -11.932  -4.272  10.382  0.00  0.00    +0.017 A 
BRANCH  33  34
ATOM      5  O   UNL     1     -12.647  -3.118  12.310  0.00  0.00    -0.292 OA
ATOM     34  C   UNL     1     -12.906  -3.523  11.159  0.00  0.00    +0.160 C 
ATOM     37  C   UNL     1     -14.280  -3.210  10.575  0.00  0.00    +0.091 C 
ENDBRANCH  33  34
ENDBRANCH   9  22
ENDBRANCH   3  18
ENDBRANCH  14   3
TORSDOF 7
ENDMDL
MODEL 5
REMARK VINA RESULT:      -7.4      2.757      9.671
REMARK  Name = 11911662
REMARK  10 active torsions:
REMARK  status: ('A' for Active; 'I' for Inactive)
REMARK    1  A    between atoms: O_3  and  C_14
REMARK    2  A    between atoms: O_3  and  C_18
REMARK    3  A    between atoms: N_6  and  C_13
REMARK    4  A    between atoms: N_9  and  C_22
REMARK    5  A    between atoms: N_10  and  C_32
REMARK    6  A    between atoms: N_10  and  C_35
REMARK    7  A    between atoms: N_10  and  C_36
REMARK    8  A    between atoms: C_19  and  C_23
REMARK    9  A    between atoms: C_33  and  C_34
REMARK   10  A    between atoms: C_34  and  C_37
REMARK                            x       y       z     vdW  Elec       q    Type
REMARK                         _______ _______ _______ _____ _____    ______ ____
ROOT
ATOM      1  O   UNL     1      -5.773 -10.985   9.868  0.00  0.00    -0.368 OA
ATOM      2  O   UNL     1      -4.112  -8.483  10.498  0.00  0.00    -0.368 OA
ATOM     11  C   UNL     1      -4.599  -9.020   9.249  0.00  0.00    +0.173 C 
ATOM     12  C   UNL     1      -4.511 -10.530   9.356  0.00  0.00    +0.192 C 
ATOM     13  C   UNL     1      -6.079  -8.749   9.114  0.00  0.00    +0.130 C 
ATOM     14  C   UNL     1      -3.398 -10.721  10.358  0.00  0.00    +0.235 C 
ATOM     15  C   UNL     1      -6.692  -9.882   9.919  0.00  0.00    +0.185 C 
ATOM     16  C   UNL     1      -3.618  -9.563  11.304  0.00  0.00    +0.207 C 
ENDROOT
BRANCH  13   6
ATOM      6  N   UNL     1      -6.482  -8.846   7.726  0.00  0.00    -0.306 N 
ATOM      7  N   UNL     1      -8.363  -7.530   8.082  0.00  0.00    -0.214 NA
ATOM      8  N   UNL     1      -7.854  -8.420   5.901  0.00  0.00    -0.223 NA
ATOM     17  C   UNL     1      -7.615  -8.238   7.215  0.00  0.00    +0.216 A 
ATOM     19  C   UNL     1      -9.459  -6.952   7.550  0.00  0.00    +0.076 A 
ATOM     20  C   UNL     1      -8.967  -7.815   5.436  0.00  0.00    +0.116 A 
ATOM     21  C   UNL     1      -9.815  -7.062   6.221  0.00  0.00    +0.048 A 
ATOM     38  H   UNL     1      -5.888  -9.336   7.068  0.00  0.00    +0.149 HD
BRANCH  19  23
ATOM     23  C   UNL     1     -10.262  -6.191   8.477  0.00  0.00    +0.001 A 
ATOM     26  C   UNL     1     -11.141  -6.846   9.340  0.00  0.00    +0.012 A 
ATOM     27  C   UNL     1     -10.157  -4.800   8.512  0.00  0.00    +0.012 A 
ATOM     30  C   UNL     1     -11.914  -6.111  10.237  0.00  0.00    +0.024 A 
ATOM     31  C   UNL     1     -10.931  -4.065   9.409  0.00  0.00    +0.024 A 
ATOM     32  C   UNL     1     -11.809  -4.720  10.272  0.00  0.00    +0.029 A 
BRANCH  32  10
ATOM     10  N   UNL     1     -12.592  -3.976  11.179  0.00  0.00    -0.336 N 
ATOM     35  C   UNL     1     -12.236  -3.920  12.583  0.00  0.00    +0.129 C 
ATOM     36  C   UNL     1     -13.755  -3.244  10.717  0.00  0.00    +0.129 C 
ENDBRANCH  32  10
ENDBRANCH  19  23
ENDBRANCH  13   6
BRANCH  14   3
ATOM      3  O   UNL     1      -3.447 -11.965  11.022  0.00  0.00    -0.442 OA
BRANCH   3  18
ATOM      4  O   UNL     1      -1.848 -12.089  12.651  0.00  0.00    -0.226 OA
ATOM      9  N   UNL     1      -4.120 -11.881  13.172  0.00  0.00    -0.251 N 
ATOM     18  C   UNL     1      -3.027 -11.988  12.335  0.00  0.00    +0.405 C 
ATOM     39  H   UNL     1      -5.029 -11.806  12.719  0.00  0.00    +0.158 HD
BRANCH   9  22
ATOM     22  C   UNL     1      -4.137 -11.864  14.586  0.00  0.00    +0.036 A 
ATOM     24  C   UNL     1      -3.327 -10.967  15.282  0.00  0.00    +0.024 A 
ATOM     25  C   UNL     1      -4.966 -12.743  15.283  0.00  0.00    +0.024 A 
ATOM     28  C   UNL     1      -3.344 -10.950  16.676  0.00  0.00    +0.013 A 
ATOM     29  C   UNL     1      -4.983 -12.724  16.679  0.00  0.00    +0.013 A 
ATOM     33  C   UNL     1      -4.172 -11.828  17.375  0.00  0.00    +0.017 A 
BRANCH  33  34
ATOM      5  O   UNL     1      -3.152 -11.991  19.495  0.00  0.00    -0.292 OA
ATOM     34  C   UNL     1      -4.190 -11.811  18.828  0.00  0.00    +0.160 C 
ATOM     37  C   UNL     1      -5.496 -11.568  19.579  0.00  0.00    +0.091 C 
ENDBRANCH  33  34
ENDBRANCH   9  22
ENDBRANCH   3  18
ENDBRANCH  14   3
TORSDOF 7
ENDMDL
MODEL 6
REMARK VINA RESULT:      -7.3     25.098     27.174
REMARK  Name = 11911662
REMARK  10 active torsions:
REMARK  status: ('A' for Active; 'I' for Inactive)
REMARK    1  A    between atoms: O_3  and  C_14
REMARK    2  A    between atoms: O_3  and  C_18
REMARK    3  A    between atoms: N_6  and  C_13
REMARK    4  A    between atoms: N_9  and  C_22
REMARK    5  A    between atoms: N_10  and  C_32
REMARK    6  A    between atoms: N_10  and  C_35
REMARK    7  A    between atoms: N_10  and  C_36
REMARK    8  A    between atoms: C_19  and  C_23
REMARK    9  A    between atoms: C_33  and  C_34
REMARK   10  A    between atoms: C_34  and  C_37
REMARK                            x       y       z     vdW  Elec       q    Type
REMARK                         _______ _______ _______ _____ _____    ______ ____
ROOT
ATOM      1  O   UNL     1      11.228  13.621  10.286  0.00  0.00    -0.368 OA
ATOM      2  O   UNL     1      10.198  11.874  12.588  0.00  0.00    -0.368 OA
ATOM     11  C   UNL     1      11.518  12.035  12.025  0.00  0.00    +0.173 C 
ATOM     12  C   UNL     1      11.338  12.209  10.530  0.00  0.00    +0.192 C 
ATOM     13  C   UNL     1      12.114  13.348  12.476  0.00  0.00    +0.130 C 
ATOM     14  C   UNL     1      10.034  11.493  10.271  0.00  0.00    +0.235 C 
ATOM     15  C   UNL     1      11.501  14.336  11.500  0.00  0.00    +0.185 C 
ATOM     16  C   UNL     1       9.243  11.813  11.519  0.00  0.00    +0.207 C 
ENDROOT
BRANCH  13   6
ATOM      6  N   UNL     1      13.554  13.322  12.326  0.00  0.00    -0.306 N 
ATOM      7  N   UNL     1      13.812  11.883  14.131  0.00  0.00    -0.214 NA
ATOM      8  N   UNL     1      15.714  12.671  12.878  0.00  0.00    -0.223 NA
ATOM     17  C   UNL     1      14.396  12.593  13.148  0.00  0.00    +0.216 A 
ATOM     19  C   UNL     1      14.662  11.184  14.912  0.00  0.00    +0.076 A 
ATOM     20  C   UNL     1      16.505  11.948  13.699  0.00  0.00    +0.116 A 
ATOM     21  C   UNL     1      16.031  11.180  14.741  0.00  0.00    +0.048 A 
ATOM     38  H   UNL     1      13.983  13.817  11.553  0.00  0.00    +0.149 HD
BRANCH  19  23
ATOM     23  C   UNL     1      14.038  10.421  15.966  0.00  0.00    +0.001 A 
ATOM     26  C   UNL     1      12.892   9.671  15.700  0.00  0.00    +0.012 A 
ATOM     27  C   UNL     1      14.582  10.432  17.250  0.00  0.00    +0.012 A 
ATOM     30  C   UNL     1      12.291   8.931  16.718  0.00  0.00    +0.024 A 
ATOM     31  C   UNL     1      13.980   9.692  18.268  0.00  0.00    +0.024 A 
ATOM     32  C   UNL     1      12.835   8.942  18.002  0.00  0.00    +0.029 A 
BRANCH  32  10
ATOM     10  N   UNL     1      12.227   8.195  19.032  0.00  0.00    -0.336 N 
ATOM     35  C   UNL     1      10.995   8.653  19.643  0.00  0.00    +0.129 C 
ATOM     36  C   UNL     1      12.820   6.951  19.485  0.00  0.00    +0.129 C 
ENDBRANCH  32  10
ENDBRANCH  19  23
ENDBRANCH  13   6
BRANCH  14   3
ATOM      3  O   UNL     1       9.378  11.925   9.100  0.00  0.00    -0.442 OA
BRANCH   3  18
ATOM      4  O   UNL     1       9.235  11.462   6.866  0.00  0.00    -0.226 OA
ATOM      9  N   UNL     1       9.682   9.790   8.442  0.00  0.00    -0.251 N 
ATOM     18  C   UNL     1       9.416  11.076   8.015  0.00  0.00    +0.405 C 
ATOM     39  H   UNL     1       9.803   9.665   9.444  0.00  0.00    +0.158 HD
BRANCH   9  22
ATOM     22  C   UNL     1       9.806   8.620   7.658  0.00  0.00    +0.036 A 
ATOM     24  C   UNL     1      11.030   8.301   7.070  0.00  0.00    +0.024 A 
ATOM     25  C   UNL     1       8.705   7.783   7.477  0.00  0.00    +0.024 A 
ATOM     28  C   UNL     1      11.152   7.146   6.299  0.00  0.00    +0.013 A 
ATOM     29  C   UNL     1       8.829   6.626   6.705  0.00  0.00    +0.013 A 
ATOM     33  C   UNL     1      10.052   6.308   6.116  0.00  0.00    +0.017 A 
BRANCH  33  34
ATOM      5  O   UNL     1       9.844   3.987   5.754  0.00  0.00    -0.292 OA
ATOM     34  C   UNL     1      10.179   5.104   5.311  0.00  0.00    +0.160 C 
ATOM     37  C   UNL     1      10.729   5.182   3.891  0.00  0.00    +0.091 C 
ENDBRANCH  33  34
ENDBRANCH   9  22
ENDBRANCH   3  18
ENDBRANCH  14   3
TORSDOF 7
ENDMDL
MODEL 7
REMARK VINA RESULT:      -7.2     20.936     24.611
REMARK  Name = 11911662
REMARK  10 active torsions:
REMARK  status: ('A' for Active; 'I' for Inactive)
REMARK    1  A    between atoms: O_3  and  C_14
REMARK    2  A    between atoms: O_3  and  C_18
REMARK    3  A    between atoms: N_6  and  C_13
REMARK    4  A    between atoms: N_9  and  C_22
REMARK    5  A    between atoms: N_10  and  C_32
REMARK    6  A    between atoms: N_10  and  C_35
REMARK    7  A    between atoms: N_10  and  C_36
REMARK    8  A    between atoms: C_19  and  C_23
REMARK    9  A    between atoms: C_33  and  C_34
REMARK   10  A    between atoms: C_34  and  C_37
REMARK                            x       y       z     vdW  Elec       q    Type
REMARK                         _______ _______ _______ _____ _____    ______ ____
ROOT
ATOM      1  O   UNL     1       5.928  12.689   4.266  0.00  0.00    -0.368 OA
ATOM      2  O   UNL     1       3.543  11.110   3.155  0.00  0.00    -0.368 OA
ATOM     11  C   UNL     1       3.881  11.515   4.499  0.00  0.00    +0.173 C 
ATOM     12  C   UNL     1       5.388  11.407   4.624  0.00  0.00    +0.192 C 
ATOM     13  C   UNL     1       3.604  12.989   4.679  0.00  0.00    +0.130 C 
ATOM     14  C   UNL     1       5.726  10.351   3.599  0.00  0.00    +0.235 C 
ATOM     15  C   UNL     1       4.854  13.627   4.099  0.00  0.00    +0.185 C 
ATOM     16  C   UNL     1       4.731  10.644   2.499  0.00  0.00    +0.207 C 
ENDROOT
BRANCH  13   6
ATOM      6  N   UNL     1       3.485  13.309   6.087  0.00  0.00    -0.306 N 
ATOM      7  N   UNL     1       1.434  12.232   6.254  0.00  0.00    -0.214 NA
ATOM      8  N   UNL     1       2.444  13.303   8.162  0.00  0.00    -0.223 NA
ATOM     17  C   UNL     1       2.407  12.931   6.868  0.00  0.00    +0.216 A 
ATOM     19  C   UNL     1       0.400  11.880   7.046  0.00  0.00    +0.076 A 
ATOM     20  C   UNL     1       1.378  12.919   8.895  0.00  0.00    +0.116 A 
ATOM     21  C   UNL     1       0.317  12.200   8.386  0.00  0.00    +0.048 A 
ATOM     38  H   UNL     1       4.245  13.789   6.554  0.00  0.00    +0.149 HD
BRANCH  19  23
ATOM     23  C   UNL     1      -0.645  11.129   6.391  0.00  0.00    +0.001 A 
ATOM     26  C   UNL     1      -1.093   9.929   6.945  0.00  0.00    +0.012 A 
ATOM     27  C   UNL     1      -1.208  11.605   5.207  0.00  0.00    +0.012 A 
ATOM     30  C   UNL     1      -2.104   9.205   6.313  0.00  0.00    +0.024 A 
ATOM     31  C   UNL     1      -2.219  10.879   4.576  0.00  0.00    +0.024 A 
ATOM     32  C   UNL     1      -2.666   9.681   5.129  0.00  0.00    +0.029 A 
BRANCH  32  10
ATOM     10  N   UNL     1      -3.688   8.948   4.490  0.00  0.00    -0.336 N 
ATOM     35  C   UNL     1      -4.064   7.634   4.974  0.00  0.00    +0.129 C 
ATOM     36  C   UNL     1      -4.387   9.506   3.348  0.00  0.00    +0.129 C 
ENDBRANCH  32  10
ENDBRANCH  19  23
ENDBRANCH  13   6
BRANCH  14   3
ATOM      3  O   UNL     1       7.058  10.417   3.142  0.00  0.00    -0.442 OA
BRANCH   3  18
ATOM      4  O   UNL     1       9.168  10.301   4.017  0.00  0.00    -0.226 OA
ATOM      9  N   UNL     1       7.492   8.792   4.644  0.00  0.00    -0.251 N 
ATOM     18  C   UNL     1       8.025   9.864   3.955  0.00  0.00    +0.405 C 
ATOM     39  H   UNL     1       6.515   8.578   4.458  0.00  0.00    +0.158 HD
BRANCH   9  22
ATOM     22  C   UNL     1       8.137   7.949   5.577  0.00  0.00    +0.036 A 
ATOM     24  C   UNL     1       8.384   6.614   5.256  0.00  0.00    +0.024 A 
ATOM     25  C   UNL     1       8.529   8.452   6.817  0.00  0.00    +0.024 A 
ATOM     28  C   UNL     1       9.022   5.782   6.176  0.00  0.00    +0.013 A 
ATOM     29  C   UNL     1       9.168   7.620   7.737  0.00  0.00    +0.013 A 
ATOM     33  C   UNL     1       9.414   6.285   7.417  0.00  0.00    +0.017 A 
BRANCH  33  34
ATOM      5  O   UNL     1      11.311   5.472   8.558  0.00  0.00    -0.292 OA
ATOM     34  C   UNL     1      10.078   5.418   8.377  0.00  0.00    +0.160 C 
ATOM     37  C   UNL     1       9.271   4.415   9.194  0.00  0.00    +0.091 C 
ENDBRANCH  33  34
ENDBRANCH   9  22
ENDBRANCH   3  18
ENDBRANCH  14   3
TORSDOF 7
ENDMDL
MODEL 8
REMARK VINA RESULT:      -7.1     28.793     32.488
REMARK  Name = 11911662
REMARK  10 active torsions:
REMARK  status: ('A' for Active; 'I' for Inactive)
REMARK    1  A    between atoms: O_3  and  C_14
REMARK    2  A    between atoms: O_3  and  C_18
REMARK    3  A    between atoms: N_6  and  C_13
REMARK    4  A    between atoms: N_9  and  C_22
REMARK    5  A    between atoms: N_10  and  C_32
REMARK    6  A    between atoms: N_10  and  C_35
REMARK    7  A    between atoms: N_10  and  C_36
REMARK    8  A    between atoms: C_19  and  C_23
REMARK    9  A    between atoms: C_33  and  C_34
REMARK   10  A    between atoms: C_34  and  C_37
REMARK                            x       y       z     vdW  Elec       q    Type
REMARK                         _______ _______ _______ _____ _____    ______ ____
ROOT
ATOM      1  O   UNL     1      22.036   8.359  21.935  0.00  0.00    -0.368 OA
ATOM      2  O   UNL     1      21.197   6.239  23.987  0.00  0.00    -0.368 OA
ATOM     11  C   UNL     1      21.629   6.124  22.615  0.00  0.00    +0.173 C 
ATOM     12  C   UNL     1      21.053   7.314  21.872  0.00  0.00    +0.192 C 
ATOM     13  C   UNL     1      23.124   6.327  22.525  0.00  0.00    +0.130 C 
ATOM     14  C   UNL     1      19.829   7.648  22.691  0.00  0.00    +0.235 C 
ATOM     15  C   UNL     1      23.246   7.841  22.510  0.00  0.00    +0.185 C 
ATOM     16  C   UNL     1      20.295   7.350  24.097  0.00  0.00    +0.207 C 
ENDROOT
BRANCH  13   6
ATOM      6  N   UNL     1      23.633   5.770  21.289  0.00  0.00    -0.306 N 
ATOM      7  N   UNL     1      23.854   3.655  22.224  0.00  0.00    -0.214 NA
ATOM      8  N   UNL     1      24.448   4.076  19.926  0.00  0.00    -0.223 NA
ATOM     17  C   UNL     1      23.994   4.442  21.140  0.00  0.00    +0.216 A 
ATOM     19  C   UNL     1      24.215   2.368  22.042  0.00  0.00    +0.076 A 
ATOM     20  C   UNL     1      24.792   2.776  19.816  0.00  0.00    +0.116 A 
ATOM     21  C   UNL     1      24.696   1.867  20.849  0.00  0.00    +0.048 A 
ATOM     38  H   UNL     1      23.685   6.356  20.464  0.00  0.00    +0.149 HD
BRANCH  19  23
ATOM     23  C   UNL     1      24.065   1.521  23.201  0.00  0.00    +0.001 A 
ATOM     26  C   UNL     1      25.004   0.521  23.461  0.00  0.00    +0.012 A 
ATOM     27  C   UNL     1      22.984   1.703  24.063  0.00  0.00    +0.012 A 
ATOM     30  C   UNL     1      24.861  -0.295  24.582  0.00  0.00    +0.024 A 
ATOM     31  C   UNL     1      22.841   0.885  25.184  0.00  0.00    +0.024 A 
ATOM     32  C   UNL     1      23.779  -0.113  25.443  0.00  0.00    +0.029 A 
BRANCH  32  10
ATOM     10  N   UNL     1      23.633  -0.939  26.577  0.00  0.00    -0.336 N 
ATOM     35  C   UNL     1      23.602  -0.363  27.907  0.00  0.00    +0.129 C 
ATOM     36  C   UNL     1      23.498  -2.375  26.427  0.00  0.00    +0.129 C 
ENDBRANCH  32  10
ENDBRANCH  19  23
ENDBRANCH  13   6
BRANCH  14   3
ATOM      3  O   UNL     1      19.402   8.984  22.545  0.00  0.00    -0.442 OA
BRANCH   3  18
ATOM      4  O   UNL     1      18.270  10.127  20.920  0.00  0.00    -0.226 OA
ATOM      9  N   UNL     1      17.348   8.250  21.972  0.00  0.00    -0.251 N 
ATOM     18  C   UNL     1      18.315   9.206  21.726  0.00  0.00    +0.405 C 
ATOM     39  H   UNL     1      17.569   7.560  22.687  0.00  0.00    +0.158 HD
BRANCH   9  22
ATOM     22  C   UNL     1      16.083   8.112  21.356  0.00  0.00    +0.036 A 
ATOM     24  C   UNL     1      15.988   7.575  20.073  0.00  0.00    +0.024 A 
ATOM     25  C   UNL     1      14.931   8.509  22.034  0.00  0.00    +0.024 A 
ATOM     28  C   UNL     1      14.741   7.436  19.466  0.00  0.00    +0.013 A 
ATOM     29  C   UNL     1      13.682   8.370  21.426  0.00  0.00    +0.013 A 
ATOM     33  C   UNL     1      13.588   7.834  20.141  0.00  0.00    +0.017 A 
BRANCH  33  34
ATOM      5  O   UNL     1      12.126   6.967  18.506  0.00  0.00    -0.292 OA
ATOM     34  C   UNL     1      12.286   7.691  19.509  0.00  0.00    +0.160 C 
ATOM     37  C   UNL     1      11.074   8.431  20.067  0.00  0.00    +0.091 C 
ENDBRANCH  33  34
ENDBRANCH   9  22
ENDBRANCH   3  18
ENDBRANCH  14   3
TORSDOF 7
ENDMDL
MODEL 9
REMARK VINA RESULT:      -7.1     22.277     25.223
REMARK  Name = 11911662
REMARK  10 active torsions:
REMARK  status: ('A' for Active; 'I' for Inactive)
REMARK    1  A    between atoms: O_3  and  C_14
REMARK    2  A    between atoms: O_3  and  C_18
REMARK    3  A    between atoms: N_6  and  C_13
REMARK    4  A    between atoms: N_9  and  C_22
REMARK    5  A    between atoms: N_10  and  C_32
REMARK    6  A    between atoms: N_10  and  C_35
REMARK    7  A    between atoms: N_10  and  C_36
REMARK    8  A    between atoms: C_19  and  C_23
REMARK    9  A    between atoms: C_33  and  C_34
REMARK   10  A    between atoms: C_34  and  C_37
REMARK                            x       y       z     vdW  Elec       q    Type
REMARK                         _______ _______ _______ _____ _____    ______ ____
ROOT
ATOM      1  O   UNL     1       7.836   6.346  -5.840  0.00  0.00    -0.368 OA
ATOM      2  O   UNL     1       7.096   6.397  -2.863  0.00  0.00    -0.368 OA
ATOM     11  C   UNL     1       7.880   5.466  -3.638  0.00  0.00    +0.173 C 
ATOM     12  C   UNL     1       7.218   5.360  -4.998  0.00  0.00    +0.192 C 
ATOM     13  C   UNL     1       9.237   6.059  -3.938  0.00  0.00    +0.130 C 
ATOM     14  C   UNL     1       5.781   5.708  -4.689  0.00  0.00    +0.235 C 
ATOM     15  C   UNL     1       8.950   6.931  -5.148  0.00  0.00    +0.185 C 
ATOM     16  C   UNL     1       5.932   6.765  -3.619  0.00  0.00    +0.207 C 
ENDROOT
BRANCH  13   6
ATOM      6  N   UNL     1      10.176   5.012  -4.285  0.00  0.00    -0.306 N 
ATOM      7  N   UNL     1      10.750   4.659  -2.063  0.00  0.00    -0.214 NA
ATOM      8  N   UNL     1      11.754   3.370  -3.834  0.00  0.00    -0.223 NA
ATOM     17  C   UNL     1      10.925   4.317  -3.353  0.00  0.00    +0.216 A 
ATOM     19  C   UNL     1      11.495   3.961  -1.182  0.00  0.00    +0.076 A 
ATOM     20  C   UNL     1      12.470   2.712  -2.898  0.00  0.00    +0.116 A 
ATOM     21  C   UNL     1      12.381   2.967  -1.546  0.00  0.00    +0.048 A 
ATOM     38  H   UNL     1      10.265   4.724  -5.253  0.00  0.00    +0.149 HD
BRANCH  19  23
ATOM     23  C   UNL     1      11.308   4.324   0.203  0.00  0.00    +0.001 A 
ATOM     26  C   UNL     1      11.976   3.620   1.205  0.00  0.00    +0.012 A 
ATOM     27  C   UNL     1      10.461   5.380   0.538  0.00  0.00    +0.012 A 
ATOM     30  C   UNL     1      11.796   3.972   2.542  0.00  0.00    +0.024 A 
ATOM     31  C   UNL     1      10.282   5.732   1.876  0.00  0.00    +0.024 A 
ATOM     32  C   UNL     1      10.949   5.029   2.877  0.00  0.00    +0.029 A 
BRANCH  32  10
ATOM     10  N   UNL     1      10.767   5.386   4.230  0.00  0.00    -0.336 N 
ATOM     35  C   UNL     1      11.512   6.489   4.805  0.00  0.00    +0.129 C 
ATOM     36  C   UNL     1       9.823   4.663   5.059  0.00  0.00    +0.129 C 
ENDBRANCH  32  10
ENDBRANCH  19  23
ENDBRANCH  13   6
BRANCH  14   3
ATOM      3  O   UNL     1       5.066   6.183  -5.807  0.00  0.00    -0.442 OA
BRANCH   3  18
ATOM      4  O   UNL     1       2.802   6.466  -5.958  0.00  0.00    -0.226 OA
ATOM      9  N   UNL     1       3.790   4.351  -6.122  0.00  0.00    -0.251 N 
ATOM     18  C   UNL     1       3.775   5.723  -5.964  0.00  0.00    +0.405 C 
ATOM     39  H   UNL     1       4.704   3.905  -6.099  0.00  0.00    +0.158 HD
BRANCH   9  22
ATOM     22  C   UNL     1       2.689   3.484  -6.310  0.00  0.00    +0.036 A 
ATOM     24  C   UNL     1       2.144   3.316  -7.583  0.00  0.00    +0.024 A 
ATOM     25  C   UNL     1       2.151   2.795  -5.224  0.00  0.00    +0.024 A 
ATOM     28  C   UNL     1       1.060   2.459  -7.769  0.00  0.00    +0.013 A 
ATOM     29  C   UNL     1       1.066   1.937  -5.411  0.00  0.00    +0.013 A 
ATOM     33  C   UNL     1       0.520   1.770  -6.683  0.00  0.00    +0.017 A 
BRANCH  33  34
ATOM      5  O   UNL     1      -1.570   1.190  -7.609  0.00  0.00    -0.292 OA
ATOM     34  C   UNL     1      -0.611   0.877  -6.876  0.00  0.00    +0.160 C 
ATOM     37  C   UNL     1      -0.649  -0.479  -6.179  0.00  0.00    +0.091 C 
ENDBRANCH  33  34
ENDBRANCH   9  22
ENDBRANCH   3  18
ENDBRANCH  14   3
TORSDOF 7
ENDMDL
MODEL 10
REMARK VINA RESULT:      -7.0     22.243     26.871
REMARK  Name = 11911662
REMARK  10 active torsions:
REMARK  status: ('A' for Active; 'I' for Inactive)
REMARK    1  A    between atoms: O_3  and  C_14
REMARK    2  A    between atoms: O_3  and  C_18
REMARK    3  A    between atoms: N_6  and  C_13
REMARK    4  A    between atoms: N_9  and  C_22
REMARK    5  A    between atoms: N_10  and  C_32
REMARK    6  A    between atoms: N_10  and  C_35
REMARK    7  A    between atoms: N_10  and  C_36
REMARK    8  A    between atoms: C_19  and  C_23
REMARK    9  A    between atoms: C_33  and  C_34
REMARK   10  A    between atoms: C_34  and  C_37
REMARK                            x       y       z     vdW  Elec       q    Type
REMARK                         _______ _______ _______ _____ _____    ______ ____
ROOT
ATOM      1  O   UNL     1       4.393  11.375   2.369  0.00  0.00    -0.368 OA
ATOM      2  O   UNL     1       5.066   9.686  -0.102  0.00  0.00    -0.368 OA
ATOM     11  C   UNL     1       3.994   9.590   0.861  0.00  0.00    +0.173 C 
ATOM     12  C   UNL     1       4.581   9.960   2.209  0.00  0.00    +0.192 C 
ATOM     13  C   UNL     1       2.968  10.668   0.600  0.00  0.00    +0.130 C 
ATOM     14  C   UNL     1       6.038   9.604   2.040  0.00  0.00    +0.235 C 
ATOM     15  C   UNL     1       3.578  11.872   1.296  0.00  0.00    +0.185 C 
ATOM     16  C   UNL     1       6.289   9.967   0.594  0.00  0.00    +0.207 C 
ENDROOT
BRANCH  13   6
ATOM      6  N   UNL     1       1.706  10.318   1.217  0.00  0.00    -0.306 N 
ATOM      7  N   UNL     1       0.571  10.457  -0.805  0.00  0.00    -0.214 NA
ATOM      8  N   UNL     1      -0.574   9.876   1.234  0.00  0.00    -0.223 NA
ATOM     17  C   UNL     1       0.516  10.212   0.518  0.00  0.00    +0.216 A 
ATOM     19  C   UNL     1      -0.606  10.345  -1.455  0.00  0.00    +0.076 A 
ATOM     20  C   UNL     1      -1.716   9.783   0.522  0.00  0.00    +0.116 A 
ATOM     21  C   UNL     1      -1.793  10.008  -0.837  0.00  0.00    +0.048 A 
ATOM     38  H   UNL     1       1.681  10.084   2.203  0.00  0.00    +0.149 HD
BRANCH  19  23
ATOM     23  C   UNL     1      -0.549  10.605  -2.873  0.00  0.00    +0.001 A 
ATOM     26  C   UNL     1       0.624  10.350  -3.584  0.00  0.00    +0.012 A 
ATOM     27  C   UNL     1      -1.669  11.111  -3.534  0.00  0.00    +0.012 A 
ATOM     30  C   UNL     1       0.677  10.599  -4.954  0.00  0.00    +0.024 A 
ATOM     31  C   UNL     1      -1.615  11.361  -4.905  0.00  0.00    +0.024 A 
ATOM     32  C   UNL     1      -0.442  11.105  -5.615  0.00  0.00    +0.029 A 
BRANCH  32  10
ATOM     10  N   UNL     1      -0.389  11.358  -7.002  0.00  0.00    -0.336 N 
ATOM     35  C   UNL     1       0.844  11.157  -7.738  0.00  0.00    +0.129 C 
ATOM     36  C   UNL     1      -1.570  11.809  -7.712  0.00  0.00    +0.129 C 
ENDBRANCH  32  10
ENDBRANCH  19  23
ENDBRANCH  13   6
BRANCH  14   3
ATOM      3  O   UNL     1       6.893  10.301   2.918  0.00  0.00    -0.442 OA
BRANCH   3  18
ATOM      4  O   UNL     1       9.050   9.563   3.096  0.00  0.00    -0.226 OA
ATOM      9  N   UNL     1       7.395   8.905   4.615  0.00  0.00    -0.251 N 
ATOM     18  C   UNL     1       7.899   9.574   3.518  0.00  0.00    +0.405 C 
ATOM     39  H   UNL     1       6.405   9.038   4.808  0.00  0.00    +0.158 HD
BRANCH   9  22
ATOM     22  C   UNL     1       8.084   8.050   5.507  0.00  0.00    +0.036 A 
ATOM     24  C   UNL     1       8.550   8.544   6.725  0.00  0.00    +0.024 A 
ATOM     25  C   UNL     1       8.294   6.713   5.169  0.00  0.00    +0.024 A 
ATOM     28  C   UNL     1       9.227   7.701   7.605  0.00  0.00    +0.013 A 
ATOM     29  C   UNL     1       8.972   5.870   6.050  0.00  0.00    +0.013 A 
ATOM     33  C   UNL     1       9.439   6.364   7.268  0.00  0.00    +0.017 A 
BRANCH  33  34
ATOM      5  O   UNL     1      11.373   5.599   8.381  0.00  0.00    -0.292 OA
ATOM     34  C   UNL     1      10.146   5.485   8.185  0.00  0.00    +0.160 C 
ATOM     37  C   UNL     1       9.394   4.392   8.937  0.00  0.00    +0.091 C 
ENDBRANCH  33  34
ENDBRANCH   9  22
ENDBRANCH   3  18
ENDBRANCH  14   3
TORSDOF 7
ENDMDL
