MODEL 1
REMARK VINA RESULT:      -8.4      0.000      0.000
REMARK  Name = 45783505
REMARK  6 active torsions:
REMARK  status: ('A' for Active; 'I' for Inactive)
REMARK    1  A    between atoms: O_3  and  C_32
REMARK    2  A    between atoms: N_5  and  C_14
REMARK    3  A    between atoms: C_10  and  C_15
REMARK    4  A    between atoms: C_14  and  C_16
REMARK    5  A    between atoms: C_17  and  C_22
REMARK    6  A    between atoms: C_28  and  C_32
REMARK                            x       y       z     vdW  Elec       q    Type
REMARK                         _______ _______ _______ _____ _____    ______ ____
ROOT
ATOM      1  O   UNL     1      14.903   8.646  19.935  0.00  0.00    -0.336 OA
ATOM      6  N   UNL     1      15.892   6.872  18.989  0.00  0.00    -0.190 NA
ATOM      8  N   UNL     1      16.099   8.448  20.636  0.00  0.00    -0.056 NA
ATOM     15  C   UNL     1      14.859   7.676  18.984  0.00  0.00    +0.245 A 
ATOM     17  C   UNL     1      16.626   7.385  20.020  0.00  0.00    +0.204 A 
ENDROOT
BRANCH  17  22
ATOM      2  O   UNL     1      24.048   4.378  22.434  0.00  0.00    -0.377 OA
ATOM      7  N   UNL     1      21.500   5.222  21.600  0.00  0.00    -0.311 N 
ATOM      9  N   UNL     1      19.817   6.867  21.856  0.00  0.00    -0.240 NA
ATOM     20  C   UNL     1      22.603   5.132  20.636  0.00  0.00    +0.134 C 
ATOM     21  C   UNL     1      21.907   5.365  23.004  0.00  0.00    +0.134 C 
ATOM     22  C   UNL     1      17.881   6.809  20.410  0.00  0.00    +0.041 A 
ATOM     23  C   UNL     1      23.612   4.090  21.104  0.00  0.00    +0.178 C 
ATOM     24  C   UNL     1      22.953   4.310  23.346  0.00  0.00    +0.178 C 
ATOM     25  C   UNL     1      20.275   5.773  21.207  0.00  0.00    +0.121 A 
ATOM     29  C   UNL     1      18.383   5.684  19.768  0.00  0.00    +0.016 A 
ATOM     30  C   UNL     1      19.603   5.149  20.168  0.00  0.00    +0.044 A 
ATOM     31  C   UNL     1      18.629   7.358  21.439  0.00  0.00    +0.124 A 
ENDBRANCH  17  22
BRANCH  15  10
ATOM      5  N   UNL     1      12.571   8.561  18.569  0.00  0.00    -0.287 NA
ATOM     10  C   UNL     1      13.645   7.674  18.078  0.00  0.00    +0.146 C 
ATOM     11  C   UNL     1      13.959   8.188  16.661  0.00  0.00    +0.030 C 
ATOM     12  C   UNL     1      12.973   9.321  16.420  0.00  0.00    +0.017 C 
ATOM     13  C   UNL     1      11.844   9.022  17.386  0.00  0.00    +0.085 C 
BRANCH   5  14
ATOM     14  C   UNL     1      11.691   7.917  19.536  0.00  0.00    +0.120 C 
BRANCH  14  16
ATOM     16  C   UNL     1      11.479   8.774  20.756  0.00  0.00    -0.033 A 
ATOM     18  C   UNL     1      11.880  10.111  20.747  0.00  0.00    +0.006 A 
ATOM     19  C   UNL     1      10.882   8.233  21.895  0.00  0.00    +0.006 A 
ATOM     26  C   UNL     1      11.684  10.905  21.877  0.00  0.00    +0.015 A 
ATOM     27  C   UNL     1      10.687   9.028  23.024  0.00  0.00    +0.015 A 
ATOM     28  C   UNL     1      11.087  10.364  23.015  0.00  0.00    +0.059 A 
BRANCH  28  32
ATOM      4  O   UNL     1      10.185  12.212  24.238  0.00  0.00    -0.245 OA
ATOM     32  C   UNL     1      10.881  11.192  24.192  0.00  0.00    +0.337 C 
BRANCH  32   3
ATOM      3  O   UNL     1      11.550  10.723  25.281  0.00  0.00    -0.477 OA
ATOM     33  H   UNL     1      11.239  11.145  26.111  0.00  0.00    +0.295 HD
ENDBRANCH  32   3
ENDBRANCH  28  32
ENDBRANCH  14  16
ENDBRANCH   5  14
ENDBRANCH  15  10
TORSDOF 6
ENDMDL
MODEL 2
REMARK VINA RESULT:      -7.6      2.554      4.900
REMARK  Name = 45783505
REMARK  6 active torsions:
REMARK  status: ('A' for Active; 'I' for Inactive)
REMARK    1  A    between atoms: O_3  and  C_32
REMARK    2  A    between atoms: N_5  and  C_14
REMARK    3  A    between atoms: C_10  and  C_15
REMARK    4  A    between atoms: C_14  and  C_16
REMARK    5  A    between atoms: C_17  and  C_22
REMARK    6  A    between atoms: C_28  and  C_32
REMARK                            x       y       z     vdW  Elec       q    Type
REMARK                         _______ _______ _______ _____ _____    ______ ____
ROOT
ATOM      1  O   UNL     1      14.488   6.867  19.528  0.00  0.00    -0.336 OA
ATOM      6  N   UNL     1      15.664   7.488  21.331  0.00  0.00    -0.190 NA
ATOM      8  N   UNL     1      15.776   6.347  19.350  0.00  0.00    -0.056 NA
ATOM     15  C   UNL     1      14.509   7.525  20.718  0.00  0.00    +0.245 A 
ATOM     17  C   UNL     1      16.410   6.755  20.454  0.00  0.00    +0.204 A 
ENDROOT
BRANCH  17  22
ATOM      2  O   UNL     1      24.388   4.622  21.784  0.00  0.00    -0.377 OA
ATOM      7  N   UNL     1      21.751   5.506  21.374  0.00  0.00    -0.311 N 
ATOM      9  N   UNL     1      19.761   5.174  20.137  0.00  0.00    -0.240 NA
ATOM     20  C   UNL     1      22.160   4.973  22.679  0.00  0.00    +0.134 C 
ATOM     21  C   UNL     1      22.575   5.075  20.237  0.00  0.00    +0.134 C 
ATOM     22  C   UNL     1      17.789   6.449  20.709  0.00  0.00    +0.041 A 
ATOM     23  C   UNL     1      23.657   5.183  22.875  0.00  0.00    +0.178 C 
ATOM     24  C   UNL     1      24.051   5.280  20.563  0.00  0.00    +0.178 C 
ATOM     25  C   UNL     1      20.408   5.813  21.137  0.00  0.00    +0.121 A 
ATOM     29  C   UNL     1      18.486   7.086  21.728  0.00  0.00    +0.016 A 
ATOM     30  C   UNL     1      19.822   6.768  21.953  0.00  0.00    +0.044 A 
ATOM     31  C   UNL     1      18.465   5.508  19.949  0.00  0.00    +0.124 A 
ENDBRANCH  17  22
BRANCH  15  10
ATOM      5  N   UNL     1      12.523   8.854  20.026  0.00  0.00    -0.287 NA
ATOM     10  C   UNL     1      13.214   8.185  21.146  0.00  0.00    +0.146 C 
ATOM     11  C   UNL     1      12.187   7.178  21.695  0.00  0.00    +0.030 C 
ATOM     12  C   UNL     1      10.931   7.397  20.864  0.00  0.00    +0.017 C 
ATOM     13  C   UNL     1      11.094   8.809  20.338  0.00  0.00    +0.085 C 
BRANCH   5  14
ATOM     14  C   UNL     1      12.991  10.215  19.793  0.00  0.00    +0.120 C 
BRANCH  14  16
ATOM     16  C   UNL     1      13.425  10.420  18.366  0.00  0.00    -0.033 A 
ATOM     18  C   UNL     1      13.177   9.431  17.413  0.00  0.00    +0.006 A 
ATOM     19  C   UNL     1      14.076  11.596  17.996  0.00  0.00    +0.006 A 
ATOM     26  C   UNL     1      13.580   9.620  16.091  0.00  0.00    +0.015 A 
ATOM     27  C   UNL     1      14.479  11.785  16.674  0.00  0.00    +0.015 A 
ATOM     28  C   UNL     1      14.230  10.797  15.721  0.00  0.00    +0.059 A 
BRANCH  28  32
ATOM      4  O   UNL     1      14.095  11.738  13.526  0.00  0.00    -0.245 OA
ATOM     32  C   UNL     1      14.649  10.995  14.343  0.00  0.00    +0.337 C 
BRANCH  32   3
ATOM      3  O   UNL     1      15.749  10.261  14.024  0.00  0.00    -0.477 OA
ATOM     33  H   UNL     1      16.381  10.770  13.471  0.00  0.00    +0.295 HD
ENDBRANCH  32   3
ENDBRANCH  28  32
ENDBRANCH  14  16
ENDBRANCH   5  14
ENDBRANCH  15  10
TORSDOF 6
ENDMDL
MODEL 3
REMARK VINA RESULT:      -7.4     31.968     33.927
REMARK  Name = 45783505
REMARK  6 active torsions:
REMARK  status: ('A' for Active; 'I' for Inactive)
REMARK    1  A    between atoms: O_3  and  C_32
REMARK    2  A    between atoms: N_5  and  C_14
REMARK    3  A    between atoms: C_10  and  C_15
REMARK    4  A    between atoms: C_14  and  C_16
REMARK    5  A    between atoms: C_17  and  C_22
REMARK    6  A    between atoms: C_28  and  C_32
REMARK                            x       y       z     vdW  Elec       q    Type
REMARK                         _______ _______ _______ _____ _____    ______ ____
ROOT
ATOM      1  O   UNL     1     -17.685   6.186  32.370  0.00  0.00    -0.336 OA
ATOM      6  N   UNL     1     -15.846   5.785  31.156  0.00  0.00    -0.190 NA
ATOM      8  N   UNL     1     -18.133   5.762  31.113  0.00  0.00    -0.056 NA
ATOM     15  C   UNL     1     -16.327   6.171  32.309  0.00  0.00    +0.245 A 
ATOM     17  C   UNL     1     -16.991   5.544  30.453  0.00  0.00    +0.204 A 
ENDROOT
BRANCH  17  22
ATOM      2  O   UNL     1     -16.519   2.650  22.620  0.00  0.00    -0.377 OA
ATOM      7  N   UNL     1     -16.831   3.698  25.210  0.00  0.00    -0.311 N 
ATOM      9  N   UNL     1     -16.419   3.342  27.513  0.00  0.00    -0.240 NA
ATOM     20  C   UNL     1     -16.048   4.427  24.205  0.00  0.00    +0.134 C 
ATOM     21  C   UNL     1     -16.966   2.255  24.971  0.00  0.00    +0.134 C 
ATOM     22  C   UNL     1     -16.959   5.089  29.093  0.00  0.00    +0.041 A 
ATOM     23  C   UNL     1     -16.540   4.066  22.808  0.00  0.00    +0.178 C 
ATOM     24  C   UNL     1     -17.410   2.010  23.533  0.00  0.00    +0.178 C 
ATOM     25  C   UNL     1     -16.867   4.156  26.531  0.00  0.00    +0.121 A 
ATOM     29  C   UNL     1     -17.412   5.897  28.057  0.00  0.00    +0.016 A 
ATOM     30  C   UNL     1     -17.368   5.429  26.748  0.00  0.00    +0.044 A 
ATOM     31  C   UNL     1     -16.476   3.831  28.771  0.00  0.00    +0.124 A 
ENDBRANCH  17  22
BRANCH  15  10
ATOM      5  N   UNL     1     -14.229   6.030  33.640  0.00  0.00    -0.287 NA
ATOM     10  C   UNL     1     -15.592   6.595  33.564  0.00  0.00    +0.146 C 
ATOM     11  C   UNL     1     -15.389   8.118  33.649  0.00  0.00    +0.030 C 
ATOM     12  C   UNL     1     -13.891   8.312  33.833  0.00  0.00    +0.017 C 
ATOM     13  C   UNL     1     -13.429   6.987  34.405  0.00  0.00    +0.085 C 
BRANCH   5  14
ATOM     14  C   UNL     1     -14.192   4.695  34.223  0.00  0.00    +0.120 C 
BRANCH  14  16
ATOM     16  C   UNL     1     -14.184   3.623  33.165  0.00  0.00    -0.033 A 
ATOM     18  C   UNL     1     -15.020   2.513  33.293  0.00  0.00    +0.006 A 
ATOM     19  C   UNL     1     -13.341   3.738  32.060  0.00  0.00    +0.006 A 
ATOM     26  C   UNL     1     -15.012   1.519  32.313  0.00  0.00    +0.015 A 
ATOM     27  C   UNL     1     -13.334   2.744  31.082  0.00  0.00    +0.015 A 
ATOM     28  C   UNL     1     -14.169   1.635  31.208  0.00  0.00    +0.059 A 
BRANCH  28  32
ATOM      4  O   UNL     1     -15.145   0.227  29.538  0.00  0.00    -0.245 OA
ATOM     32  C   UNL     1     -14.162   0.600  30.187  0.00  0.00    +0.337 C 
BRANCH  32   3
ATOM      3  O   UNL     1     -12.927   0.059  30.004  0.00  0.00    -0.477 OA
ATOM     33  H   UNL     1     -12.253   0.481  30.579  0.00  0.00    +0.295 HD
ENDBRANCH  32   3
ENDBRANCH  28  32
ENDBRANCH  14  16
ENDBRANCH   5  14
ENDBRANCH  15  10
TORSDOF 6
ENDMDL
MODEL 4
REMARK VINA RESULT:      -7.3      1.687      2.367
REMARK  Name = 45783505
REMARK  6 active torsions:
REMARK  status: ('A' for Active; 'I' for Inactive)
REMARK    1  A    between atoms: O_3  and  C_32
REMARK    2  A    between atoms: N_5  and  C_14
REMARK    3  A    between atoms: C_10  and  C_15
REMARK    4  A    between atoms: C_14  and  C_16
REMARK    5  A    between atoms: C_17  and  C_22
REMARK    6  A    between atoms: C_28  and  C_32
REMARK                            x       y       z     vdW  Elec       q    Type
REMARK                         _______ _______ _______ _____ _____    ______ ____
ROOT
ATOM      1  O   UNL     1      16.835   9.032  21.647  0.00  0.00    -0.336 OA
ATOM      6  N   UNL     1      16.875   6.886  21.004  0.00  0.00    -0.190 NA
ATOM      8  N   UNL     1      18.148   8.590  21.847  0.00  0.00    -0.056 NA
ATOM     15  C   UNL     1      16.152   7.967  21.149  0.00  0.00    +0.245 A 
ATOM     17  C   UNL     1      18.093   7.316  21.445  0.00  0.00    +0.204 A 
ENDROOT
BRANCH  17  22
ATOM      2  O   UNL     1      24.902   2.479  21.879  0.00  0.00    -0.377 OA
ATOM      7  N   UNL     1      22.535   3.976  21.642  0.00  0.00    -0.311 N 
ATOM      9  N   UNL     1      21.127   5.565  22.689  0.00  0.00    -0.240 NA
ATOM     20  C   UNL     1      23.628   4.162  20.681  0.00  0.00    +0.134 C 
ATOM     21  C   UNL     1      22.932   3.415  22.940  0.00  0.00    +0.134 C 
ATOM     22  C   UNL     1      19.234   6.447  21.473  0.00  0.00    +0.041 A 
ATOM     23  C   UNL     1      24.452   2.882  20.585  0.00  0.00    +0.178 C 
ATOM     24  C   UNL     1      23.792   2.175  22.723  0.00  0.00    +0.178 C 
ATOM     25  C   UNL     1      21.420   4.819  21.599  0.00  0.00    +0.121 A 
ATOM     29  C   UNL     1      19.566   5.666  20.373  0.00  0.00    +0.016 A 
ATOM     30  C   UNL     1      20.679   4.833  20.429  0.00  0.00    +0.044 A 
ATOM     31  C   UNL     1      20.040   6.362  22.596  0.00  0.00    +0.124 A 
ENDBRANCH  17  22
BRANCH  15  10
ATOM      5  N   UNL     1      14.479   9.074  19.677  0.00  0.00    -0.287 NA
ATOM     10  C   UNL     1      14.685   8.191  20.842  0.00  0.00    +0.146 C 
ATOM     11  C   UNL     1      13.948   6.889  20.481  0.00  0.00    +0.030 C 
ATOM     12  C   UNL     1      13.308   7.155  19.127  0.00  0.00    +0.017 C 
ATOM     13  C   UNL     1      13.211   8.666  19.069  0.00  0.00    +0.085 C 
BRANCH   5  14
ATOM     14  C   UNL     1      14.492  10.490  20.019  0.00  0.00    +0.120 C 
BRANCH  14  16
ATOM     16  C   UNL     1      13.564  10.797  21.165  0.00  0.00    -0.033 A 
ATOM     18  C   UNL     1      14.087  11.075  22.429  0.00  0.00    +0.006 A 
ATOM     19  C   UNL     1      12.184  10.803  20.965  0.00  0.00    +0.006 A 
ATOM     26  C   UNL     1      13.228  11.358  23.491  0.00  0.00    +0.015 A 
ATOM     27  C   UNL     1      11.326  11.086  22.028  0.00  0.00    +0.015 A 
ATOM     28  C   UNL     1      11.848  11.365  23.290  0.00  0.00    +0.059 A 
BRANCH  28  32
ATOM      4  O   UNL     1      11.128  11.318  25.571  0.00  0.00    -0.245 OA
ATOM     32  C   UNL     1      10.953  11.661  24.397  0.00  0.00    +0.337 C 
BRANCH  32   3
ATOM      3  O   UNL     1       9.864  12.379  24.008  0.00  0.00    -0.477 OA
ATOM     33  H   UNL     1       9.950  12.704  23.086  0.00  0.00    +0.295 HD
ENDBRANCH  32   3
ENDBRANCH  28  32
ENDBRANCH  14  16
ENDBRANCH   5  14
ENDBRANCH  15  10
TORSDOF 6
ENDMDL
MODEL 5
REMARK VINA RESULT:      -7.3      4.283      8.646
REMARK  Name = 45783505
REMARK  6 active torsions:
REMARK  status: ('A' for Active; 'I' for Inactive)
REMARK    1  A    between atoms: O_3  and  C_32
REMARK    2  A    between atoms: N_5  and  C_14
REMARK    3  A    between atoms: C_10  and  C_15
REMARK    4  A    between atoms: C_14  and  C_16
REMARK    5  A    between atoms: C_17  and  C_22
REMARK    6  A    between atoms: C_28  and  C_32
REMARK                            x       y       z     vdW  Elec       q    Type
REMARK                         _______ _______ _______ _____ _____    ______ ____
ROOT
ATOM      1  O   UNL     1      12.201   9.281  18.541  0.00  0.00    -0.336 OA
ATOM      6  N   UNL     1      13.593  11.032  18.651  0.00  0.00    -0.190 NA
ATOM      8  N   UNL     1      12.782   9.396  17.273  0.00  0.00    -0.056 NA
ATOM     15  C   UNL     1      12.733  10.282  19.291  0.00  0.00    +0.245 A 
ATOM     17  C   UNL     1      13.591  10.451  17.417  0.00  0.00    +0.204 A 
ENDROOT
BRANCH  17  22
ATOM      2  O   UNL     1      18.394  12.992  11.059  0.00  0.00    -0.377 OA
ATOM      7  N   UNL     1      16.733  12.306  13.220  0.00  0.00    -0.311 N 
ATOM      9  N   UNL     1      15.299  10.652  14.120  0.00  0.00    -0.240 NA
ATOM     20  C   UNL     1      18.167  12.539  13.432  0.00  0.00    +0.134 C 
ATOM     21  C   UNL     1      16.355  11.941  11.848  0.00  0.00    +0.134 C 
ATOM     22  C   UNL     1      14.407  10.949  16.347  0.00  0.00    +0.041 A 
ATOM     23  C   UNL     1      18.697  13.488  12.363  0.00  0.00    +0.178 C 
ATOM     24  C   UNL     1      16.982  12.923  10.864  0.00  0.00    +0.178 C 
ATOM     25  C   UNL     1      15.942  11.832  14.272  0.00  0.00    +0.121 A 
ATOM     29  C   UNL     1      15.082  12.158  16.466  0.00  0.00    +0.016 A 
ATOM     30  C   UNL     1      15.867  12.615  15.412  0.00  0.00    +0.044 A 
ATOM     31  C   UNL     1      14.547  10.240  15.165  0.00  0.00    +0.124 A 
ENDBRANCH  17  22
BRANCH  15  10
ATOM      5  N   UNL     1      13.300   9.975  21.694  0.00  0.00    -0.287 NA
ATOM     10  C   UNL     1      12.258  10.374  20.727  0.00  0.00    +0.146 C 
ATOM     11  C   UNL     1      11.875  11.808  21.135  0.00  0.00    +0.030 C 
ATOM     12  C   UNL     1      12.705  12.105  22.376  0.00  0.00    +0.017 C 
ATOM     13  C   UNL     1      13.037  10.730  22.919  0.00  0.00    +0.085 C 
BRANCH   5  14
ATOM     14  C   UNL     1      13.341   8.538  21.934  0.00  0.00    +0.120 C 
BRANCH  14  16
ATOM     16  C   UNL     1      14.580   7.909  21.354  0.00  0.00    -0.033 A 
ATOM     18  C   UNL     1      15.840   8.378  21.730  0.00  0.00    +0.006 A 
ATOM     19  C   UNL     1      14.470   6.859  20.443  0.00  0.00    +0.006 A 
ATOM     26  C   UNL     1      16.988   7.795  21.192  0.00  0.00    +0.015 A 
ATOM     27  C   UNL     1      15.618   6.278  19.906  0.00  0.00    +0.015 A 
ATOM     28  C   UNL     1      16.878   6.745  20.281  0.00  0.00    +0.059 A 
BRANCH  28  32
ATOM      4  O   UNL     1      19.210   6.220  20.202  0.00  0.00    -0.245 OA
ATOM     32  C   UNL     1      18.074   6.138  19.722  0.00  0.00    +0.337 C 
BRANCH  32   3
ATOM      3  O   UNL     1      17.820   5.444  18.579  0.00  0.00    -0.477 OA
ATOM     33  H   UNL     1      16.859   5.386  18.392  0.00  0.00    +0.295 HD
ENDBRANCH  32   3
ENDBRANCH  28  32
ENDBRANCH  14  16
ENDBRANCH   5  14
ENDBRANCH  15  10
TORSDOF 6
ENDMDL
MODEL 6
REMARK VINA RESULT:      -7.2     27.999     31.931
REMARK  Name = 45783505
REMARK  6 active torsions:
REMARK  status: ('A' for Active; 'I' for Inactive)
REMARK    1  A    between atoms: O_3  and  C_32
REMARK    2  A    between atoms: N_5  and  C_14
REMARK    3  A    between atoms: C_10  and  C_15
REMARK    4  A    between atoms: C_14  and  C_16
REMARK    5  A    between atoms: C_17  and  C_22
REMARK    6  A    between atoms: C_28  and  C_32
REMARK                            x       y       z     vdW  Elec       q    Type
REMARK                         _______ _______ _______ _____ _____    ______ ____
ROOT
ATOM      1  O   UNL     1     -10.550 -10.202  18.801  0.00  0.00    -0.336 OA
ATOM      6  N   UNL     1      -9.712  -9.638  16.802  0.00  0.00    -0.190 NA
ATOM      8  N   UNL     1     -11.385  -9.197  18.299  0.00  0.00    -0.056 NA
ATOM     15  C   UNL     1      -9.591 -10.400  17.858  0.00  0.00    +0.245 A 
ATOM     17  C   UNL     1     -10.827  -8.917  17.117  0.00  0.00    +0.204 A 
ENDROOT
BRANCH  17  22
ATOM      2  O   UNL     1     -14.104  -3.393  11.760  0.00  0.00    -0.377 OA
ATOM      7  N   UNL     1     -12.952  -5.113  13.661  0.00  0.00    -0.311 N 
ATOM      9  N   UNL     1     -13.106  -7.228  14.714  0.00  0.00    -0.240 NA
ATOM     20  C   UNL     1     -12.186  -4.692  12.482  0.00  0.00    +0.134 C 
ATOM     21  C   UNL     1     -14.412  -5.035  13.518  0.00  0.00    +0.134 C 
ATOM     22  C   UNL     1     -11.356  -7.921  16.230  0.00  0.00    +0.041 A 
ATOM     23  C   UNL     1     -12.696  -3.341  11.993  0.00  0.00    +0.178 C 
ATOM     24  C   UNL     1     -14.804  -3.666  12.973  0.00  0.00    +0.178 C 
ATOM     25  C   UNL     1     -12.423  -6.075  14.527  0.00  0.00    +0.121 A 
ATOM     29  C   UNL     1     -10.683  -6.724  16.014  0.00  0.00    +0.016 A 
ATOM     30  C   UNL     1     -11.220  -5.778  15.147  0.00  0.00    +0.044 A 
ATOM     31  C   UNL     1     -12.553  -8.123  15.562  0.00  0.00    +0.124 A 
ENDBRANCH  17  22
BRANCH  15  10
ATOM      5  N   UNL     1      -8.091 -11.405  19.571  0.00  0.00    -0.287 NA
ATOM     10  C   UNL     1      -8.549 -11.455  18.168  0.00  0.00    +0.146 C 
ATOM     11  C   UNL     1      -9.080 -12.888  17.981  0.00  0.00    +0.030 C 
ATOM     12  C   UNL     1      -8.823 -13.585  19.309  0.00  0.00    +0.017 C 
ATOM     13  C   UNL     1      -7.705 -12.770  19.928  0.00  0.00    +0.085 C 
BRANCH   5  14
ATOM     14  C   UNL     1      -7.008 -10.454  19.789  0.00  0.00    +0.120 C 
BRANCH  14  16
ATOM     16  C   UNL     1      -5.894 -10.639  18.793  0.00  0.00    -0.033 A 
ATOM     18  C   UNL     1      -4.826 -11.487  19.092  0.00  0.00    +0.006 A 
ATOM     19  C   UNL     1      -5.926  -9.962  17.574  0.00  0.00    +0.006 A 
ATOM     26  C   UNL     1      -3.793 -11.658  18.170  0.00  0.00    +0.015 A 
ATOM     27  C   UNL     1      -4.893 -10.133  16.654  0.00  0.00    +0.015 A 
ATOM     28  C   UNL     1      -3.826 -10.981  16.951  0.00  0.00    +0.059 A 
BRANCH  28  32
ATOM      4  O   UNL     1      -2.896 -11.344  14.777  0.00  0.00    -0.245 OA
ATOM     32  C   UNL     1      -2.750 -11.159  15.990  0.00  0.00    +0.337 C 
BRANCH  32   3
ATOM      3  O   UNL     1      -1.520 -11.102  16.569  0.00  0.00    -0.477 OA
ATOM     33  H   UNL     1      -0.806 -11.325  15.934  0.00  0.00    +0.295 HD
ENDBRANCH  32   3
ENDBRANCH  28  32
ENDBRANCH  14  16
ENDBRANCH   5  14
ENDBRANCH  15  10
TORSDOF 6
ENDMDL
MODEL 7
REMARK VINA RESULT:      -7.2     27.112     31.130
REMARK  Name = 45783505
REMARK  6 active torsions:
REMARK  status: ('A' for Active; 'I' for Inactive)
REMARK    1  A    between atoms: O_3  and  C_32
REMARK    2  A    between atoms: N_5  and  C_14
REMARK    3  A    between atoms: C_10  and  C_15
REMARK    4  A    between atoms: C_14  and  C_16
REMARK    5  A    between atoms: C_17  and  C_22
REMARK    6  A    between atoms: C_28  and  C_32
REMARK                            x       y       z     vdW  Elec       q    Type
REMARK                         _______ _______ _______ _____ _____    ______ ____
ROOT
ATOM      1  O   UNL     1     -14.535   9.755  17.330  0.00  0.00    -0.336 OA
ATOM      6  N   UNL     1     -13.266   8.737  15.790  0.00  0.00    -0.190 NA
ATOM      8  N   UNL     1     -15.384   8.879  16.643  0.00  0.00    -0.056 NA
ATOM     15  C   UNL     1     -13.307   9.609  16.765  0.00  0.00    +0.245 A 
ATOM     17  C   UNL     1     -14.563   8.316  15.751  0.00  0.00    +0.204 A 
ENDROOT
BRANCH  17  22
ATOM      2  O   UNL     1     -16.949   2.756   9.976  0.00  0.00    -0.377 OA
ATOM      7  N   UNL     1     -16.210   4.515  12.040  0.00  0.00    -0.311 N 
ATOM      9  N   UNL     1     -14.629   6.130  12.744  0.00  0.00    -0.240 NA
ATOM     20  C   UNL     1     -17.495   4.679  11.351  0.00  0.00    +0.134 C 
ATOM     21  C   UNL     1     -15.184   3.785  11.283  0.00  0.00    +0.134 C 
ATOM     22  C   UNL     1     -15.008   7.331  14.807  0.00  0.00    +0.041 A 
ATOM     23  C   UNL     1     -17.960   3.335  10.801  0.00  0.00    +0.178 C 
ATOM     24  C   UNL     1     -15.772   2.488  10.738  0.00  0.00    +0.178 C 
ATOM     25  C   UNL     1     -15.790   5.473  12.968  0.00  0.00    +0.121 A 
ATOM     29  C   UNL     1     -16.194   6.635  15.005  0.00  0.00    +0.016 A 
ATOM     30  C   UNL     1     -16.600   5.686  14.072  0.00  0.00    +0.044 A 
ATOM     31  C   UNL     1     -14.268   7.045  13.671  0.00  0.00    +0.124 A 
ENDBRANCH  17  22
BRANCH  15  10
ATOM      5  N   UNL     1     -11.492   9.795  18.457  0.00  0.00    -0.287 NA
ATOM     10  C   UNL     1     -12.194  10.460  17.341  0.00  0.00    +0.146 C 
ATOM     11  C   UNL     1     -11.091  10.770  16.313  0.00  0.00    +0.030 C 
ATOM     12  C   UNL     1      -9.797  10.301  16.963  0.00  0.00    +0.017 C 
ATOM     13  C   UNL     1     -10.121  10.306  18.444  0.00  0.00    +0.085 C 
BRANCH   5  14
ATOM     14  C   UNL     1     -12.140   9.997  19.746  0.00  0.00    +0.120 C 
BRANCH  14  16
ATOM     16  C   UNL     1     -12.501   8.691  20.402  0.00  0.00    -0.033 A 
ATOM     18  C   UNL     1     -11.608   7.620  20.358  0.00  0.00    +0.006 A 
ATOM     19  C   UNL     1     -13.727   8.550  21.051  0.00  0.00    +0.006 A 
ATOM     26  C   UNL     1     -11.942   6.409  20.965  0.00  0.00    +0.015 A 
ATOM     27  C   UNL     1     -14.060   7.339  21.658  0.00  0.00    +0.015 A 
ATOM     28  C   UNL     1     -13.168   6.269  21.615  0.00  0.00    +0.059 A 
BRANCH  28  32
ATOM      4  O   UNL     1     -14.654   4.529  22.314  0.00  0.00    -0.245 OA
ATOM     32  C   UNL     1     -13.516   5.007  22.248  0.00  0.00    +0.337 C 
BRANCH  32   3
ATOM      3  O   UNL     1     -12.434   4.376  22.781  0.00  0.00    -0.477 OA
ATOM     33  H   UNL     1     -11.626   4.519  22.243  0.00  0.00    +0.295 HD
ENDBRANCH  32   3
ENDBRANCH  28  32
ENDBRANCH  14  16
ENDBRANCH   5  14
ENDBRANCH  15  10
TORSDOF 6
ENDMDL
MODEL 8
REMARK VINA RESULT:      -7.1     27.759     30.474
REMARK  Name = 45783505
REMARK  6 active torsions:
REMARK  status: ('A' for Active; 'I' for Inactive)
REMARK    1  A    between atoms: O_3  and  C_32
REMARK    2  A    between atoms: N_5  and  C_14
REMARK    3  A    between atoms: C_10  and  C_15
REMARK    4  A    between atoms: C_14  and  C_16
REMARK    5  A    between atoms: C_17  and  C_22
REMARK    6  A    between atoms: C_28  and  C_32
REMARK                            x       y       z     vdW  Elec       q    Type
REMARK                         _______ _______ _______ _____ _____    ______ ____
ROOT
ATOM      1  O   UNL     1      -2.244 -10.142  11.380  0.00  0.00    -0.336 OA
ATOM      6  N   UNL     1      -4.197 -11.194  11.063  0.00  0.00    -0.190 NA
ATOM      8  N   UNL     1      -2.938  -9.395  10.421  0.00  0.00    -0.056 NA
ATOM     15  C   UNL     1      -3.056 -11.184  11.704  0.00  0.00    +0.245 A 
ATOM     17  C   UNL     1      -4.079 -10.077  10.287  0.00  0.00    +0.204 A 
ENDROOT
BRANCH  17  22
ATOM      2  O   UNL     1      -9.887  -7.719   4.750  0.00  0.00    -0.377 OA
ATOM      7  N   UNL     1      -8.066  -8.546   6.725  0.00  0.00    -0.311 N 
ATOM      9  N   UNL     1      -5.984  -9.597   7.130  0.00  0.00    -0.240 NA
ATOM     20  C   UNL     1      -8.400  -7.125   6.573  0.00  0.00    +0.134 C 
ATOM     21  C   UNL     1      -8.294  -9.372   5.532  0.00  0.00    +0.134 C 
ATOM     22  C   UNL     1      -5.120  -9.672   9.387  0.00  0.00    +0.041 A 
ATOM     23  C   UNL     1      -9.794  -6.985   5.972  0.00  0.00    +0.178 C 
ATOM     24  C   UNL     1      -9.694  -9.113   4.986  0.00  0.00    +0.178 C 
ATOM     25  C   UNL     1      -7.058  -8.933   7.614  0.00  0.00    +0.121 A 
ATOM     29  C   UNL     1      -6.239  -8.989   9.847  0.00  0.00    +0.016 A 
ATOM     30  C   UNL     1      -7.232  -8.609   8.950  0.00  0.00    +0.044 A 
ATOM     31  C   UNL     1      -5.041  -9.949   8.031  0.00  0.00    +0.124 A 
ENDBRANCH  17  22
BRANCH  15  10
ATOM      5  N   UNL     1      -3.313 -12.133  13.990  0.00  0.00    -0.287 NA
ATOM     10  C   UNL     1      -2.527 -12.154  12.740  0.00  0.00    +0.146 C 
ATOM     11  C   UNL     1      -2.584 -13.618  12.267  0.00  0.00    +0.030 C 
ATOM     12  C   UNL     1      -3.368 -14.355  13.343  0.00  0.00    +0.017 C 
ATOM     13  C   UNL     1      -3.208 -13.474  14.566  0.00  0.00    +0.085 C 
BRANCH   5  14
ATOM     14  C   UNL     1      -2.881 -11.100  14.923  0.00  0.00    +0.120 C 
BRANCH  14  16
ATOM     16  C   UNL     1      -3.858 -10.926  16.056  0.00  0.00    -0.033 A 
ATOM     18  C   UNL     1      -5.101 -10.336  15.819  0.00  0.00    +0.006 A 
ATOM     19  C   UNL     1      -3.522 -11.352  17.340  0.00  0.00    +0.006 A 
ATOM     26  C   UNL     1      -6.005 -10.173  16.869  0.00  0.00    +0.015 A 
ATOM     27  C   UNL     1      -4.427 -11.189  18.388  0.00  0.00    +0.015 A 
ATOM     28  C   UNL     1      -5.669 -10.600  18.153  0.00  0.00    +0.059 A 
BRANCH  28  32
ATOM      4  O   UNL     1      -6.430 -10.799  20.412  0.00  0.00    -0.245 OA
ATOM     32  C   UNL     1      -6.612 -10.431  19.246  0.00  0.00    +0.337 C 
BRANCH  32   3
ATOM      3  O   UNL     1      -7.757  -9.808  18.855  0.00  0.00    -0.477 OA
ATOM     33  H   UNL     1      -8.519 -10.426  18.827  0.00  0.00    +0.295 HD
ENDBRANCH  32   3
ENDBRANCH  28  32
ENDBRANCH  14  16
ENDBRANCH   5  14
ENDBRANCH  15  10
TORSDOF 6
ENDMDL
MODEL 9
REMARK VINA RESULT:      -7.1      3.044      4.747
REMARK  Name = 45783505
REMARK  6 active torsions:
REMARK  status: ('A' for Active; 'I' for Inactive)
REMARK    1  A    between atoms: O_3  and  C_32
REMARK    2  A    between atoms: N_5  and  C_14
REMARK    3  A    between atoms: C_10  and  C_15
REMARK    4  A    between atoms: C_14  and  C_16
REMARK    5  A    between atoms: C_17  and  C_22
REMARK    6  A    between atoms: C_28  and  C_32
REMARK                            x       y       z     vdW  Elec       q    Type
REMARK                         _______ _______ _______ _____ _____    ______ ____
ROOT
ATOM      1  O   UNL     1      18.462   9.413  21.256  0.00  0.00    -0.336 OA
ATOM      6  N   UNL     1      17.947   7.234  21.325  0.00  0.00    -0.190 NA
ATOM      8  N   UNL     1      19.672   8.733  21.433  0.00  0.00    -0.056 NA
ATOM     15  C   UNL     1      17.497   8.457  21.202  0.00  0.00    +0.245 A 
ATOM     17  C   UNL     1      19.287   7.453  21.464  0.00  0.00    +0.204 A 
ENDROOT
BRANCH  17  22
ATOM      2  O   UNL     1      24.451   0.921  22.250  0.00  0.00    -0.377 OA
ATOM      7  N   UNL     1      22.845   3.219  22.046  0.00  0.00    -0.311 N 
ATOM      9  N   UNL     1      21.113   4.278  20.828  0.00  0.00    -0.240 NA
ATOM     20  C   UNL     1      22.786   2.379  23.248  0.00  0.00    +0.134 C 
ATOM     21  C   UNL     1      23.337   2.547  20.836  0.00  0.00    +0.134 C 
ATOM     22  C   UNL     1      20.213   6.371  21.635  0.00  0.00    +0.041 A 
ATOM     23  C   UNL     1      24.113   1.650  23.431  0.00  0.00    +0.178 C 
ATOM     24  C   UNL     1      24.635   1.809  21.148  0.00  0.00    +0.178 C 
ATOM     25  C   UNL     1      21.947   4.280  21.894  0.00  0.00    +0.121 A 
ATOM     29  C   UNL     1      21.085   6.339  22.716  0.00  0.00    +0.016 A 
ATOM     30  C   UNL     1      21.972   5.277  22.856  0.00  0.00    +0.044 A 
ATOM     31  C   UNL     1      20.266   5.326  20.727  0.00  0.00    +0.124 A 
ENDBRANCH  17  22
BRANCH  15  10
ATOM      5  N   UNL     1      15.085   8.077  21.681  0.00  0.00    -0.287 NA
ATOM     10  C   UNL     1      16.075   8.943  21.011  0.00  0.00    +0.146 C 
ATOM     11  C   UNL     1      15.840  10.342  21.611  0.00  0.00    +0.030 C 
ATOM     12  C   UNL     1      14.661  10.176  22.559  0.00  0.00    +0.017 C 
ATOM     13  C   UNL     1      13.958   8.938  22.039  0.00  0.00    +0.085 C 
BRANCH   5  14
ATOM     14  C   UNL     1      14.670   6.942  20.866  0.00  0.00    +0.120 C 
BRANCH  14  16
ATOM     16  C   UNL     1      13.855   7.375  19.677  0.00  0.00    -0.033 A 
ATOM     18  C   UNL     1      12.501   7.678  19.834  0.00  0.00    +0.006 A 
ATOM     19  C   UNL     1      14.449   7.472  18.419  0.00  0.00    +0.006 A 
ATOM     26  C   UNL     1      11.745   8.079  18.732  0.00  0.00    +0.015 A 
ATOM     27  C   UNL     1      13.692   7.873  17.319  0.00  0.00    +0.015 A 
ATOM     28  C   UNL     1      12.340   8.177  17.475  0.00  0.00    +0.059 A 
BRANCH  28  32
ATOM      4  O   UNL     1      11.986   9.210  15.347  0.00  0.00    -0.245 OA
ATOM     32  C   UNL     1      11.552   8.595  16.327  0.00  0.00    +0.337 C 
BRANCH  32   3
ATOM      3  O   UNL     1      10.245   8.234  16.434  0.00  0.00    -0.477 OA
ATOM     33  H   UNL     1      10.145   7.300  16.718  0.00  0.00    +0.295 HD
ENDBRANCH  32   3
ENDBRANCH  28  32
ENDBRANCH  14  16
ENDBRANCH   5  14
ENDBRANCH  15  10
TORSDOF 6
ENDMDL
MODEL 10
REMARK VINA RESULT:      -7.1     27.860     31.990
REMARK  Name = 45783505
REMARK  6 active torsions:
REMARK  status: ('A' for Active; 'I' for Inactive)
REMARK    1  A    between atoms: O_3  and  C_32
REMARK    2  A    between atoms: N_5  and  C_14
REMARK    3  A    between atoms: C_10  and  C_15
REMARK    4  A    between atoms: C_14  and  C_16
REMARK    5  A    between atoms: C_17  and  C_22
REMARK    6  A    between atoms: C_28  and  C_32
REMARK                            x       y       z     vdW  Elec       q    Type
REMARK                         _______ _______ _______ _____ _____    ______ ____
ROOT
ATOM      1  O   UNL     1     -14.922   5.821  32.506  0.00  0.00    -0.336 OA
ATOM      6  N   UNL     1     -14.558   7.911  31.786  0.00  0.00    -0.190 NA
ATOM      8  N   UNL     1     -13.718   6.230  33.091  0.00  0.00    -0.056 NA
ATOM     15  C   UNL     1     -15.350   6.870  31.753  0.00  0.00    +0.245 A 
ATOM     17  C   UNL     1     -13.571   7.473  32.619  0.00  0.00    +0.204 A 
ENDROOT
BRANCH  17  22
ATOM      2  O   UNL     1      -6.834  12.133  34.311  0.00  0.00    -0.377 OA
ATOM      7  N   UNL     1      -9.191  10.672  33.849  0.00  0.00    -0.311 N 
ATOM      9  N   UNL     1     -10.412   9.402  32.268  0.00  0.00    -0.240 NA
ATOM     20  C   UNL     1      -8.245  10.244  34.886  0.00  0.00    +0.134 C 
ATOM     21  C   UNL     1      -8.618  11.512  32.789  0.00  0.00    +0.134 C 
ATOM     22  C   UNL     1     -12.449   8.300  32.960  0.00  0.00    +0.041 A 
ATOM     23  C   UNL     1      -7.461  11.448  35.396  0.00  0.00    +0.178 C 
ATOM     24  C   UNL     1      -7.814  12.649  33.411  0.00  0.00    +0.178 C 
ATOM     25  C   UNL     1     -10.289   9.866  33.533  0.00  0.00    +0.121 A 
ATOM     29  C   UNL     1     -12.290   8.796  34.248  0.00  0.00    +0.016 A 
ATOM     30  C   UNL     1     -11.191   9.595  34.549  0.00  0.00    +0.044 A 
ATOM     31  C   UNL     1     -11.491   8.629  32.015  0.00  0.00    +0.124 A 
ENDBRANCH  17  22
BRANCH  15  10
ATOM      5  N   UNL     1     -16.916   5.259  30.683  0.00  0.00    -0.287 NA
ATOM     10  C   UNL     1     -16.653   6.676  31.006  0.00  0.00    +0.146 C 
ATOM     11  C   UNL     1     -17.878   7.124  31.824  0.00  0.00    +0.030 C 
ATOM     12  C   UNL     1     -18.801   5.915  31.855  0.00  0.00    +0.017 C 
ATOM     13  C   UNL     1     -18.371   5.107  30.647  0.00  0.00    +0.085 C 
BRANCH   5  14
ATOM     14  C   UNL     1     -16.288   4.827  29.441  0.00  0.00    +0.120 C 
BRANCH  14  16
ATOM     16  C   UNL     1     -15.747   3.426  29.545  0.00  0.00    -0.033 A 
ATOM     18  C   UNL     1     -14.493   3.205  30.116  0.00  0.00    +0.006 A 
ATOM     19  C   UNL     1     -16.497   2.350  29.071  0.00  0.00    +0.006 A 
ATOM     26  C   UNL     1     -13.990   1.907  30.212  0.00  0.00    +0.015 A 
ATOM     27  C   UNL     1     -15.994   1.053  29.168  0.00  0.00    +0.015 A 
ATOM     28  C   UNL     1     -14.741   0.831  29.739  0.00  0.00    +0.059 A 
BRANCH  28  32
ATOM      4  O   UNL     1     -13.166  -0.923  29.330  0.00  0.00    -0.245 OA
ATOM     32  C   UNL     1     -14.218  -0.522  29.839  0.00  0.00    +0.337 C 
BRANCH  32   3
ATOM      3  O   UNL     1     -15.022  -1.338  30.575  0.00  0.00    -0.477 OA
ATOM     33  H   UNL     1     -14.858  -2.285  30.379  0.00  0.00    +0.295 HD
ENDBRANCH  32   3
ENDBRANCH  28  32
ENDBRANCH  14  16
ENDBRANCH   5  14
ENDBRANCH  15  10
TORSDOF 6
ENDMDL
