MODEL 1
REMARK VINA RESULT:      -7.3      0.000      0.000
REMARK  Name = 25338476
REMARK  5 active torsions:
REMARK  status: ('A' for Active; 'I' for Inactive)
REMARK    1  A    between atoms: N_3  and  C_20
REMARK    2  A    between atoms: N_4  and  C_8
REMARK    3  A    between atoms: C_10  and  C_19
REMARK    4  A    between atoms: C_12  and  C_17
REMARK    5  A    between atoms: C_21  and  C_22
REMARK                            x       y       z     vdW  Elec       q    Type
REMARK                         _______ _______ _______ _____ _____    ______ ____
ROOT
ATOM      3  N   UNL     1      11.619   7.199  21.541  0.00  0.00    -0.293 NA
ATOM      8  C   UNL     1      10.836   9.394  21.482  0.00  0.00    +0.089 C 
ATOM      9  C   UNL     1      11.685   9.188  20.226  0.00  0.00    +0.052 C 
ATOM     10  C   UNL     1      12.059   7.694  20.223  0.00  0.00    +0.147 C 
ATOM     11  C   UNL     1      10.431   7.985  21.889  0.00  0.00    +0.107 C 
ATOM     20  C   UNL     1      11.345   5.767  21.554  0.00  0.00    +0.105 C 
ENDROOT
BRANCH  10  19
ATOM      1  O   UNL     1      13.866   7.130  18.678  0.00  0.00    -0.336 OA
ATOM      5  N   UNL     1      14.546   7.536  20.774  0.00  0.00    -0.190 NA
ATOM      6  N   UNL     1      15.258   6.971  18.673  0.00  0.00    -0.056 NA
ATOM     19  C   UNL     1      13.530   7.464  19.952  0.00  0.00    +0.245 A 
ATOM     21  C   UNL     1      15.585   7.226  19.944  0.00  0.00    +0.204 A 
BRANCH  21  22
ATOM      7  N   UNL     1      18.649   8.081  21.870  0.00  0.00    -0.263 NA
ATOM     22  C   UNL     1      16.939   7.181  20.417  0.00  0.00    +0.041 A 
ATOM     23  C   UNL     1      17.839   6.244  19.925  0.00  0.00    +0.014 A 
ATOM     24  C   UNL     1      17.388   8.069  21.380  0.00  0.00    +0.122 A 
ATOM     25  C   UNL     1      19.145   6.224  20.403  0.00  0.00    +0.020 A 
ATOM     26  C   UNL     1      19.497   7.155  21.367  0.00  0.00    +0.111 A 
ENDBRANCH  21  22
ENDBRANCH  10  19
BRANCH   8   4
ATOM      2  O   UNL     1      11.049  12.246  21.975  0.00  0.00    -0.276 OA
ATOM      4  N   UNL     1      11.585  10.049  22.528  0.00  0.00    -0.311 N 
ATOM     17  C   UNL     1      11.625  11.424  22.682  0.00  0.00    +0.216 C 
ATOM     27  H   UNL     1      12.085   9.455  23.181  0.00  0.00    +0.149 HD
BRANCH  17  12
ATOM     12  C   UNL     1      12.456  11.839  23.862  0.00  0.00    +0.075 C 
ATOM     13  C   UNL     1      11.637  11.723  25.150  0.00  0.00    +0.013 C 
ATOM     14  C   UNL     1      13.041  13.238  23.656  0.00  0.00    +0.013 C 
ATOM     15  C   UNL     1      10.625  12.856  25.320  0.00  0.00    +0.001 C 
ATOM     16  C   UNL     1      12.022  14.360  23.858  0.00  0.00    +0.001 C 
ATOM     18  C   UNL     1      11.283  14.224  25.185  0.00  0.00    +0.000 C 
ENDBRANCH  17  12
ENDBRANCH   8   4
TORSDOF 4
ENDMDL
MODEL 2
REMARK VINA RESULT:      -6.6     27.265     29.654
REMARK  Name = 25338476
REMARK  5 active torsions:
REMARK  status: ('A' for Active; 'I' for Inactive)
REMARK    1  A    between atoms: N_3  and  C_20
REMARK    2  A    between atoms: N_4  and  C_8
REMARK    3  A    between atoms: C_10  and  C_19
REMARK    4  A    between atoms: C_12  and  C_17
REMARK    5  A    between atoms: C_21  and  C_22
REMARK                            x       y       z     vdW  Elec       q    Type
REMARK                         _______ _______ _______ _____ _____    ______ ____
ROOT
ATOM      3  N   UNL     1      -6.198 -11.856  17.691  0.00  0.00    -0.293 NA
ATOM      8  C   UNL     1      -4.047 -11.255  17.021  0.00  0.00    +0.089 C 
ATOM      9  C   UNL     1      -4.872  -9.968  17.083  0.00  0.00    +0.052 C 
ATOM     10  C   UNL     1      -6.235 -10.382  17.670  0.00  0.00    +0.147 C 
ATOM     11  C   UNL     1      -4.797 -12.219  17.928  0.00  0.00    +0.107 C 
ATOM     20  C   UNL     1      -7.086 -12.438  18.689  0.00  0.00    +0.105 C 
ENDROOT
BRANCH  10  19
ATOM      1  O   UNL     1      -7.484 -10.186  15.579  0.00  0.00    -0.336 OA
ATOM      5  N   UNL     1      -8.355  -9.014  17.278  0.00  0.00    -0.190 NA
ATOM      6  N   UNL     1      -8.623  -9.549  15.069  0.00  0.00    -0.056 NA
ATOM     19  C   UNL     1      -7.400  -9.818  16.885  0.00  0.00    +0.245 A 
ATOM     21  C   UNL     1      -9.081  -8.878  16.131  0.00  0.00    +0.204 A 
BRANCH  21  22
ATOM      7  N   UNL     1     -11.256  -5.896  15.677  0.00  0.00    -0.263 NA
ATOM     22  C   UNL     1     -10.260  -8.063  16.078  0.00  0.00    +0.041 A 
ATOM     23  C   UNL     1     -11.513  -8.595  16.358  0.00  0.00    +0.014 A 
ATOM     24  C   UNL     1     -10.186  -6.720  15.746  0.00  0.00    +0.122 A 
ATOM     25  C   UNL     1     -12.638  -7.780  16.299  0.00  0.00    +0.020 A 
ATOM     26  C   UNL     1     -12.458  -6.450  15.956  0.00  0.00    +0.111 A 
ENDBRANCH  21  22
ENDBRANCH  10  19
BRANCH   8   4
ATOM      2  O   UNL     1      -1.717 -11.264  15.290  0.00  0.00    -0.276 OA
ATOM      4  N   UNL     1      -3.959 -11.764  15.672  0.00  0.00    -0.311 N 
ATOM     17  C   UNL     1      -2.795 -11.723  14.923  0.00  0.00    +0.216 C 
ATOM     27  H   UNL     1      -4.794 -12.184  15.279  0.00  0.00    +0.149 HD
BRANCH  17  12
ATOM     12  C   UNL     1      -2.971 -12.341  13.566  0.00  0.00    +0.075 C 
ATOM     13  C   UNL     1      -1.808 -11.948  12.654  0.00  0.00    +0.013 C 
ATOM     14  C   UNL     1      -4.336 -11.983  12.973  0.00  0.00    +0.013 C 
ATOM     15  C   UNL     1      -1.909 -10.513  12.138  0.00  0.00    +0.001 C 
ATOM     16  C   UNL     1      -4.411 -10.554  12.436  0.00  0.00    +0.001 C 
ATOM     18  C   UNL     1      -3.260 -10.244  11.485  0.00  0.00    +0.000 C 
ENDBRANCH  17  12
ENDBRANCH   8   4
TORSDOF 4
ENDMDL
MODEL 3
REMARK VINA RESULT:      -6.6     26.844     28.784
REMARK  Name = 25338476
REMARK  5 active torsions:
REMARK  status: ('A' for Active; 'I' for Inactive)
REMARK    1  A    between atoms: N_3  and  C_20
REMARK    2  A    between atoms: N_4  and  C_8
REMARK    3  A    between atoms: C_10  and  C_19
REMARK    4  A    between atoms: C_12  and  C_17
REMARK    5  A    between atoms: C_21  and  C_22
REMARK                            x       y       z     vdW  Elec       q    Type
REMARK                         _______ _______ _______ _____ _____    ______ ____
ROOT
ATOM      3  N   UNL     1      -3.275 -12.269  12.442  0.00  0.00    -0.293 NA
ATOM      8  C   UNL     1      -2.687 -10.415  11.157  0.00  0.00    +0.089 C 
ATOM      9  C   UNL     1      -1.946 -10.289  12.489  0.00  0.00    +0.052 C 
ATOM     10  C   UNL     1      -2.238 -11.597  13.248  0.00  0.00    +0.147 C 
ATOM     11  C   UNL     1      -3.004 -11.900  11.050  0.00  0.00    +0.107 C 
ATOM     20  C   UNL     1      -3.296 -13.715  12.626  0.00  0.00    +0.105 C 
ENDROOT
BRANCH  10  19
ATOM      1  O   UNL     1      -1.649 -11.127  15.572  0.00  0.00    -0.336 OA
ATOM      5  N   UNL     1      -3.850 -11.336  15.211  0.00  0.00    -0.190 NA
ATOM      6  N   UNL     1      -2.267 -10.935  16.815  0.00  0.00    -0.056 NA
ATOM     19  C   UNL     1      -2.651 -11.356  14.684  0.00  0.00    +0.245 A 
ATOM     21  C   UNL     1      -3.564 -11.074  16.519  0.00  0.00    +0.204 A 
BRANCH  21  22
ATOM      7  N   UNL     1      -6.786 -10.128  18.117  0.00  0.00    -0.263 NA
ATOM     22  C   UNL     1      -4.597 -10.957  17.507  0.00  0.00    +0.041 A 
ATOM     23  C   UNL     1      -4.453 -11.523  18.768  0.00  0.00    +0.014 A 
ATOM     24  C   UNL     1      -5.772 -10.276  17.233  0.00  0.00    +0.122 A 
ATOM     25  C   UNL     1      -5.472 -11.393  19.704  0.00  0.00    +0.020 A 
ATOM     26  C   UNL     1      -6.608 -10.693  19.333  0.00  0.00    +0.111 A 
ENDBRANCH  21  22
ENDBRANCH  10  19
BRANCH   8   4
ATOM      2  O   UNL     1      -4.144  -9.467   8.833  0.00  0.00    -0.276 OA
ATOM      4  N   UNL     1      -3.891  -9.618  11.143  0.00  0.00    -0.311 N 
ATOM     17  C   UNL     1      -4.516  -9.213   9.976  0.00  0.00    +0.216 C 
ATOM     27  H   UNL     1      -4.294  -9.370  12.040  0.00  0.00    +0.149 HD
BRANCH  17  12
ATOM     12  C   UNL     1      -5.761  -8.418  10.245  0.00  0.00    +0.075 C 
ATOM     13  C   UNL     1      -6.414  -8.886  11.547  0.00  0.00    +0.013 C 
ATOM     14  C   UNL     1      -6.716  -8.475   9.050  0.00  0.00    +0.013 C 
ATOM     15  C   UNL     1      -7.157 -10.214  11.401  0.00  0.00    +0.001 C 
ATOM     16  C   UNL     1      -7.472  -9.798   8.936  0.00  0.00    +0.001 C 
ATOM     18  C   UNL     1      -8.151 -10.179  10.247  0.00  0.00    +0.000 C 
ENDBRANCH  17  12
ENDBRANCH   8   4
TORSDOF 4
ENDMDL
MODEL 4
REMARK VINA RESULT:      -6.5     26.743     30.350
REMARK  Name = 25338476
REMARK  5 active torsions:
REMARK  status: ('A' for Active; 'I' for Inactive)
REMARK    1  A    between atoms: N_3  and  C_20
REMARK    2  A    between atoms: N_4  and  C_8
REMARK    3  A    between atoms: C_10  and  C_19
REMARK    4  A    between atoms: C_12  and  C_17
REMARK    5  A    between atoms: C_21  and  C_22
REMARK                            x       y       z     vdW  Elec       q    Type
REMARK                         _______ _______ _______ _____ _____    ______ ____
ROOT
ATOM      3  N   UNL     1     -15.784   6.232  33.246  0.00  0.00    -0.293 NA
ATOM      8  C   UNL     1     -15.185   4.047  33.794  0.00  0.00    +0.089 C 
ATOM      9  C   UNL     1     -14.183   4.972  34.486  0.00  0.00    +0.052 C 
ATOM     10  C   UNL     1     -14.695   6.402  34.227  0.00  0.00    +0.147 C 
ATOM     11  C   UNL     1     -16.396   4.934  33.546  0.00  0.00    +0.107 C 
ATOM     20  C   UNL     1     -16.761   7.314  33.281  0.00  0.00    +0.105 C 
ENDROOT
BRANCH  10  19
ATOM      1  O   UNL     1     -13.309   7.307  32.429  0.00  0.00    -0.336 OA
ATOM      5  N   UNL     1     -12.875   8.177  34.447  0.00  0.00    -0.190 NA
ATOM      6  N   UNL     1     -12.281   8.239  32.238  0.00  0.00    -0.056 NA
ATOM     19  C   UNL     1     -13.600   7.335  33.757  0.00  0.00    +0.245 A 
ATOM     21  C   UNL     1     -12.080   8.709  33.473  0.00  0.00    +0.204 A 
BRANCH  21  22
ATOM      7  N   UNL     1     -10.376  11.552  35.159  0.00  0.00    -0.263 NA
ATOM     22  C   UNL     1     -11.096   9.710  33.768  0.00  0.00    +0.041 A 
ATOM     23  C   UNL     1      -9.942   9.829  33.001  0.00  0.00    +0.014 A 
ATOM     24  C   UNL     1     -11.264  10.588  34.827  0.00  0.00    +0.122 A 
ATOM     25  C   UNL     1      -9.006  10.809  33.311  0.00  0.00    +0.020 A 
ATOM     26  C   UNL     1      -9.267  11.637  34.390  0.00  0.00    +0.111 A 
ENDBRANCH  21  22
ENDBRANCH  10  19
BRANCH   8   4
ATOM      2  O   UNL     1     -14.655   1.268  33.146  0.00  0.00    -0.276 OA
ATOM      4  N   UNL     1     -14.656   3.521  32.558  0.00  0.00    -0.311 N 
ATOM     17  C   UNL     1     -14.437   2.171  32.343  0.00  0.00    +0.216 C 
ATOM     27  H   UNL     1     -14.460   4.186  31.818  0.00  0.00    +0.149 HD
BRANCH  17  12
ATOM     12  C   UNL     1     -13.907   1.894  30.965  0.00  0.00    +0.075 C 
ATOM     13  C   UNL     1     -14.541   2.852  29.955  0.00  0.00    +0.013 C 
ATOM     14  C   UNL     1     -14.100   0.423  30.589  0.00  0.00    +0.013 C 
ATOM     15  C   UNL     1     -15.981   2.480  29.599  0.00  0.00    +0.001 C 
ATOM     16  C   UNL     1     -15.539   0.076  30.209  0.00  0.00    +0.001 C 
ATOM     18  C   UNL     1     -16.093   1.027  29.154  0.00  0.00    +0.000 C 
ENDBRANCH  17  12
ENDBRANCH   8   4
TORSDOF 4
ENDMDL
MODEL 5
REMARK VINA RESULT:      -6.5     27.240     29.106
REMARK  Name = 25338476
REMARK  5 active torsions:
REMARK  status: ('A' for Active; 'I' for Inactive)
REMARK    1  A    between atoms: N_3  and  C_20
REMARK    2  A    between atoms: N_4  and  C_8
REMARK    3  A    between atoms: C_10  and  C_19
REMARK    4  A    between atoms: C_12  and  C_17
REMARK    5  A    between atoms: C_21  and  C_22
REMARK                            x       y       z     vdW  Elec       q    Type
REMARK                         _______ _______ _______ _____ _____    ______ ____
ROOT
ATOM      3  N   UNL     1      -3.146 -13.030  14.037  0.00  0.00    -0.293 NA
ATOM      8  C   UNL     1      -1.947 -11.732  12.516  0.00  0.00    +0.089 C 
ATOM      9  C   UNL     1      -2.152 -10.878  13.767  0.00  0.00    +0.052 C 
ATOM     10  C   UNL     1      -2.812 -11.812  14.800  0.00  0.00    +0.147 C 
ATOM     11  C   UNL     1      -2.104 -13.161  13.014  0.00  0.00    +0.107 C 
ATOM     20  C   UNL     1      -3.242 -14.221  14.870  0.00  0.00    +0.105 C 
ENDROOT
BRANCH  10  19
ATOM      1  O   UNL     1      -3.891 -10.939  16.810  0.00  0.00    -0.336 OA
ATOM      5  N   UNL     1      -5.158 -10.820  14.966  0.00  0.00    -0.190 NA
ATOM      6  N   UNL     1      -5.103 -10.359  17.207  0.00  0.00    -0.056 NA
ATOM     19  C   UNL     1      -4.007 -11.178  15.477  0.00  0.00    +0.245 A 
ATOM     21  C   UNL     1      -5.797 -10.322  16.065  0.00  0.00    +0.204 A 
BRANCH  21  22
ATOM      7  N   UNL     1      -8.958  -8.641  17.067  0.00  0.00    -0.263 NA
ATOM     22  C   UNL     1      -7.129  -9.795  15.987  0.00  0.00    +0.041 A 
ATOM     23  C   UNL     1      -7.876  -9.903  14.820  0.00  0.00    +0.014 A 
ATOM     24  C   UNL     1      -7.709  -9.160  17.073  0.00  0.00    +0.122 A 
ATOM     25  C   UNL     1      -9.164  -9.383  14.775  0.00  0.00    +0.020 A 
ATOM     26  C   UNL     1      -9.655  -8.766  15.915  0.00  0.00    +0.111 A 
ENDBRANCH  21  22
ENDBRANCH  10  19
BRANCH   8   4
ATOM      2  O   UNL     1      -2.008  -9.396  10.794  0.00  0.00    -0.276 OA
ATOM      4  N   UNL     1      -2.919 -11.421  11.495  0.00  0.00    -0.311 N 
ATOM     17  C   UNL     1      -2.863 -10.275  10.721  0.00  0.00    +0.216 C 
ATOM     27  H   UNL     1      -3.661 -12.095  11.341  0.00  0.00    +0.149 HD
BRANCH  17  12
ATOM     12  C   UNL     1      -3.981 -10.210   9.720  0.00  0.00    +0.075 C 
ATOM     13  C   UNL     1      -4.342  -8.753   9.427  0.00  0.00    +0.013 C 
ATOM     14  C   UNL     1      -5.182 -11.038  10.184  0.00  0.00    +0.013 C 
ATOM     15  C   UNL     1      -5.156  -8.102  10.546  0.00  0.00    +0.001 C 
ATOM     16  C   UNL     1      -6.000 -10.359  11.282  0.00  0.00    +0.001 C 
ATOM     18  C   UNL     1      -6.382  -8.932  10.906  0.00  0.00    +0.000 C 
ENDBRANCH  17  12
ENDBRANCH   8   4
TORSDOF 4
ENDMDL
MODEL 6
REMARK VINA RESULT:      -6.3     29.859     31.331
REMARK  Name = 25338476
REMARK  5 active torsions:
REMARK  status: ('A' for Active; 'I' for Inactive)
REMARK    1  A    between atoms: N_3  and  C_20
REMARK    2  A    between atoms: N_4  and  C_8
REMARK    3  A    between atoms: C_10  and  C_19
REMARK    4  A    between atoms: C_12  and  C_17
REMARK    5  A    between atoms: C_21  and  C_22
REMARK                            x       y       z     vdW  Elec       q    Type
REMARK                         _______ _______ _______ _____ _____    ______ ____
ROOT
ATOM      3  N   UNL     1     -13.628  -6.040  12.128  0.00  0.00    -0.293 NA
ATOM      8  C   UNL     1     -12.783  -5.397  14.203  0.00  0.00    +0.089 C 
ATOM      9  C   UNL     1     -12.307  -4.359  13.186  0.00  0.00    +0.052 C 
ATOM     10  C   UNL     1     -13.004  -4.730  11.863  0.00  0.00    +0.147 C 
ATOM     11  C   UNL     1     -14.002  -6.027  13.546  0.00  0.00    +0.107 C 
ATOM     20  C   UNL     1     -14.772  -6.315  11.268  0.00  0.00    +0.105 C 
ENDROOT
BRANCH  10  19
ATOM      1  O   UNL     1     -11.619  -3.533  10.245  0.00  0.00    -0.336 OA
ATOM      5  N   UNL     1     -11.570  -5.761  10.020  0.00  0.00    -0.190 NA
ATOM      6  N   UNL     1     -10.761  -3.796   9.169  0.00  0.00    -0.056 NA
ATOM     19  C   UNL     1     -12.050  -4.743  10.688  0.00  0.00    +0.245 A 
ATOM     21  C   UNL     1     -10.784  -5.132   9.098  0.00  0.00    +0.204 A 
BRANCH  21  22
ATOM      7  N   UNL     1      -7.899  -6.711   7.365  0.00  0.00    -0.263 NA
ATOM     22  C   UNL     1     -10.034  -5.866   8.121  0.00  0.00    +0.041 A 
ATOM     23  C   UNL     1     -10.658  -6.435   7.017  0.00  0.00    +0.014 A 
ATOM     24  C   UNL     1      -8.664  -6.031   8.248  0.00  0.00    +0.122 A 
ATOM     25  C   UNL     1      -9.905  -7.140   6.086  0.00  0.00    +0.020 A 
ATOM     26  C   UNL     1      -8.541  -7.250   6.304  0.00  0.00    +0.111 A 
ENDBRANCH  21  22
ENDBRANCH  10  19
BRANCH   8   4
ATOM      2  O   UNL     1     -11.300  -5.767  16.671  0.00  0.00    -0.276 OA
ATOM      4  N   UNL     1     -11.763  -6.382  14.474  0.00  0.00    -0.311 N 
ATOM     17  C   UNL     1     -11.109  -6.480  15.689  0.00  0.00    +0.216 C 
ATOM     27  H   UNL     1     -11.542  -7.037  13.730  0.00  0.00    +0.149 HD
BRANCH  17  12
ATOM     12  C   UNL     1     -10.114  -7.606  15.711  0.00  0.00    +0.075 C 
ATOM     13  C   UNL     1     -10.633  -8.783  14.882  0.00  0.00    +0.013 C 
ATOM     14  C   UNL     1      -9.764  -8.001  17.147  0.00  0.00    +0.013 C 
ATOM     15  C   UNL     1     -11.724  -9.582  15.595  0.00  0.00    +0.001 C 
ATOM     16  C   UNL     1     -10.853  -8.824  17.835  0.00  0.00    +0.001 C 
ATOM     18  C   UNL     1     -11.284 -10.016  16.988  0.00  0.00    +0.000 C 
ENDBRANCH  17  12
ENDBRANCH   8   4
TORSDOF 4
ENDMDL
MODEL 7
REMARK VINA RESULT:      -6.3     16.455     19.836
REMARK  Name = 25338476
REMARK  5 active torsions:
REMARK  status: ('A' for Active; 'I' for Inactive)
REMARK    1  A    between atoms: N_3  and  C_20
REMARK    2  A    between atoms: N_4  and  C_8
REMARK    3  A    between atoms: C_10  and  C_19
REMARK    4  A    between atoms: C_12  and  C_17
REMARK    5  A    between atoms: C_21  and  C_22
REMARK                            x       y       z     vdW  Elec       q    Type
REMARK                         _______ _______ _______ _____ _____    ______ ____
ROOT
ATOM      3  N   UNL     1      15.578   7.663   4.424  0.00  0.00    -0.293 NA
ATOM      8  C   UNL     1      15.729   7.785   2.101  0.00  0.00    +0.089 C 
ATOM      9  C   UNL     1      14.311   8.215   2.479  0.00  0.00    +0.052 C 
ATOM     10  C   UNL     1      14.294   8.267   4.019  0.00  0.00    +0.147 C 
ATOM     11  C   UNL     1      16.536   8.013   3.371  0.00  0.00    +0.107 C 
ATOM     20  C   UNL     1      16.030   8.105   5.737  0.00  0.00    +0.105 C 
ENDROOT
BRANCH  10  19
ATOM      1  O   UNL     1      12.463   6.662   3.815  0.00  0.00    -0.336 OA
ATOM      5  N   UNL     1      12.541   7.716   5.791  0.00  0.00    -0.190 NA
ATOM      6  N   UNL     1      11.392   6.160   4.567  0.00  0.00    -0.056 NA
ATOM     19  C   UNL     1      13.087   7.571   4.610  0.00  0.00    +0.245 A 
ATOM     21  C   UNL     1      11.505   6.829   5.719  0.00  0.00    +0.204 A 
BRANCH  21  22
ATOM      7  N   UNL     1       8.619   7.345   8.006  0.00  0.00    -0.263 NA
ATOM     22  C   UNL     1      10.601   6.637   6.815  0.00  0.00    +0.041 A 
ATOM     23  C   UNL     1      10.791   5.607   7.729  0.00  0.00    +0.014 A 
ATOM     24  C   UNL     1       9.510   7.471   6.996  0.00  0.00    +0.122 A 
ATOM     25  C   UNL     1       9.898   5.445   8.782  0.00  0.00    +0.020 A 
ATOM     26  C   UNL     1       8.837   6.332   8.875  0.00  0.00    +0.111 A 
ENDBRANCH  21  22
ENDBRANCH  10  19
BRANCH   8   4
ATOM      2  O   UNL     1      15.265   6.719  -0.559  0.00  0.00    -0.276 OA
ATOM      4  N   UNL     1      15.772   6.401   1.691  0.00  0.00    -0.311 N 
ATOM     17  C   UNL     1      15.535   5.989   0.392  0.00  0.00    +0.216 C 
ATOM     27  H   UNL     1      16.007   5.715   2.401  0.00  0.00    +0.149 HD
BRANCH  17  12
ATOM     12  C   UNL     1      15.669   4.502   0.234  0.00  0.00    +0.075 C 
ATOM     13  C   UNL     1      15.009   4.049  -1.070  0.00  0.00    +0.013 C 
ATOM     14  C   UNL     1      15.121   3.769   1.460  0.00  0.00    +0.013 C 
ATOM     15  C   UNL     1      13.483   4.017  -0.990  0.00  0.00    +0.001 C 
ATOM     16  C   UNL     1      13.594   3.722   1.510  0.00  0.00    +0.001 C 
ATOM     18  C   UNL     1      12.999   3.205   0.206  0.00  0.00    +0.000 C 
ENDBRANCH  17  12
ENDBRANCH   8   4
TORSDOF 4
ENDMDL
MODEL 8
REMARK VINA RESULT:      -6.2     18.223     21.396
REMARK  Name = 25338476
REMARK  5 active torsions:
REMARK  status: ('A' for Active; 'I' for Inactive)
REMARK    1  A    between atoms: N_3  and  C_20
REMARK    2  A    between atoms: N_4  and  C_8
REMARK    3  A    between atoms: C_10  and  C_19
REMARK    4  A    between atoms: C_12  and  C_17
REMARK    5  A    between atoms: C_21  and  C_22
REMARK                            x       y       z     vdW  Elec       q    Type
REMARK                         _______ _______ _______ _____ _____    ______ ____
ROOT
ATOM      3  N   UNL     1      12.243   7.287   2.010  0.00  0.00    -0.293 NA
ATOM      8  C   UNL     1      11.135   6.766   0.026  0.00  0.00    +0.089 C 
ATOM      9  C   UNL     1      10.088   6.749   1.140  0.00  0.00    +0.052 C 
ATOM     10  C   UNL     1      10.821   7.241   2.403  0.00  0.00    +0.147 C 
ATOM     11  C   UNL     1      12.256   7.631   0.585  0.00  0.00    +0.107 C 
ATOM     20  C   UNL     1      13.027   8.226   2.803  0.00  0.00    +0.105 C 
ENDROOT
BRANCH  10  19
ATOM      1  O   UNL     1      10.603   5.022   3.402  0.00  0.00    -0.336 OA
ATOM      5  N   UNL     1      10.278   6.709   4.839  0.00  0.00    -0.190 NA
ATOM      6  N   UNL     1      10.328   4.429   4.641  0.00  0.00    -0.056 NA
ATOM     19  C   UNL     1      10.555   6.364   3.608  0.00  0.00    +0.245 A 
ATOM     21  C   UNL     1      10.148   5.489   5.437  0.00  0.00    +0.204 A 
BRANCH  21  22
ATOM      7  N   UNL     1       9.755   3.976   8.811  0.00  0.00    -0.263 NA
ATOM     22  C   UNL     1       9.836   5.362   6.831  0.00  0.00    +0.041 A 
ATOM     23  C   UNL     1       9.336   6.438   7.555  0.00  0.00    +0.014 A 
ATOM     24  C   UNL     1      10.027   4.163   7.499  0.00  0.00    +0.122 A 
ATOM     25  C   UNL     1       9.044   6.285   8.906  0.00  0.00    +0.020 A 
ATOM     26  C   UNL     1       9.270   5.045   9.482  0.00  0.00    +0.111 A 
ENDBRANCH  21  22
ENDBRANCH  10  19
BRANCH   8   4
ATOM      2  O   UNL     1       9.800   4.762  -1.594  0.00  0.00    -0.276 OA
ATOM      4  N   UNL     1      11.603   5.435  -0.283  0.00  0.00    -0.311 N 
ATOM     17  C   UNL     1      10.890   4.547  -1.070  0.00  0.00    +0.216 C 
ATOM     27  H   UNL     1      12.507   5.164   0.087  0.00  0.00    +0.149 HD
BRANCH  17  12
ATOM     12  C   UNL     1      11.614   3.245  -1.255  0.00  0.00    +0.075 C 
ATOM     13  C   UNL     1      13.110   3.497  -1.451  0.00  0.00    +0.013 C 
ATOM     14  C   UNL     1      10.995   2.430  -2.393  0.00  0.00    +0.013 C 
ATOM     15  C   UNL     1      13.452   4.014  -2.848  0.00  0.00    +0.001 C 
ATOM     16  C   UNL     1      11.371   2.944  -3.783  0.00  0.00    +0.001 C 
ATOM     18  C   UNL     1      12.878   3.116  -3.937  0.00  0.00    +0.000 C 
ENDBRANCH  17  12
ENDBRANCH   8   4
TORSDOF 4
ENDMDL
MODEL 9
REMARK VINA RESULT:      -6.2     33.991     36.042
REMARK  Name = 25338476
REMARK  5 active torsions:
REMARK  status: ('A' for Active; 'I' for Inactive)
REMARK    1  A    between atoms: N_3  and  C_20
REMARK    2  A    between atoms: N_4  and  C_8
REMARK    3  A    between atoms: C_10  and  C_19
REMARK    4  A    between atoms: C_12  and  C_17
REMARK    5  A    between atoms: C_21  and  C_22
REMARK                            x       y       z     vdW  Elec       q    Type
REMARK                         _______ _______ _______ _____ _____    ______ ____
ROOT
ATOM      3  N   UNL     1       1.451 -13.220  -4.626  0.00  0.00    -0.293 NA
ATOM      8  C   UNL     1       2.969 -14.904  -4.086  0.00  0.00    +0.089 C 
ATOM      9  C   UNL     1       1.569 -15.474  -3.855  0.00  0.00    +0.052 C 
ATOM     10  C   UNL     1       0.595 -14.392  -4.361  0.00  0.00    +0.147 C 
ATOM     11  C   UNL     1       2.745 -13.755  -5.059  0.00  0.00    +0.107 C 
ATOM     20  C   UNL     1       0.884 -12.307  -5.611  0.00  0.00    +0.105 C 
ENDROOT
BRANCH  10  19
ATOM      1  O   UNL     1      -1.754 -13.891  -3.916  0.00  0.00    -0.336 OA
ATOM      5  N   UNL     1      -0.487 -14.052  -2.075  0.00  0.00    -0.190 NA
ATOM      6  N   UNL     1      -2.612 -13.661  -2.832  0.00  0.00    -0.056 NA
ATOM     19  C   UNL     1      -0.524 -14.115  -3.382  0.00  0.00    +0.245 A 
ATOM     21  C   UNL     1      -1.791 -13.773  -1.782  0.00  0.00    +0.204 A 
BRANCH  21  22
ATOM      7  N   UNL     1      -3.927 -12.798   1.101  0.00  0.00    -0.263 NA
ATOM     22  C   UNL     1      -2.241 -13.611  -0.430  0.00  0.00    +0.041 A 
ATOM     23  C   UNL     1      -1.486 -14.079   0.639  0.00  0.00    +0.014 A 
ATOM     24  C   UNL     1      -3.444 -12.983  -0.149  0.00  0.00    +0.122 A 
ATOM     25  C   UNL     1      -1.948 -13.907   1.938  0.00  0.00    +0.020 A 
ATOM     26  C   UNL     1      -3.165 -13.267   2.115  0.00  0.00    +0.111 A 
ENDBRANCH  21  22
ENDBRANCH  10  19
BRANCH   8   4
ATOM      2  O   UNL     1       4.478 -16.469  -2.163  0.00  0.00    -0.276 OA
ATOM      4  N   UNL     1       3.564 -14.442  -2.854  0.00  0.00    -0.311 N 
ATOM     17  C   UNL     1       4.269 -15.269  -1.998  0.00  0.00    +0.216 C 
ATOM     27  H   UNL     1       3.465 -13.457  -2.633  0.00  0.00    +0.149 HD
BRANCH  17  12
ATOM     12  C   UNL     1       4.802 -14.530  -0.805  0.00  0.00    +0.075 C 
ATOM     13  C   UNL     1       5.248 -15.521   0.273  0.00  0.00    +0.013 C 
ATOM     14  C   UNL     1       3.782 -13.513  -0.289  0.00  0.00    +0.013 C 
ATOM     15  C   UNL     1       4.078 -16.140   1.037  0.00  0.00    +0.001 C 
ATOM     16  C   UNL     1       2.635 -14.146   0.498  0.00  0.00    +0.001 C 
ATOM     18  C   UNL     1       3.143 -15.074   1.596  0.00  0.00    +0.000 C 
ENDBRANCH  17  12
ENDBRANCH   8   4
TORSDOF 4
ENDMDL
MODEL 10
REMARK VINA RESULT:      -6.2     27.436     29.967
REMARK  Name = 25338476
REMARK  5 active torsions:
REMARK  status: ('A' for Active; 'I' for Inactive)
REMARK    1  A    between atoms: N_3  and  C_20
REMARK    2  A    between atoms: N_4  and  C_8
REMARK    3  A    between atoms: C_10  and  C_19
REMARK    4  A    between atoms: C_12  and  C_17
REMARK    5  A    between atoms: C_21  and  C_22
REMARK                            x       y       z     vdW  Elec       q    Type
REMARK                         _______ _______ _______ _____ _____    ______ ____
ROOT
ATOM      3  N   UNL     1      -5.352 -11.946  16.873  0.00  0.00    -0.293 NA
ATOM      8  C   UNL     1      -3.902 -10.669  15.570  0.00  0.00    +0.089 C 
ATOM      9  C   UNL     1      -4.789  -9.690  16.341  0.00  0.00    +0.052 C 
ATOM     10  C   UNL     1      -5.627 -10.560  17.298  0.00  0.00    +0.147 C 
ATOM     11  C   UNL     1      -3.970 -11.951  16.386  0.00  0.00    +0.107 C 
ATOM     20  C   UNL     1      -5.557 -12.923  17.936  0.00  0.00    +0.105 C 
ENDROOT
BRANCH  10  19
ATOM      1  O   UNL     1      -7.541  -9.547  16.167  0.00  0.00    -0.336 OA
ATOM      5  N   UNL     1      -8.021 -10.425  18.172  0.00  0.00    -0.190 NA
ATOM      6  N   UNL     1      -8.909  -9.324  16.372  0.00  0.00    -0.056 NA
ATOM     19  C   UNL     1      -7.097 -10.201  17.273  0.00  0.00    +0.245 A 
ATOM     21  C   UNL     1      -9.116  -9.870  17.575  0.00  0.00    +0.204 A 
BRANCH  21  22
ATOM      7  N   UNL     1     -12.779  -9.452  18.059  0.00  0.00    -0.263 NA
ATOM     22  C   UNL     1     -10.403  -9.878  18.207  0.00  0.00    +0.041 A 
ATOM     23  C   UNL     1     -10.554 -10.297  19.524  0.00  0.00    +0.014 A 
ATOM     24  C   UNL     1     -11.537  -9.469  17.523  0.00  0.00    +0.122 A 
ATOM     25  C   UNL     1     -11.814 -10.293  20.110  0.00  0.00    +0.020 A 
ATOM     26  C   UNL     1     -12.885  -9.867  19.342  0.00  0.00    +0.111 A 
ENDBRANCH  21  22
ENDBRANCH  10  19
BRANCH   8   4
ATOM      2  O   UNL     1      -2.418 -10.349  13.096  0.00  0.00    -0.276 OA
ATOM      4  N   UNL     1      -4.385 -10.875  14.225  0.00  0.00    -0.311 N 
ATOM     17  C   UNL     1      -3.596 -10.696  13.102  0.00  0.00    +0.216 C 
ATOM     27  H   UNL     1      -5.346 -11.184  14.119  0.00  0.00    +0.149 HD
BRANCH  17  12
ATOM     12  C   UNL     1      -4.337 -11.002  11.832  0.00  0.00    +0.075 C 
ATOM     13  C   UNL     1      -3.463 -10.672  10.620  0.00  0.00    +0.013 C 
ATOM     14  C   UNL     1      -5.690 -10.288  11.800  0.00  0.00    +0.013 C 
ATOM     15  C   UNL     1      -3.373  -9.172  10.339  0.00  0.00    +0.001 C 
ATOM     16  C   UNL     1      -5.583  -8.795  11.489  0.00  0.00    +0.001 C 
ATOM     18  C   UNL     1      -4.753  -8.534  10.237  0.00  0.00    +0.000 C 
ENDBRANCH  17  12
ENDBRANCH   8   4
TORSDOF 4
ENDMDL
