MODEL 1
REMARK VINA RESULT:      -6.8      0.000      0.000
REMARK  Name = 44716951
REMARK  16 active torsions:
REMARK  status: ('A' for Active; 'I' for Inactive)
REMARK    1  A    between atoms: O_1  and  C_17
REMARK    2  A    between atoms: O_1  and  C_26
REMARK    3  A    between atoms: O_2  and  C_18
REMARK    4  A    between atoms: O_3  and  C_23
REMARK    5  A    between atoms: O_6  and  C_31
REMARK    6  A    between atoms: O_7  and  C_35
REMARK    7  A    between atoms: O_7  and  C_38
REMARK    8  A    between atoms: O_8  and  C_36
REMARK    9  A    between atoms: O_8  and  C_39
REMARK   10  A    between atoms: N_10  and  C_32
REMARK   11  A    between atoms: C_11  and  C_21
REMARK   12  A    between atoms: C_13  and  C_23
REMARK   13  A    between atoms: C_13  and  C_24
REMARK   14  A    between atoms: C_14  and  C_22
REMARK   15  A    between atoms: C_22  and  C_25
REMARK   16  A    between atoms: C_27  and  C_31
REMARK                            x       y       z     vdW  Elec       q    Type
REMARK                         _______ _______ _______ _____ _____    ______ ____
ROOT
ATOM     11  C   UNL     1      12.119   4.404  -1.444  0.00  0.00    -0.023 C 
ATOM     12  C   UNL     1      13.248   4.950  -0.487  0.00  0.00    +0.007 C 
ATOM     13  C   UNL     1      13.129   4.565   1.038  0.00  0.00    +0.031 C 
ATOM     14  C   UNL     1      12.271   5.172  -2.822  0.00  0.00    +0.032 C 
ATOM     15  C   UNL     1      10.739   4.746  -0.821  0.00  0.00    +0.011 C 
ATOM     16  C   UNL     1      14.648   4.724  -1.100  0.00  0.00    +0.007 C 
ATOM     17  C   UNL     1      11.682   4.879   1.525  0.00  0.00    +0.186 C 
ATOM     18  C   UNL     1      13.685   5.053  -3.440  0.00  0.00    +0.119 C 
ATOM     19  C   UNL     1      10.592   4.300   0.630  0.00  0.00    +0.046 C 
ATOM     20  C   UNL     1      14.782   5.431  -2.449  0.00  0.00    +0.032 C 
ATOM     21  C   UNL     1      12.179   2.873  -1.665  0.00  0.00    +0.012 C 
ATOM     24  C   UNL     1      14.100   5.457   1.865  0.00  0.00    +0.017 C 
ENDROOT
BRANCH  18   2
ATOM      2  O   UNL     1      13.915   3.738  -3.935  0.00  0.00    -0.391 OA
ATOM     40  H   UNL     1      13.513   3.111  -3.311  0.00  0.00    +0.210 HD
ENDBRANCH  18   2
BRANCH  17   1
ATOM      1  O   UNL     1      11.447   4.386   2.844  0.00  0.00    -0.446 OA
BRANCH   1  26
ATOM      5  O   UNL     1      11.141   6.521   3.605  0.00  0.00    -0.226 OA
ATOM     10  N   UNL     1      10.546   4.647   4.878  0.00  0.00    -0.251 N 
ATOM     26  C   UNL     1      11.047   5.311   3.775  0.00  0.00    +0.405 C 
ATOM     42  H   UNL     1      10.551   3.631   4.832  0.00  0.00    +0.158 HD
BRANCH  10  32
ATOM     32  C   UNL     1      10.025   5.206   6.067  0.00  0.00    +0.043 A 
ATOM     33  C   UNL     1      10.161   4.524   7.276  0.00  0.00    +0.069 A 
ATOM     34  C   UNL     1       9.374   6.440   6.031  0.00  0.00    +0.069 A 
ATOM     35  C   UNL     1       8.861   6.992   7.205  0.00  0.00    +0.125 A 
ATOM     36  C   UNL     1       9.646   5.076   8.449  0.00  0.00    +0.125 A 
ATOM     37  C   UNL     1       8.997   6.310   8.413  0.00  0.00    +0.091 A 
BRANCH  35   7
ATOM      7  O   UNL     1       8.226   8.195   7.170  0.00  0.00    -0.495 OA
ATOM     38  C   UNL     1       8.207   8.883   5.920  0.00  0.00    +0.277 C 
ENDBRANCH  35   7
BRANCH  36   8
ATOM      8  O   UNL     1       9.777   4.410   9.629  0.00  0.00    -0.495 OA
ATOM     39  C   UNL     1       8.724   4.560  10.580  0.00  0.00    +0.277 C 
ENDBRANCH  36   8
ENDBRANCH  10  32
ENDBRANCH   1  26
ENDBRANCH  17   1
BRANCH  14  22
ATOM     22  C   UNL     1      11.210   4.822  -3.879  0.00  0.00    +0.102 C 
BRANCH  22  25
ATOM      4  O   UNL     1      11.404   6.778  -5.222  0.00  0.00    -0.276 OA
ATOM      9  N   UNL     1       9.359   6.390  -4.212  0.00  0.00    -0.296 N 
ATOM     25  C   UNL     1      10.678   6.086  -4.505  0.00  0.00    +0.216 C 
ATOM     27  C   UNL     1       8.658   7.526  -4.813  0.00  0.00    +0.101 C 
ATOM     28  C   UNL     1       8.464   5.601  -3.369  0.00  0.00    +0.108 C 
ATOM     29  C   UNL     1       7.180   7.215  -4.563  0.00  0.00    +0.026 C 
ATOM     30  C   UNL     1       7.200   6.439  -3.251  0.00  0.00    +0.021 C 
BRANCH  27  31
ATOM     31  C   UNL     1       9.085   8.847  -4.175  0.00  0.00    +0.178 C 
BRANCH  31   6
ATOM      6  O   UNL     1      10.021   9.476  -5.030  0.00  0.00    -0.393 OA
ATOM     43  H   UNL     1      10.420  10.208  -4.530  0.00  0.00    +0.209 HD
ENDBRANCH  31   6
ENDBRANCH  27  31
ENDBRANCH  22  25
ENDBRANCH  14  22
BRANCH  13  23
ATOM     23  C   UNL     1      13.526   3.109   1.355  0.00  0.00    +0.166 C 
BRANCH  23   3
ATOM      3  O   UNL     1      14.737   3.137   2.076  0.00  0.00    -0.394 OA
ATOM     41  H   UNL     1      15.267   3.873   1.725  0.00  0.00    +0.209 HD
ENDBRANCH  23   3
ENDBRANCH  13  23
TORSDOF 12
ENDMDL
MODEL 2
REMARK VINA RESULT:      -6.7      0.332      1.991
REMARK  Name = 44716951
REMARK  16 active torsions:
REMARK  status: ('A' for Active; 'I' for Inactive)
REMARK    1  A    between atoms: O_1  and  C_17
REMARK    2  A    between atoms: O_1  and  C_26
REMARK    3  A    between atoms: O_2  and  C_18
REMARK    4  A    between atoms: O_3  and  C_23
REMARK    5  A    between atoms: O_6  and  C_31
REMARK    6  A    between atoms: O_7  and  C_35
REMARK    7  A    between atoms: O_7  and  C_38
REMARK    8  A    between atoms: O_8  and  C_36
REMARK    9  A    between atoms: O_8  and  C_39
REMARK   10  A    between atoms: N_10  and  C_32
REMARK   11  A    between atoms: C_11  and  C_21
REMARK   12  A    between atoms: C_13  and  C_23
REMARK   13  A    between atoms: C_13  and  C_24
REMARK   14  A    between atoms: C_14  and  C_22
REMARK   15  A    between atoms: C_22  and  C_25
REMARK   16  A    between atoms: C_27  and  C_31
REMARK                            x       y       z     vdW  Elec       q    Type
REMARK                         _______ _______ _______ _____ _____    ______ ____
ROOT
ATOM     11  C   UNL     1      12.021   4.328  -1.578  0.00  0.00    -0.023 C 
ATOM     12  C   UNL     1      13.227   4.874  -0.721  0.00  0.00    +0.007 C 
ATOM     13  C   UNL     1      13.206   4.544   0.821  0.00  0.00    +0.031 C 
ATOM     14  C   UNL     1      12.095   5.045  -2.990  0.00  0.00    +0.032 C 
ATOM     15  C   UNL     1      10.697   4.728  -0.873  0.00  0.00    +0.011 C 
ATOM     16  C   UNL     1      14.574   4.590  -1.421  0.00  0.00    +0.007 C 
ATOM     17  C   UNL     1      11.804   4.912   1.396  0.00  0.00    +0.186 C 
ATOM     18  C   UNL     1      13.458   4.868  -3.698  0.00  0.00    +0.119 C 
ATOM     19  C   UNL     1      10.640   4.334   0.599  0.00  0.00    +0.046 C 
ATOM     20  C   UNL     1      14.631   5.248  -2.800  0.00  0.00    +0.032 C 
ATOM     21  C   UNL     1      12.027   2.789  -1.749  0.00  0.00    +0.012 C 
ATOM     24  C   UNL     1      14.255   5.436   1.547  0.00  0.00    +0.017 C 
ENDROOT
BRANCH  18   2
ATOM      2  O   UNL     1      13.620   3.531  -4.162  0.00  0.00    -0.391 OA
ATOM     40  H   UNL     1      13.902   3.571  -5.092  0.00  0.00    +0.210 HD
ENDBRANCH  18   2
BRANCH  17   1
ATOM      1  O   UNL     1      11.651   4.470   2.745  0.00  0.00    -0.446 OA
BRANCH   1  26
ATOM      5  O   UNL     1      11.552   6.616   3.529  0.00  0.00    -0.226 OA
ATOM     10  N   UNL     1      10.607   4.819   4.696  0.00  0.00    -0.251 N 
ATOM     26  C   UNL     1      11.289   5.427   3.659  0.00  0.00    +0.405 C 
ATOM     42  H   UNL     1      10.486   3.812   4.624  0.00  0.00    +0.158 HD
BRANCH  10  32
ATOM     32  C   UNL     1      10.055   5.425   5.847  0.00  0.00    +0.043 A 
ATOM     33  C   UNL     1       9.227   6.540   5.719  0.00  0.00    +0.069 A 
ATOM     34  C   UNL     1      10.339   4.908   7.111  0.00  0.00    +0.069 A 
ATOM     35  C   UNL     1       9.793   5.506   8.248  0.00  0.00    +0.125 A 
ATOM     36  C   UNL     1       8.683   7.138   6.855  0.00  0.00    +0.125 A 
ATOM     37  C   UNL     1       8.966   6.621   8.119  0.00  0.00    +0.091 A 
BRANCH  35   7
ATOM      7  O   UNL     1      10.071   5.002   9.481  0.00  0.00    -0.495 OA
ATOM     38  C   UNL     1       8.960   4.617  10.290  0.00  0.00    +0.277 C 
ENDBRANCH  35   7
BRANCH  36   8
ATOM      8  O   UNL     1       7.875   8.226   6.731  0.00  0.00    -0.495 OA
ATOM     39  C   UNL     1       8.247   9.204   5.760  0.00  0.00    +0.277 C 
ENDBRANCH  36   8
ENDBRANCH  10  32
ENDBRANCH   1  26
ENDBRANCH  17   1
BRANCH  14  22
ATOM     22  C   UNL     1      10.954   4.690  -3.957  0.00  0.00    +0.102 C 
BRANCH  22  25
ATOM      4  O   UNL     1      11.156   6.552  -5.425  0.00  0.00    -0.276 OA
ATOM      9  N   UNL     1       9.162   6.328  -4.274  0.00  0.00    -0.296 N 
ATOM     25  C   UNL     1      10.444   5.941  -4.626  0.00  0.00    +0.216 C 
ATOM     27  C   UNL     1       8.479   7.461  -4.900  0.00  0.00    +0.101 C 
ATOM     28  C   UNL     1       8.285   5.635  -3.333  0.00  0.00    +0.108 C 
ATOM     29  C   UNL     1       7.007   7.241  -4.545  0.00  0.00    +0.026 C 
ATOM     30  C   UNL     1       7.071   6.542  -3.192  0.00  0.00    +0.021 C 
BRANCH  27  31
ATOM     31  C   UNL     1       9.007   8.794  -4.370  0.00  0.00    +0.178 C 
BRANCH  31   6
ATOM      6  O   UNL     1       9.915   9.324  -5.317  0.00  0.00    -0.393 OA
ATOM     43  H   UNL     1       9.406   9.903  -5.910  0.00  0.00    +0.209 HD
ENDBRANCH  31   6
ENDBRANCH  27  31
ENDBRANCH  22  25
ENDBRANCH  14  22
BRANCH  13  23
ATOM     23  C   UNL     1      13.588   3.089   1.160  0.00  0.00    +0.166 C 
BRANCH  23   3
ATOM      3  O   UNL     1      14.610   3.124   2.131  0.00  0.00    -0.394 OA
ATOM     41  H   UNL     1      14.425   3.875   2.720  0.00  0.00    +0.209 HD
ENDBRANCH  23   3
ENDBRANCH  13  23
TORSDOF 12
ENDMDL
MODEL 3
REMARK VINA RESULT:      -6.6     23.387     29.231
REMARK  Name = 44716951
REMARK  16 active torsions:
REMARK  status: ('A' for Active; 'I' for Inactive)
REMARK    1  A    between atoms: O_1  and  C_17
REMARK    2  A    between atoms: O_1  and  C_26
REMARK    3  A    between atoms: O_2  and  C_18
REMARK    4  A    between atoms: O_3  and  C_23
REMARK    5  A    between atoms: O_6  and  C_31
REMARK    6  A    between atoms: O_7  and  C_35
REMARK    7  A    between atoms: O_7  and  C_38
REMARK    8  A    between atoms: O_8  and  C_36
REMARK    9  A    between atoms: O_8  and  C_39
REMARK   10  A    between atoms: N_10  and  C_32
REMARK   11  A    between atoms: C_11  and  C_21
REMARK   12  A    between atoms: C_13  and  C_23
REMARK   13  A    between atoms: C_13  and  C_24
REMARK   14  A    between atoms: C_14  and  C_22
REMARK   15  A    between atoms: C_22  and  C_25
REMARK   16  A    between atoms: C_27  and  C_31
REMARK                            x       y       z     vdW  Elec       q    Type
REMARK                         _______ _______ _______ _____ _____    ______ ____
ROOT
ATOM     11  C   UNL     1      -7.373 -10.500  18.065  0.00  0.00    -0.023 C 
ATOM     12  C   UNL     1      -6.774 -11.959  18.105  0.00  0.00    +0.007 C 
ATOM     13  C   UNL     1      -5.213 -12.089  17.917  0.00  0.00    +0.031 C 
ATOM     14  C   UNL     1      -8.947 -10.650  17.950  0.00  0.00    +0.032 C 
ATOM     15  C   UNL     1      -6.836  -9.783  16.797  0.00  0.00    +0.011 C 
ATOM     16  C   UNL     1      -7.348 -12.759  19.296  0.00  0.00    +0.007 C 
ATOM     17  C   UNL     1      -4.786 -11.264  16.665  0.00  0.00    +0.186 C 
ATOM     18  C   UNL     1      -9.565 -11.518  19.071  0.00  0.00    +0.119 C 
ATOM     19  C   UNL     1      -5.318  -9.835  16.658  0.00  0.00    +0.046 C 
ATOM     20  C   UNL     1      -8.870 -12.869  19.207  0.00  0.00    +0.032 C 
ATOM     21  C   UNL     1      -6.997  -9.641  19.297  0.00  0.00    +0.012 C 
ATOM     24  C   UNL     1      -4.856 -13.577  17.637  0.00  0.00    +0.017 C 
ENDROOT
BRANCH  18   2
ATOM      2  O   UNL     1      -9.536 -10.833  20.319  0.00  0.00    -0.391 OA
ATOM     40  H   UNL     1      -9.812  -9.915  20.162  0.00  0.00    +0.210 HD
ENDBRANCH  18   2
BRANCH  17   1
ATOM      1  O   UNL     1      -3.366 -11.185  16.541  0.00  0.00    -0.446 OA
BRANCH   1  26
ATOM      5  O   UNL     1      -1.694 -11.817  15.115  0.00  0.00    -0.226 OA
ATOM     10  N   UNL     1      -3.837 -11.261  14.352  0.00  0.00    -0.251 N 
ATOM     26  C   UNL     1      -2.850 -11.458  15.299  0.00  0.00    +0.405 C 
ATOM     42  H   UNL     1      -4.743 -10.960  14.703  0.00  0.00    +0.158 HD
BRANCH  10  32
ATOM     32  C   UNL     1      -3.743 -11.426  12.952  0.00  0.00    +0.043 A 
ATOM     33  C   UNL     1      -3.857 -12.698  12.390  0.00  0.00    +0.069 A 
ATOM     34  C   UNL     1      -3.537 -10.317  12.131  0.00  0.00    +0.069 A 
ATOM     35  C   UNL     1      -3.445 -10.480  10.749  0.00  0.00    +0.125 A 
ATOM     36  C   UNL     1      -3.764 -12.860  11.008  0.00  0.00    +0.125 A 
ATOM     37  C   UNL     1      -3.559 -11.751  10.188  0.00  0.00    +0.091 A 
BRANCH  35   7
ATOM      7  O   UNL     1      -3.243  -9.398   9.948  0.00  0.00    -0.495 OA
ATOM     38  C   UNL     1      -4.403  -8.766   9.405  0.00  0.00    +0.277 C 
ENDBRANCH  35   7
BRANCH  36   8
ATOM      8  O   UNL     1      -3.874 -14.101  10.460  0.00  0.00    -0.495 OA
ATOM     39  C   UNL     1      -3.393 -15.199  11.235  0.00  0.00    +0.277 C 
ENDBRANCH  36   8
ENDBRANCH  10  32
ENDBRANCH   1  26
ENDBRANCH  17   1
BRANCH  14  22
ATOM     22  C   UNL     1      -9.716  -9.324  17.832  0.00  0.00    +0.102 C 
BRANCH  22  25
ATOM      4  O   UNL     1     -11.055 -10.506  16.259  0.00  0.00    -0.276 OA
ATOM      9  N   UNL     1     -11.176  -8.196  16.223  0.00  0.00    -0.296 N 
ATOM     25  C   UNL     1     -10.710  -9.409  16.702  0.00  0.00    +0.216 C 
ATOM     27  C   UNL     1     -12.215  -8.100  15.196  0.00  0.00    +0.101 C 
ATOM     28  C   UNL     1     -10.794  -6.875  16.716  0.00  0.00    +0.108 C 
ATOM     29  C   UNL     1     -12.705  -6.654  15.308  0.00  0.00    +0.026 C 
ATOM     30  C   UNL     1     -11.464  -5.895  15.764  0.00  0.00    +0.021 C 
BRANCH  27  31
ATOM     31  C   UNL     1     -11.658  -8.413  13.808  0.00  0.00    +0.178 C 
BRANCH  31   6
ATOM      6  O   UNL     1     -12.005  -9.745  13.476  0.00  0.00    -0.393 OA
ATOM     43  H   UNL     1     -12.963  -9.759  13.314  0.00  0.00    +0.209 HD
ENDBRANCH  31   6
ENDBRANCH  27  31
ENDBRANCH  22  25
ENDBRANCH  14  22
BRANCH  13  23
ATOM     23  C   UNL     1      -4.393 -11.689  19.160  0.00  0.00    +0.166 C 
BRANCH  23   3
ATOM      3  O   UNL     1      -3.140 -12.330  19.078  0.00  0.00    -0.394 OA
ATOM     41  H   UNL     1      -2.749 -12.317  19.968  0.00  0.00    +0.209 HD
ENDBRANCH  23   3
ENDBRANCH  13  23
TORSDOF 12
ENDMDL
MODEL 4
REMARK VINA RESULT:      -6.5     23.682     27.207
REMARK  Name = 44716951
REMARK  16 active torsions:
REMARK  status: ('A' for Active; 'I' for Inactive)
REMARK    1  A    between atoms: O_1  and  C_17
REMARK    2  A    between atoms: O_1  and  C_26
REMARK    3  A    between atoms: O_2  and  C_18
REMARK    4  A    between atoms: O_3  and  C_23
REMARK    5  A    between atoms: O_6  and  C_31
REMARK    6  A    between atoms: O_7  and  C_35
REMARK    7  A    between atoms: O_7  and  C_38
REMARK    8  A    between atoms: O_8  and  C_36
REMARK    9  A    between atoms: O_8  and  C_39
REMARK   10  A    between atoms: N_10  and  C_32
REMARK   11  A    between atoms: C_11  and  C_21
REMARK   12  A    between atoms: C_13  and  C_23
REMARK   13  A    between atoms: C_13  and  C_24
REMARK   14  A    between atoms: C_14  and  C_22
REMARK   15  A    between atoms: C_22  and  C_25
REMARK   16  A    between atoms: C_27  and  C_31
REMARK                            x       y       z     vdW  Elec       q    Type
REMARK                         _______ _______ _______ _____ _____    ______ ____
ROOT
ATOM     11  C   UNL     1      -4.418 -11.389  13.337  0.00  0.00    -0.023 C 
ATOM     12  C   UNL     1      -4.130 -10.681  14.718  0.00  0.00    +0.007 C 
ATOM     13  C   UNL     1      -5.218 -10.862  15.845  0.00  0.00    +0.031 C 
ATOM     14  C   UNL     1      -3.376 -10.807  12.294  0.00  0.00    +0.032 C 
ATOM     15  C   UNL     1      -5.855 -11.014  12.883  0.00  0.00    +0.011 C 
ATOM     16  C   UNL     1      -2.678 -10.939  15.177  0.00  0.00    +0.007 C 
ATOM     17  C   UNL     1      -6.621 -10.537  15.249  0.00  0.00    +0.186 C 
ATOM     18  C   UNL     1      -1.904 -10.958  12.746  0.00  0.00    +0.119 C 
ATOM     19  C   UNL     1      -6.920 -11.267  13.944  0.00  0.00    +0.046 C 
ATOM     20  C   UNL     1      -1.672 -10.414  14.152  0.00  0.00    +0.032 C 
ATOM     21  C   UNL     1      -4.322 -12.932  13.399  0.00  0.00    +0.012 C 
ATOM     24  C   UNL     1      -4.948  -9.835  16.983  0.00  0.00    +0.017 C 
ENDROOT
BRANCH  18   2
ATOM      2  O   UNL     1      -1.489 -12.319  12.682  0.00  0.00    -0.391 OA
ATOM     40  H   UNL     1      -1.332 -12.625  13.591  0.00  0.00    +0.210 HD
ENDBRANCH  18   2
BRANCH  17   1
ATOM      1  O   UNL     1      -7.672 -10.857  16.160  0.00  0.00    -0.446 OA
BRANCH   1  26
ATOM      5  O   UNL     1      -8.161  -9.020  17.433  0.00  0.00    -0.226 OA
ATOM     10  N   UNL     1      -9.633  -9.833  15.802  0.00  0.00    -0.251 N 
ATOM     26  C   UNL     1      -8.473  -9.813  16.553  0.00  0.00    +0.405 C 
ATOM     42  H   UNL     1      -9.709 -10.577  15.113  0.00  0.00    +0.158 HD
BRANCH  10  32
ATOM     32  C   UNL     1     -10.729  -8.945  15.874  0.00  0.00    +0.043 A 
ATOM     33  C   UNL     1     -10.630  -7.668  15.321  0.00  0.00    +0.069 A 
ATOM     34  C   UNL     1     -11.912  -9.345  16.497  0.00  0.00    +0.069 A 
ATOM     35  C   UNL     1     -12.994  -8.468  16.566  0.00  0.00    +0.125 A 
ATOM     36  C   UNL     1     -11.712  -6.791  15.392  0.00  0.00    +0.125 A 
ATOM     37  C   UNL     1     -12.894  -7.192  16.014  0.00  0.00    +0.091 A 
BRANCH  35   7
ATOM      7  O   UNL     1     -14.148  -8.858  17.175  0.00  0.00    -0.495 OA
ATOM     38  C   UNL     1     -14.023  -9.603  18.386  0.00  0.00    +0.277 C 
ENDBRANCH  35   7
BRANCH  36   8
ATOM      8  O   UNL     1     -11.615  -5.545  14.854  0.00  0.00    -0.495 OA
ATOM     39  C   UNL     1     -12.283  -5.319  13.614  0.00  0.00    +0.277 C 
ENDBRANCH  36   8
ENDBRANCH  10  32
ENDBRANCH   1  26
ENDBRANCH  17   1
BRANCH  14  22
ATOM     22  C   UNL     1      -3.536 -11.331  10.858  0.00  0.00    +0.102 C 
BRANCH  22  25
ATOM      4  O   UNL     1      -3.998  -9.060  10.312  0.00  0.00    -0.276 OA
ATOM      9  N   UNL     1      -4.707 -10.672   8.811  0.00  0.00    -0.296 N 
ATOM     25  C   UNL     1      -4.095 -10.242   9.977  0.00  0.00    +0.216 C 
ATOM     27  C   UNL     1      -5.216  -9.744   7.799  0.00  0.00    +0.101 C 
ATOM     28  C   UNL     1      -4.845 -12.059   8.375  0.00  0.00    +0.108 C 
ATOM     29  C   UNL     1      -5.380 -10.618   6.553  0.00  0.00    +0.026 C 
ATOM     30  C   UNL     1      -5.712 -11.991   7.126  0.00  0.00    +0.021 C 
BRANCH  27  31
ATOM     31  C   UNL     1      -6.536  -9.111   8.236  0.00  0.00    +0.178 C 
BRANCH  31   6
ATOM      6  O   UNL     1      -6.270  -7.808   8.719  0.00  0.00    -0.393 OA
ATOM     43  H   UNL     1      -5.488  -7.869   9.294  0.00  0.00    +0.209 HD
ENDBRANCH  31   6
ENDBRANCH  27  31
ENDBRANCH  22  25
ENDBRANCH  14  22
BRANCH  13  23
ATOM     23  C   UNL     1      -5.202 -12.248  16.521  0.00  0.00    +0.166 C 
BRANCH  23   3
ATOM      3  O   UNL     1      -5.649 -12.089  17.848  0.00  0.00    -0.394 OA
ATOM     41  H   UNL     1      -4.862 -12.059  18.418  0.00  0.00    +0.209 HD
ENDBRANCH  23   3
ENDBRANCH  13  23
TORSDOF 12
ENDMDL
MODEL 5
REMARK VINA RESULT:      -6.5     23.695     28.139
REMARK  Name = 44716951
REMARK  16 active torsions:
REMARK  status: ('A' for Active; 'I' for Inactive)
REMARK    1  A    between atoms: O_1  and  C_17
REMARK    2  A    between atoms: O_1  and  C_26
REMARK    3  A    between atoms: O_2  and  C_18
REMARK    4  A    between atoms: O_3  and  C_23
REMARK    5  A    between atoms: O_6  and  C_31
REMARK    6  A    between atoms: O_7  and  C_35
REMARK    7  A    between atoms: O_7  and  C_38
REMARK    8  A    between atoms: O_8  and  C_36
REMARK    9  A    between atoms: O_8  and  C_39
REMARK   10  A    between atoms: N_10  and  C_32
REMARK   11  A    between atoms: C_11  and  C_21
REMARK   12  A    between atoms: C_13  and  C_23
REMARK   13  A    between atoms: C_13  and  C_24
REMARK   14  A    between atoms: C_14  and  C_22
REMARK   15  A    between atoms: C_22  and  C_25
REMARK   16  A    between atoms: C_27  and  C_31
REMARK                            x       y       z     vdW  Elec       q    Type
REMARK                         _______ _______ _______ _____ _____    ______ ____
ROOT
ATOM     11  C   UNL     1      -4.254 -11.643  15.804  0.00  0.00    -0.023 C 
ATOM     12  C   UNL     1      -4.351 -12.961  14.941  0.00  0.00    +0.007 C 
ATOM     13  C   UNL     1      -3.534 -12.985  13.592  0.00  0.00    +0.031 C 
ATOM     14  C   UNL     1      -5.385 -11.732  16.910  0.00  0.00    +0.032 C 
ATOM     15  C   UNL     1      -4.540 -10.429  14.879  0.00  0.00    +0.011 C 
ATOM     16  C   UNL     1      -4.170 -14.214  15.826  0.00  0.00    +0.007 C 
ATOM     17  C   UNL     1      -3.842 -11.682  12.793  0.00  0.00    +0.186 C 
ATOM     18  C   UNL     1      -5.304 -13.015  17.771  0.00  0.00    +0.119 C 
ATOM     19  C   UNL     1      -3.690 -10.406  13.614  0.00  0.00    +0.046 C 
ATOM     20  C   UNL     1      -5.236 -14.279  16.919  0.00  0.00    +0.032 C 
ATOM     21  C   UNL     1      -2.867 -11.432  16.458  0.00  0.00    +0.012 C 
ATOM     24  C   UNL     1      -4.016 -14.186  12.727  0.00  0.00    +0.017 C 
ENDROOT
BRANCH  18   2
ATOM      2  O   UNL     1      -4.187 -12.967  18.652  0.00  0.00    -0.391 OA
ATOM     40  H   UNL     1      -4.523 -13.025  19.562  0.00  0.00    +0.210 HD
ENDBRANCH  18   2
BRANCH  17   1
ATOM      1  O   UNL     1      -2.998 -11.549  11.649  0.00  0.00    -0.446 OA
BRANCH   1  26
ATOM      5  O   UNL     1      -2.778  -9.633  10.420  0.00  0.00    -0.226 OA
ATOM     10  N   UNL     1      -4.593 -11.086  10.146  0.00  0.00    -0.251 N 
ATOM     26  C   UNL     1      -3.405 -10.648  10.698  0.00  0.00    +0.405 C 
ATOM     42  H   UNL     1      -4.962 -11.961  10.510  0.00  0.00    +0.158 HD
BRANCH  10  32
ATOM     32  C   UNL     1      -5.362 -10.469   9.134  0.00  0.00    +0.043 A 
ATOM     33  C   UNL     1      -6.302  -9.494   9.469  0.00  0.00    +0.069 A 
ATOM     34  C   UNL     1      -5.182 -10.834   7.800  0.00  0.00    +0.069 A 
ATOM     35  C   UNL     1      -5.941 -10.223   6.801  0.00  0.00    +0.125 A 
ATOM     36  C   UNL     1      -7.062  -8.885   8.471  0.00  0.00    +0.125 A 
ATOM     37  C   UNL     1      -6.880  -9.249   7.137  0.00  0.00    +0.091 A 
BRANCH  35   7
ATOM      7  O   UNL     1      -5.765 -10.579   5.499  0.00  0.00    -0.495 OA
ATOM     38  C   UNL     1      -4.788 -11.584   5.227  0.00  0.00    +0.277 C 
ENDBRANCH  35   7
BRANCH  36   8
ATOM      8  O   UNL     1      -7.980  -7.935   8.798  0.00  0.00    -0.495 OA
ATOM     39  C   UNL     1      -7.928  -6.706   8.075  0.00  0.00    +0.277 C 
ENDBRANCH  36   8
ENDBRANCH  10  32
ENDBRANCH   1  26
ENDBRANCH  17   1
BRANCH  14  22
ATOM     22  C   UNL     1      -5.495 -10.499  17.822  0.00  0.00    +0.102 C 
BRANCH  22  25
ATOM      4  O   UNL     1      -6.908 -10.897  19.696  0.00  0.00    -0.276 OA
ATOM      9  N   UNL     1      -7.903 -10.057  17.784  0.00  0.00    -0.296 N 
ATOM     25  C   UNL     1      -6.826 -10.506  18.530  0.00  0.00    +0.216 C 
ATOM     27  C   UNL     1      -9.246  -9.908  18.347  0.00  0.00    +0.101 C 
ATOM     28  C   UNL     1      -7.853  -9.585  16.402  0.00  0.00    +0.108 C 
ATOM     29  C   UNL     1      -9.964  -9.003  17.343  0.00  0.00    +0.026 C 
ATOM     30  C   UNL     1      -9.306  -9.359  16.014  0.00  0.00    +0.021 C 
BRANCH  27  31
ATOM     31  C   UNL     1      -9.940 -11.261  18.501  0.00  0.00    +0.178 C 
BRANCH  31   6
ATOM      6  O   UNL     1      -9.863 -11.651  19.859  0.00  0.00    -0.393 OA
ATOM     43  H   UNL     1     -10.766 -11.617  20.219  0.00  0.00    +0.209 HD
ENDBRANCH  31   6
ENDBRANCH  27  31
ENDBRANCH  22  25
ENDBRANCH  14  22
BRANCH  13  23
ATOM     23  C   UNL     1      -2.016 -13.186  13.777  0.00  0.00    +0.166 C 
BRANCH  23   3
ATOM      3  O   UNL     1      -1.544 -13.950  12.691  0.00  0.00    -0.394 OA
ATOM     41  H   UNL     1      -1.436 -14.864  13.004  0.00  0.00    +0.209 HD
ENDBRANCH  23   3
ENDBRANCH  13  23
TORSDOF 12
ENDMDL
MODEL 6
REMARK VINA RESULT:      -6.3     23.860     27.728
REMARK  Name = 44716951
REMARK  16 active torsions:
REMARK  status: ('A' for Active; 'I' for Inactive)
REMARK    1  A    between atoms: O_1  and  C_17
REMARK    2  A    between atoms: O_1  and  C_26
REMARK    3  A    between atoms: O_2  and  C_18
REMARK    4  A    between atoms: O_3  and  C_23
REMARK    5  A    between atoms: O_6  and  C_31
REMARK    6  A    between atoms: O_7  and  C_35
REMARK    7  A    between atoms: O_7  and  C_38
REMARK    8  A    between atoms: O_8  and  C_36
REMARK    9  A    between atoms: O_8  and  C_39
REMARK   10  A    between atoms: N_10  and  C_32
REMARK   11  A    between atoms: C_11  and  C_21
REMARK   12  A    between atoms: C_13  and  C_23
REMARK   13  A    between atoms: C_13  and  C_24
REMARK   14  A    between atoms: C_14  and  C_22
REMARK   15  A    between atoms: C_22  and  C_25
REMARK   16  A    between atoms: C_27  and  C_31
REMARK                            x       y       z     vdW  Elec       q    Type
REMARK                         _______ _______ _______ _____ _____    ______ ____
ROOT
ATOM     11  C   UNL     1      -4.203 -11.889  14.524  0.00  0.00    -0.023 C 
ATOM     12  C   UNL     1      -4.157 -11.076  15.876  0.00  0.00    +0.007 C 
ATOM     13  C   UNL     1      -5.273 -11.409  16.939  0.00  0.00    +0.031 C 
ATOM     14  C   UNL     1      -3.214 -11.167  13.517  0.00  0.00    +0.032 C 
ATOM     15  C   UNL     1      -5.647 -11.817  13.957  0.00  0.00    +0.011 C 
ATOM     16  C   UNL     1      -2.720 -11.029  16.442  0.00  0.00    +0.007 C 
ATOM     17  C   UNL     1      -6.663 -11.385  16.236  0.00  0.00    +0.186 C 
ATOM     18  C   UNL     1      -1.778 -11.014  14.071  0.00  0.00    +0.119 C 
ATOM     19  C   UNL     1      -6.722 -12.219  14.961  0.00  0.00    +0.046 C 
ATOM     20  C   UNL     1      -1.757 -10.370  15.454  0.00  0.00    +0.032 C 
ATOM     21  C   UNL     1      -3.825 -13.381  14.684  0.00  0.00    +0.012 C 
ATOM     24  C   UNL     1      -5.285 -10.297  18.029  0.00  0.00    +0.017 C 
ENDROOT
BRANCH  18   2
ATOM      2  O   UNL     1      -1.112 -12.271  14.115  0.00  0.00    -0.391 OA
ATOM     40  H   UNL     1      -1.589 -12.839  14.743  0.00  0.00    +0.210 HD
ENDBRANCH  18   2
BRANCH  17   1
ATOM      1  O   UNL     1      -7.701 -11.858  17.095  0.00  0.00    -0.446 OA
BRANCH   1  26
ATOM      5  O   UNL     1      -8.739 -10.583  18.685  0.00  0.00    -0.226 OA
ATOM     10  N   UNL     1      -9.320 -10.464  16.420  0.00  0.00    -0.251 N 
ATOM     26  C   UNL     1      -8.613 -10.922  17.515  0.00  0.00    +0.405 C 
ATOM     42  H   UNL     1      -9.068 -10.869  15.521  0.00  0.00    +0.158 HD
BRANCH  10  32
ATOM     32  C   UNL     1     -10.352  -9.500  16.392  0.00  0.00    +0.043 A 
ATOM     33  C   UNL     1     -11.604  -9.803  16.927  0.00  0.00    +0.069 A 
ATOM     34  C   UNL     1     -10.119  -8.244  15.830  0.00  0.00    +0.069 A 
ATOM     35  C   UNL     1     -11.137  -7.292  15.804  0.00  0.00    +0.125 A 
ATOM     36  C   UNL     1     -12.623  -8.850  16.899  0.00  0.00    +0.125 A 
ATOM     37  C   UNL     1     -12.389  -7.595  16.338  0.00  0.00    +0.091 A 
BRANCH  35   7
ATOM      7  O   UNL     1     -10.910  -6.067  15.255  0.00  0.00    -0.495 OA
ATOM     38  C   UNL     1     -11.957  -5.506  14.463  0.00  0.00    +0.277 C 
ENDBRANCH  35   7
BRANCH  36   8
ATOM      8  O   UNL     1     -13.845  -9.146  17.420  0.00  0.00    -0.495 OA
ATOM     39  C   UNL     1     -14.941  -8.330  17.008  0.00  0.00    +0.277 C 
ENDBRANCH  36   8
ENDBRANCH  10  32
ENDBRANCH   1  26
ENDBRANCH  17   1
BRANCH  14  22
ATOM     22  C   UNL     1      -3.166 -11.778  12.107  0.00  0.00    +0.102 C 
BRANCH  22  25
ATOM      4  O   UNL     1      -3.144  -9.550  11.272  0.00  0.00    -0.276 OA
ATOM      9  N   UNL     1      -4.160 -11.160   9.957  0.00  0.00    -0.296 N 
ATOM     25  C   UNL     1      -3.481 -10.720  11.081  0.00  0.00    +0.216 C 
ATOM     27  C   UNL     1      -4.458 -10.284   8.822  0.00  0.00    +0.101 C 
ATOM     28  C   UNL     1      -4.579 -12.534   9.691  0.00  0.00    +0.108 C 
ATOM     29  C   UNL     1      -4.790 -11.257   7.689  0.00  0.00    +0.026 C 
ATOM     30  C   UNL     1      -5.404 -12.449   8.415  0.00  0.00    +0.021 C 
BRANCH  27  31
ATOM     31  C   UNL     1      -5.622  -9.344   9.134  0.00  0.00    +0.178 C 
BRANCH  31   6
ATOM      6  O   UNL     1      -5.103  -8.045   9.351  0.00  0.00    -0.393 OA
ATOM     43  H   UNL     1      -5.828  -7.503   9.707  0.00  0.00    +0.209 HD
ENDBRANCH  31   6
ENDBRANCH  27  31
ENDBRANCH  22  25
ENDBRANCH  14  22
BRANCH  13  23
ATOM     23  C   UNL     1      -5.047 -12.733  17.696  0.00  0.00    +0.166 C 
BRANCH  23   3
ATOM      3  O   UNL     1      -5.716 -12.645  18.935  0.00  0.00    -0.394 OA
ATOM     41  H   UNL     1      -5.094 -12.254  19.572  0.00  0.00    +0.209 HD
ENDBRANCH  23   3
ENDBRANCH  13  23
TORSDOF 12
ENDMDL
MODEL 7
REMARK VINA RESULT:      -6.2      3.628      6.503
REMARK  Name = 44716951
REMARK  16 active torsions:
REMARK  status: ('A' for Active; 'I' for Inactive)
REMARK    1  A    between atoms: O_1  and  C_17
REMARK    2  A    between atoms: O_1  and  C_26
REMARK    3  A    between atoms: O_2  and  C_18
REMARK    4  A    between atoms: O_3  and  C_23
REMARK    5  A    between atoms: O_6  and  C_31
REMARK    6  A    between atoms: O_7  and  C_35
REMARK    7  A    between atoms: O_7  and  C_38
REMARK    8  A    between atoms: O_8  and  C_36
REMARK    9  A    between atoms: O_8  and  C_39
REMARK   10  A    between atoms: N_10  and  C_32
REMARK   11  A    between atoms: C_11  and  C_21
REMARK   12  A    between atoms: C_13  and  C_23
REMARK   13  A    between atoms: C_13  and  C_24
REMARK   14  A    between atoms: C_14  and  C_22
REMARK   15  A    between atoms: C_22  and  C_25
REMARK   16  A    between atoms: C_27  and  C_31
REMARK                            x       y       z     vdW  Elec       q    Type
REMARK                         _______ _______ _______ _____ _____    ______ ____
ROOT
ATOM     11  C   UNL     1      13.962   6.180   0.413  0.00  0.00    -0.023 C 
ATOM     12  C   UNL     1      13.433   4.851   1.079  0.00  0.00    +0.007 C 
ATOM     13  C   UNL     1      11.880   4.760   1.340  0.00  0.00    +0.031 C 
ATOM     14  C   UNL     1      15.541   6.169   0.550  0.00  0.00    +0.032 C 
ATOM     15  C   UNL     1      13.391   7.387   1.206  0.00  0.00    +0.011 C 
ATOM     16  C   UNL     1      14.044   3.610   0.392  0.00  0.00    +0.007 C 
ATOM     17  C   UNL     1      11.414   6.059   2.066  0.00  0.00    +0.186 C 
ATOM     18  C   UNL     1      16.200   4.902  -0.043  0.00  0.00    +0.119 C 
ATOM     19  C   UNL     1      11.877   7.343   1.387  0.00  0.00    +0.046 C 
ATOM     20  C   UNL     1      15.570   3.618   0.488  0.00  0.00    +0.032 C 
ATOM     21  C   UNL     1      13.545   6.340  -1.069  0.00  0.00    +0.012 C 
ATOM     24  C   UNL     1      11.594   3.566   2.296  0.00  0.00    +0.017 C 
ENDROOT
BRANCH  18   2
ATOM      2  O   UNL     1      16.139   4.915  -1.466  0.00  0.00    -0.391 OA
ATOM     40  H   UNL     1      16.708   4.200  -1.795  0.00  0.00    +0.210 HD
ENDBRANCH  18   2
BRANCH  17   1
ATOM      1  O   UNL     1       9.992   6.128   2.169  0.00  0.00    -0.446 OA
BRANCH   1  26
ATOM      5  O   UNL     1       8.613   7.457   3.419  0.00  0.00    -0.226 OA
ATOM     10  N   UNL     1      10.144   5.981   4.400  0.00  0.00    -0.251 N 
ATOM     26  C   UNL     1       9.493   6.608   3.354  0.00  0.00    +0.405 C 
ATOM     42  H   UNL     1      10.852   5.298   4.143  0.00  0.00    +0.158 HD
BRANCH  10  32
ATOM     32  C   UNL     1       9.946   6.171   5.786  0.00  0.00    +0.043 A 
ATOM     33  C   UNL     1       9.899   7.462   6.314  0.00  0.00    +0.069 A 
ATOM     34  C   UNL     1       9.797   5.068   6.627  0.00  0.00    +0.069 A 
ATOM     35  C   UNL     1       9.601   5.256   7.995  0.00  0.00    +0.125 A 
ATOM     36  C   UNL     1       9.705   7.648   7.682  0.00  0.00    +0.125 A 
ATOM     37  C   UNL     1       9.555   6.546   8.522  0.00  0.00    +0.091 A 
BRANCH  35   7
ATOM      7  O   UNL     1       9.457   4.179   8.816  0.00  0.00    -0.495 OA
ATOM     38  C   UNL     1       9.045   4.436  10.158  0.00  0.00    +0.277 C 
ENDBRANCH  35   7
BRANCH  36   8
ATOM      8  O   UNL     1       9.660   8.907   8.197  0.00  0.00    -0.495 OA
ATOM     39  C   UNL     1       9.426   9.977   7.282  0.00  0.00    +0.277 C 
ENDBRANCH  36   8
ENDBRANCH  10  32
ENDBRANCH   1  26
ENDBRANCH  17   1
BRANCH  14  22
ATOM     22  C   UNL     1      16.246   7.425   0.012  0.00  0.00    +0.102 C 
BRANCH  22  25
ATOM      4  O   UNL     1      17.056   8.229   2.101  0.00  0.00    -0.276 OA
ATOM      9  N   UNL     1      18.627   7.769   0.467  0.00  0.00    -0.296 N 
ATOM     25  C   UNL     1      17.337   7.845   0.964  0.00  0.00    +0.216 C 
ATOM     27  C   UNL     1      19.807   8.046   1.287  0.00  0.00    +0.101 C 
ATOM     28  C   UNL     1      19.006   7.321  -0.872  0.00  0.00    +0.108 C 
ATOM     29  C   UNL     1      20.958   7.426   0.492  0.00  0.00    +0.026 C 
ATOM     30  C   UNL     1      20.504   7.570  -0.957  0.00  0.00    +0.021 C 
BRANCH  27  31
ATOM     31  C   UNL     1      19.998   9.547   1.501  0.00  0.00    +0.178 C 
BRANCH  31   6
ATOM      6  O   UNL     1      19.529   9.878   2.795  0.00  0.00    -0.393 OA
ATOM     43  H   UNL     1      19.495  10.848   2.848  0.00  0.00    +0.209 HD
ENDBRANCH  31   6
ENDBRANCH  27  31
ENDBRANCH  22  25
ENDBRANCH  14  22
BRANCH  13  23
ATOM     23  C   UNL     1      11.042   4.492   0.074  0.00  0.00    +0.166 C 
BRANCH  23   3
ATOM      3  O   UNL     1       9.800   3.961   0.480  0.00  0.00    -0.394 OA
ATOM     41  H   UNL     1       9.165   4.696   0.505  0.00  0.00    +0.209 HD
ENDBRANCH  23   3
ENDBRANCH  13  23
TORSDOF 12
ENDMDL
MODEL 8
REMARK VINA RESULT:      -6.1      3.483      6.435
REMARK  Name = 44716951
REMARK  16 active torsions:
REMARK  status: ('A' for Active; 'I' for Inactive)
REMARK    1  A    between atoms: O_1  and  C_17
REMARK    2  A    between atoms: O_1  and  C_26
REMARK    3  A    between atoms: O_2  and  C_18
REMARK    4  A    between atoms: O_3  and  C_23
REMARK    5  A    between atoms: O_6  and  C_31
REMARK    6  A    between atoms: O_7  and  C_35
REMARK    7  A    between atoms: O_7  and  C_38
REMARK    8  A    between atoms: O_8  and  C_36
REMARK    9  A    between atoms: O_8  and  C_39
REMARK   10  A    between atoms: N_10  and  C_32
REMARK   11  A    between atoms: C_11  and  C_21
REMARK   12  A    between atoms: C_13  and  C_23
REMARK   13  A    between atoms: C_13  and  C_24
REMARK   14  A    between atoms: C_14  and  C_22
REMARK   15  A    between atoms: C_22  and  C_25
REMARK   16  A    between atoms: C_27  and  C_31
REMARK                            x       y       z     vdW  Elec       q    Type
REMARK                         _______ _______ _______ _____ _____    ______ ____
ROOT
ATOM     11  C   UNL     1      14.324   6.546   0.646  0.00  0.00    -0.023 C 
ATOM     12  C   UNL     1      13.954   5.019   0.791  0.00  0.00    +0.007 C 
ATOM     13  C   UNL     1      12.430   4.678   1.013  0.00  0.00    +0.031 C 
ATOM     14  C   UNL     1      15.901   6.652   0.760  0.00  0.00    +0.032 C 
ATOM     15  C   UNL     1      13.676   7.322   1.824  0.00  0.00    +0.011 C 
ATOM     16  C   UNL     1      14.650   4.177  -0.301  0.00  0.00    +0.007 C 
ATOM     17  C   UNL     1      11.875   5.575   2.161  0.00  0.00    +0.186 C 
ATOM     18  C   UNL     1      16.652   5.758  -0.255  0.00  0.00    +0.119 C 
ATOM     19  C   UNL     1      12.183   7.058   1.988  0.00  0.00    +0.046 C 
ATOM     20  C   UNL     1      16.171   4.311  -0.218  0.00  0.00    +0.032 C 
ATOM     21  C   UNL     1      13.829   7.181  -0.676  0.00  0.00    +0.012 C 
ATOM     24  C   UNL     1      12.302   3.198   1.476  0.00  0.00    +0.017 C 
ENDROOT
BRANCH  18   2
ATOM      2  O   UNL     1      16.527   6.273  -1.577  0.00  0.00    -0.391 OA
ATOM     40  H   UNL     1      15.648   6.026  -1.911  0.00  0.00    +0.210 HD
ENDBRANCH  18   2
BRANCH  17   1
ATOM      1  O   UNL     1      10.459   5.453   2.292  0.00  0.00    -0.446 OA
BRANCH   1  26
ATOM      5  O   UNL     1       9.155   7.050   3.282  0.00  0.00    -0.226 OA
ATOM     10  N   UNL     1      10.300   5.431   4.526  0.00  0.00    -0.251 N 
ATOM     26  C   UNL     1       9.894   6.078   3.375  0.00  0.00    +0.405 C 
ATOM     42  H   UNL     1      10.921   4.635   4.399  0.00  0.00    +0.158 HD
BRANCH  10  32
ATOM     32  C   UNL     1       9.960   5.737   5.863  0.00  0.00    +0.043 A 
ATOM     33  C   UNL     1      10.033   4.750   6.846  0.00  0.00    +0.069 A 
ATOM     34  C   UNL     1       9.549   7.027   6.200  0.00  0.00    +0.069 A 
ATOM     35  C   UNL     1       9.214   7.330   7.519  0.00  0.00    +0.125 A 
ATOM     36  C   UNL     1       9.696   5.053   8.164  0.00  0.00    +0.125 A 
ATOM     37  C   UNL     1       9.287   6.343   8.501  0.00  0.00    +0.091 A 
BRANCH  35   7
ATOM      7  O   UNL     1       8.813   8.589   7.848  0.00  0.00    -0.495 OA
ATOM     38  C   UNL     1       9.836   9.553   8.094  0.00  0.00    +0.277 C 
ENDBRANCH  35   7
BRANCH  36   8
ATOM      8  O   UNL     1       9.767   4.090   9.123  0.00  0.00    -0.495 OA
ATOM     39  C   UNL     1       9.056   4.329  10.338  0.00  0.00    +0.277 C 
ENDBRANCH  36   8
ENDBRANCH  10  32
ENDBRANCH   1  26
ENDBRANCH  17   1
BRANCH  14  22
ATOM     22  C   UNL     1      16.459   8.084   0.706  0.00  0.00    +0.102 C 
BRANCH  22  25
ATOM      4  O   UNL     1      18.785   7.745   1.082  0.00  0.00    -0.276 OA
ATOM      9  N   UNL     1      17.576   8.745   2.782  0.00  0.00    -0.296 N 
ATOM     25  C   UNL     1      17.719   8.172   1.529  0.00  0.00    +0.216 C 
ATOM     27  C   UNL     1      18.712   8.995   3.670  0.00  0.00    +0.101 C 
ATOM     28  C   UNL     1      16.334   9.262   3.352  0.00  0.00    +0.108 C 
ATOM     29  C   UNL     1      18.166   9.999   4.687  0.00  0.00    +0.026 C 
ATOM     30  C   UNL     1      16.689   9.635   4.784  0.00  0.00    +0.021 C 
BRANCH  27  31
ATOM     31  C   UNL     1      19.195   7.706   4.335  0.00  0.00    +0.178 C 
BRANCH  31   6
ATOM      6  O   UNL     1      20.330   7.237   3.632  0.00  0.00    -0.393 OA
ATOM     43  H   UNL     1      20.982   6.953   4.295  0.00  0.00    +0.209 HD
ENDBRANCH  31   6
ENDBRANCH  27  31
ENDBRANCH  22  25
ENDBRANCH  14  22
BRANCH  13  23
ATOM     23  C   UNL     1      11.567   4.795  -0.260  0.00  0.00    +0.166 C 
BRANCH  23   3
ATOM      3  O   UNL     1      10.440   3.963  -0.097  0.00  0.00    -0.394 OA
ATOM     41  H   UNL     1      10.757   3.105   0.233  0.00  0.00    +0.209 HD
ENDBRANCH  23   3
ENDBRANCH  13  23
TORSDOF 12
ENDMDL
MODEL 9
REMARK VINA RESULT:      -5.9      2.439      8.860
REMARK  Name = 44716951
REMARK  16 active torsions:
REMARK  status: ('A' for Active; 'I' for Inactive)
REMARK    1  A    between atoms: O_1  and  C_17
REMARK    2  A    between atoms: O_1  and  C_26
REMARK    3  A    between atoms: O_2  and  C_18
REMARK    4  A    between atoms: O_3  and  C_23
REMARK    5  A    between atoms: O_6  and  C_31
REMARK    6  A    between atoms: O_7  and  C_35
REMARK    7  A    between atoms: O_7  and  C_38
REMARK    8  A    between atoms: O_8  and  C_36
REMARK    9  A    between atoms: O_8  and  C_39
REMARK   10  A    between atoms: N_10  and  C_32
REMARK   11  A    between atoms: C_11  and  C_21
REMARK   12  A    between atoms: C_13  and  C_23
REMARK   13  A    between atoms: C_13  and  C_24
REMARK   14  A    between atoms: C_14  and  C_22
REMARK   15  A    between atoms: C_22  and  C_25
REMARK   16  A    between atoms: C_27  and  C_31
REMARK                            x       y       z     vdW  Elec       q    Type
REMARK                         _______ _______ _______ _____ _____    ______ ____
ROOT
ATOM     11  C   UNL     1      11.814   5.585   0.037  0.00  0.00    -0.023 C 
ATOM     12  C   UNL     1      11.811   4.138  -0.592  0.00  0.00    +0.007 C 
ATOM     13  C   UNL     1      11.623   4.046  -2.155  0.00  0.00    +0.031 C 
ATOM     14  C   UNL     1      11.691   5.407   1.607  0.00  0.00    +0.032 C 
ATOM     15  C   UNL     1      10.570   6.351  -0.488  0.00  0.00    +0.011 C 
ATOM     16  C   UNL     1      12.976   3.291  -0.033  0.00  0.00    +0.007 C 
ATOM     17  C   UNL     1      10.397   4.917  -2.567  0.00  0.00    +0.186 C 
ATOM     18  C   UNL     1      12.784   4.493   2.209  0.00  0.00    +0.119 C 
ATOM     19  C   UNL     1      10.432   6.334  -2.006  0.00  0.00    +0.046 C 
ATOM     20  C   UNL     1      12.880   3.152   1.487  0.00  0.00    +0.032 C 
ATOM     21  C   UNL     1      13.072   6.414  -0.320  0.00  0.00    +0.012 C 
ATOM     24  C   UNL     1      11.299   2.574  -2.544  0.00  0.00    +0.017 C 
ENDROOT
BRANCH  18   2
ATOM      2  O   UNL     1      14.052   5.139   2.196  0.00  0.00    -0.391 OA
ATOM     40  H   UNL     1      14.698   4.535   2.599  0.00  0.00    +0.210 HD
ENDBRANCH  18   2
BRANCH  17   1
ATOM      1  O   UNL     1      10.279   5.029  -3.985  0.00  0.00    -0.446 OA
BRANCH   1  26
ATOM      5  O   UNL     1       9.389   6.631  -5.354  0.00  0.00    -0.226 OA
ATOM     10  N   UNL     1       8.111   5.531  -3.729  0.00  0.00    -0.251 N 
ATOM     26  C   UNL     1       9.256   5.818  -4.448  0.00  0.00    +0.405 C 
ATOM     42  H   UNL     1       8.199   4.818  -3.009  0.00  0.00    +0.158 HD
BRANCH  10  32
ATOM     32  C   UNL     1       6.828   6.106  -3.872  0.00  0.00    +0.043 A 
ATOM     33  C   UNL     1       5.889   5.516  -4.718  0.00  0.00    +0.069 A 
ATOM     34  C   UNL     1       6.500   7.264  -3.166  0.00  0.00    +0.069 A 
ATOM     35  C   UNL     1       5.233   7.831  -3.306  0.00  0.00    +0.125 A 
ATOM     36  C   UNL     1       4.623   6.084  -4.859  0.00  0.00    +0.125 A 
ATOM     37  C   UNL     1       4.295   7.241  -4.152  0.00  0.00    +0.091 A 
BRANCH  35   7
ATOM      7  O   UNL     1       4.914   8.961  -2.618  0.00  0.00    -0.495 OA
ATOM     38  C   UNL     1       4.695   8.827  -1.214  0.00  0.00    +0.277 C 
ENDBRANCH  35   7
BRANCH  36   8
ATOM      8  O   UNL     1       3.707   5.509  -5.685  0.00  0.00    -0.495 OA
ATOM     39  C   UNL     1       3.193   4.235  -5.299  0.00  0.00    +0.277 C 
ENDBRANCH  36   8
ENDBRANCH  10  32
ENDBRANCH   1  26
ENDBRANCH  17   1
BRANCH  14  22
ATOM     22  C   UNL     1      11.612   6.719   2.403  0.00  0.00    +0.102 C 
BRANCH  22  25
ATOM      4  O   UNL     1       9.250   6.940   2.603  0.00  0.00    -0.276 OA
ATOM      9  N   UNL     1      10.448   6.607   4.554  0.00  0.00    -0.296 N 
ATOM     25  C   UNL     1      10.323   6.766   3.184  0.00  0.00    +0.216 C 
ATOM     27  C   UNL     1       9.291   6.530   5.448  0.00  0.00    +0.101 C 
ATOM     28  C   UNL     1      11.697   6.399   5.284  0.00  0.00    +0.108 C 
ATOM     29  C   UNL     1       9.864   5.928   6.734  0.00  0.00    +0.026 C 
ATOM     30  C   UNL     1      11.301   6.438   6.752  0.00  0.00    +0.021 C 
BRANCH  27  31
ATOM     31  C   UNL     1       8.674   7.908   5.683  0.00  0.00    +0.178 C 
BRANCH  31   6
ATOM      6  O   UNL     1       7.527   8.031   4.862  0.00  0.00    -0.393 OA
ATOM     43  H   UNL     1       7.499   7.245   4.290  0.00  0.00    +0.209 HD
ENDBRANCH  31   6
ENDBRANCH  27  31
ENDBRANCH  22  25
ENDBRANCH  14  22
BRANCH  13  23
ATOM     23  C   UNL     1      12.880   4.425  -2.965  0.00  0.00    +0.166 C 
BRANCH  23   3
ATOM      3  O   UNL     1      13.384   3.250  -3.558  0.00  0.00    -0.394 OA
ATOM     41  H   UNL     1      13.912   3.517  -4.330  0.00  0.00    +0.209 HD
ENDBRANCH  23   3
ENDBRANCH  13  23
TORSDOF 12
ENDMDL
MODEL 10
REMARK VINA RESULT:      -5.9      6.789     11.165
REMARK  Name = 44716951
REMARK  16 active torsions:
REMARK  status: ('A' for Active; 'I' for Inactive)
REMARK    1  A    between atoms: O_1  and  C_17
REMARK    2  A    between atoms: O_1  and  C_26
REMARK    3  A    between atoms: O_2  and  C_18
REMARK    4  A    between atoms: O_3  and  C_23
REMARK    5  A    between atoms: O_6  and  C_31
REMARK    6  A    between atoms: O_7  and  C_35
REMARK    7  A    between atoms: O_7  and  C_38
REMARK    8  A    between atoms: O_8  and  C_36
REMARK    9  A    between atoms: O_8  and  C_39
REMARK   10  A    between atoms: N_10  and  C_32
REMARK   11  A    between atoms: C_11  and  C_21
REMARK   12  A    between atoms: C_13  and  C_23
REMARK   13  A    between atoms: C_13  and  C_24
REMARK   14  A    between atoms: C_14  and  C_22
REMARK   15  A    between atoms: C_22  and  C_25
REMARK   16  A    between atoms: C_27  and  C_31
REMARK                            x       y       z     vdW  Elec       q    Type
REMARK                         _______ _______ _______ _____ _____    ______ ____
ROOT
ATOM     11  C   UNL     1       7.198   9.998   3.450  0.00  0.00    -0.023 C 
ATOM     12  C   UNL     1       6.689   9.594   2.012  0.00  0.00    +0.007 C 
ATOM     13  C   UNL     1       5.565  10.501   1.378  0.00  0.00    +0.031 C 
ATOM     14  C   UNL     1       8.061   8.785   3.992  0.00  0.00    +0.032 C 
ATOM     15  C   UNL     1       5.963  10.196   4.370  0.00  0.00    +0.011 C 
ATOM     16  C   UNL     1       7.876   9.289   1.072  0.00  0.00    +0.007 C 
ATOM     17  C   UNL     1       4.423  10.692   2.422  0.00  0.00    +0.186 C 
ATOM     18  C   UNL     1       9.214   8.378   3.045  0.00  0.00    +0.119 C 
ATOM     19  C   UNL     1       4.912  11.140   3.795  0.00  0.00    +0.046 C 
ATOM     20  C   UNL     1       8.733   8.145   1.615  0.00  0.00    +0.032 C 
ATOM     21  C   UNL     1       8.025  11.307   3.470  0.00  0.00    +0.012 C 
ATOM     24  C   UNL     1       4.952   9.768   0.149  0.00  0.00    +0.017 C 
ENDROOT
BRANCH  18   2
ATOM      2  O   UNL     1      10.248   9.358   3.051  0.00  0.00    -0.391 OA
ATOM     40  H   UNL     1       9.888  10.173   2.663  0.00  0.00    +0.210 HD
ENDBRANCH  18   2
BRANCH  17   1
ATOM      1  O   UNL     1       3.460  11.651   1.986  0.00  0.00    -0.446 OA
BRANCH   1  26
ATOM      5  O   UNL     1       1.962  12.405   3.542  0.00  0.00    -0.226 OA
ATOM     10  N   UNL     1       1.467  10.633   2.093  0.00  0.00    -0.251 N 
ATOM     26  C   UNL     1       2.251  11.634   2.635  0.00  0.00    +0.405 C 
ATOM     42  H   UNL     1       1.886  10.093   1.339  0.00  0.00    +0.158 HD
BRANCH  10  32
ATOM     32  C   UNL     1       0.153  10.264   2.457  0.00  0.00    +0.043 A 
ATOM     33  C   UNL     1      -0.099   9.742   3.726  0.00  0.00    +0.069 A 
ATOM     34  C   UNL     1      -0.893  10.421   1.548  0.00  0.00    +0.069 A 
ATOM     35  C   UNL     1      -2.191  10.058   1.908  0.00  0.00    +0.125 A 
ATOM     36  C   UNL     1      -1.396   9.377   4.085  0.00  0.00    +0.125 A 
ATOM     37  C   UNL     1      -2.442   9.536   3.176  0.00  0.00    +0.091 A 
BRANCH  35   7
ATOM      7  O   UNL     1      -3.211  10.211   1.020  0.00  0.00    -0.495 OA
ATOM     38  C   UNL     1      -2.880  10.152  -0.367  0.00  0.00    +0.277 C 
ENDBRANCH  35   7
BRANCH  36   8
ATOM      8  O   UNL     1      -1.642   8.867   5.322  0.00  0.00    -0.495 OA
ATOM     39  C   UNL     1      -2.860   8.144   5.497  0.00  0.00    +0.277 C 
ENDBRANCH  36   8
ENDBRANCH  10  32
ENDBRANCH   1  26
ENDBRANCH  17   1
BRANCH  14  22
ATOM     22  C   UNL     1       8.599   8.961   5.422  0.00  0.00    +0.102 C 
BRANCH  22  25
ATOM      4  O   UNL     1       8.370   6.660   5.985  0.00  0.00    -0.276 OA
ATOM      9  N   UNL     1      10.436   7.635   6.348  0.00  0.00    -0.296 N 
ATOM     25  C   UNL     1       9.113   7.642   5.940  0.00  0.00    +0.216 C 
ATOM     27  C   UNL     1      11.121   6.417   6.786  0.00  0.00    +0.101 C 
ATOM     28  C   UNL     1      11.352   8.774   6.313  0.00  0.00    +0.108 C 
ATOM     29  C   UNL     1      12.604   6.784   6.706  0.00  0.00    +0.026 C 
ATOM     30  C   UNL     1      12.615   8.279   7.002  0.00  0.00    +0.021 C 
BRANCH  27  31
ATOM     31  C   UNL     1      10.701   6.020   8.201  0.00  0.00    +0.178 C 
BRANCH  31   6
ATOM      6  O   UNL     1      10.651   4.607   8.273  0.00  0.00    -0.393 OA
ATOM     43  H   UNL     1       9.973   4.312   7.641  0.00  0.00    +0.209 HD
ENDBRANCH  31   6
ENDBRANCH  27  31
ENDBRANCH  22  25
ENDBRANCH  14  22
BRANCH  13  23
ATOM     23  C   UNL     1       6.073  11.856   0.847  0.00  0.00    +0.166 C 
BRANCH  23   3
ATOM      3  O   UNL     1       5.247  12.238  -0.230  0.00  0.00    -0.394 OA
ATOM     41  H   UNL     1       5.542  13.116  -0.525  0.00  0.00    +0.209 HD
ENDBRANCH  23   3
ENDBRANCH  13  23
TORSDOF 12
ENDMDL
