MODEL 1
REMARK VINA RESULT:      -6.0      0.000      0.000
REMARK  Name = 7161700
REMARK  6 active torsions:
REMARK  status: ('A' for Active; 'I' for Inactive)
REMARK    1  A    between atoms: N_6  and  C_14
REMARK    2  A    between atoms: N_7  and  C_18
REMARK    3  A    between atoms: C_14  and  C_16
REMARK    4  A    between atoms: C_14  and  C_17
REMARK    5  A    between atoms: C_18  and  C_19
REMARK    6  A    between atoms: C_18  and  C_20
REMARK                            x       y       z     vdW  Elec       q    Type
REMARK                         _______ _______ _______ _____ _____    ______ ____
ROOT
ATOM      1  O   UNL     1      15.402   9.159  20.687  0.00  0.00    -0.273 OA
ATOM      2  O   UNL     1      11.706   6.479  20.054  0.00  0.00    -0.252 OA
ATOM      3  O   UNL     1      10.404  11.596  24.463  0.00  0.00    -0.253 OA
ATOM      4  N   UNL     1      12.271   8.061  21.684  0.00  0.00    -0.271 N 
ATOM      5  N   UNL     1      11.697  10.529  22.860  0.00  0.00    -0.282 N 
ATOM      6  N   UNL     1      13.740   7.635  20.072  0.00  0.00    -0.222 N 
ATOM      7  N   UNL     1      12.562  12.310  24.154  0.00  0.00    -0.297 N 
ATOM      8  C   UNL     1      13.376   8.934  22.002  0.00  0.00    +0.181 C 
ATOM      9  C   UNL     1      12.923  10.388  22.043  0.00  0.00    +0.141 C 
ATOM     10  C   UNL     1      11.055   8.163  22.467  0.00  0.00    +0.129 C 
ATOM     11  C   UNL     1      10.598   9.618  22.493  0.00  0.00    +0.128 C 
ATOM     12  C   UNL     1      14.317   8.617  20.852  0.00  0.00    +0.245 C 
ATOM     13  C   UNL     1      12.485   7.286  20.544  0.00  0.00    +0.312 C 
ATOM     15  C   UNL     1      11.482  11.485  23.868  0.00  0.00    +0.303 C 
ATOM     21  H   UNL     1      13.394  12.303  23.583  0.00  0.00    +0.150 HD
ENDROOT
BRANCH   6  14
ATOM     14  C   UNL     1      14.362   7.077  18.888  0.00  0.00    +0.080 C 
ATOM     16  C   UNL     1      15.784   6.627  19.199  0.00  0.00    +0.028 C 
ATOM     17  C   UNL     1      14.340   8.085  17.746  0.00  0.00    +0.028 C 
ENDBRANCH   6  14
BRANCH   7  18
ATOM     18  C   UNL     1      12.493  13.346  25.162  0.00  0.00    +0.068 C 
ATOM     19  C   UNL     1      12.747  14.711  24.537  0.00  0.00    +0.027 C 
ATOM     20  C   UNL     1      13.480  13.063  26.288  0.00  0.00    +0.027 C 
ENDBRANCH   7  18
TORSDOF 2
ENDMDL
MODEL 2
REMARK VINA RESULT:      -5.8      2.176      2.750
REMARK  Name = 7161700
REMARK  6 active torsions:
REMARK  status: ('A' for Active; 'I' for Inactive)
REMARK    1  A    between atoms: N_6  and  C_14
REMARK    2  A    between atoms: N_7  and  C_18
REMARK    3  A    between atoms: C_14  and  C_16
REMARK    4  A    between atoms: C_14  and  C_17
REMARK    5  A    between atoms: C_18  and  C_19
REMARK    6  A    between atoms: C_18  and  C_20
REMARK                            x       y       z     vdW  Elec       q    Type
REMARK                         _______ _______ _______ _____ _____    ______ ____
ROOT
ATOM      1  O   UNL     1      13.735  11.428  18.384  0.00  0.00    -0.273 OA
ATOM      2  O   UNL     1      11.860   7.305  17.534  0.00  0.00    -0.252 OA
ATOM      3  O   UNL     1      10.660   9.356  23.990  0.00  0.00    -0.253 OA
ATOM      4  N   UNL     1      12.345   8.462  19.510  0.00  0.00    -0.271 N 
ATOM      5  N   UNL     1      11.355   9.710  21.805  0.00  0.00    -0.282 N 
ATOM      6  N   UNL     1      12.879   9.411  17.573  0.00  0.00    -0.222 N 
ATOM      7  N   UNL     1      11.817  11.279  23.514  0.00  0.00    -0.297 N 
ATOM      8  C   UNL     1      12.935   9.718  19.906  0.00  0.00    +0.181 C 
ATOM      9  C   UNL     1      11.954  10.539  20.736  0.00  0.00    +0.141 C 
ATOM     10  C   UNL     1      11.755   7.617  20.529  0.00  0.00    +0.129 C 
ATOM     11  C   UNL     1      10.763   8.439  21.347  0.00  0.00    +0.128 C 
ATOM     12  C   UNL     1      13.241  10.321  18.546  0.00  0.00    +0.245 C 
ATOM     13  C   UNL     1      12.315   8.274  18.128  0.00  0.00    +0.312 C 
ATOM     15  C   UNL     1      11.239  10.065  23.159  0.00  0.00    +0.303 C 
ATOM     21  H   UNL     1      12.175  11.913  22.815  0.00  0.00    +0.150 HD
ENDROOT
BRANCH   6  14
ATOM     14  C   UNL     1      13.037   9.645  16.151  0.00  0.00    +0.080 C 
ATOM     16  C   UNL     1      11.712   9.438  15.429  0.00  0.00    +0.028 C 
ATOM     17  C   UNL     1      14.124   8.743  15.579  0.00  0.00    +0.028 C 
ENDBRANCH   6  14
BRANCH   7  18
ATOM     18  C   UNL     1      11.776  11.784  24.868  0.00  0.00    +0.068 C 
ATOM     19  C   UNL     1      10.641  12.788  25.025  0.00  0.00    +0.027 C 
ATOM     20  C   UNL     1      13.116  12.402  25.249  0.00  0.00    +0.027 C 
ENDBRANCH   7  18
TORSDOF 2
ENDMDL
MODEL 3
REMARK VINA RESULT:      -5.5     26.107     28.782
REMARK  Name = 7161700
REMARK  6 active torsions:
REMARK  status: ('A' for Active; 'I' for Inactive)
REMARK    1  A    between atoms: N_6  and  C_14
REMARK    2  A    between atoms: N_7  and  C_18
REMARK    3  A    between atoms: C_14  and  C_16
REMARK    4  A    between atoms: C_14  and  C_17
REMARK    5  A    between atoms: C_18  and  C_19
REMARK    6  A    between atoms: C_18  and  C_20
REMARK                            x       y       z     vdW  Elec       q    Type
REMARK                         _______ _______ _______ _____ _____    ______ ____
ROOT
ATOM      1  O   UNL     1      -8.672  -9.318  15.458  0.00  0.00    -0.273 OA
ATOM      2  O   UNL     1      -8.842 -10.840  19.805  0.00  0.00    -0.252 OA
ATOM      3  O   UNL     1      -2.499 -11.337  17.188  0.00  0.00    -0.253 OA
ATOM      4  N   UNL     1      -7.279 -11.101  18.082  0.00  0.00    -0.271 N 
ATOM      5  N   UNL     1      -4.694 -10.587  17.157  0.00  0.00    -0.282 N 
ATOM      6  N   UNL     1      -9.125  -9.936  17.666  0.00  0.00    -0.222 N 
ATOM      7  N   UNL     1      -3.312 -10.432  15.244  0.00  0.00    -0.297 N 
ATOM      8  C   UNL     1      -7.119 -10.704  16.704  0.00  0.00    +0.181 C 
ATOM      9  C   UNL     1      -5.837  -9.900  16.517  0.00  0.00    +0.141 C 
ATOM     10  C   UNL     1      -6.184 -11.783  18.743  0.00  0.00    +0.129 C 
ATOM     11  C   UNL     1      -4.907 -10.968  18.566  0.00  0.00    +0.128 C 
ATOM     12  C   UNL     1      -8.387  -9.893  16.500  0.00  0.00    +0.245 C 
ATOM     13  C   UNL     1      -8.469 -10.652  18.654  0.00  0.00    +0.312 C 
ATOM     15  C   UNL     1      -3.438 -10.822  16.572  0.00  0.00    +0.303 C 
ATOM     21  H   UNL     1      -4.034  -9.899  14.783  0.00  0.00    +0.150 HD
ENDROOT
BRANCH   6  14
ATOM     14  C   UNL     1     -10.406  -9.278  17.834  0.00  0.00    +0.080 C 
ATOM     16  C   UNL     1     -11.483 -10.004  17.038  0.00  0.00    +0.028 C 
ATOM     17  C   UNL     1     -10.311  -7.813  17.427  0.00  0.00    +0.028 C 
ENDBRANCH   6  14
BRANCH   7  18
ATOM     18  C   UNL     1      -2.080 -10.603  14.506  0.00  0.00    +0.068 C 
ATOM     19  C   UNL     1      -1.083  -9.513  14.879  0.00  0.00    +0.027 C 
ATOM     20  C   UNL     1      -2.352 -10.611  13.006  0.00  0.00    +0.027 C 
ENDBRANCH   7  18
TORSDOF 2
ENDMDL
MODEL 4
REMARK VINA RESULT:      -5.3     26.700     28.750
REMARK  Name = 7161700
REMARK  6 active torsions:
REMARK  status: ('A' for Active; 'I' for Inactive)
REMARK    1  A    between atoms: N_6  and  C_14
REMARK    2  A    between atoms: N_7  and  C_18
REMARK    3  A    between atoms: C_14  and  C_16
REMARK    4  A    between atoms: C_14  and  C_17
REMARK    5  A    between atoms: C_18  and  C_19
REMARK    6  A    between atoms: C_18  and  C_20
REMARK                            x       y       z     vdW  Elec       q    Type
REMARK                         _______ _______ _______ _____ _____    ______ ____
ROOT
ATOM      1  O   UNL     1      -6.479  -9.172  16.420  0.00  0.00    -0.273 OA
ATOM      2  O   UNL     1      -5.706 -13.364  18.170  0.00  0.00    -0.252 OA
ATOM      3  O   UNL     1      -2.208 -12.367  12.331  0.00  0.00    -0.253 OA
ATOM      4  N   UNL     1      -5.339 -12.423  16.058  0.00  0.00    -0.271 N 
ATOM      5  N   UNL     1      -3.481 -11.637  14.127  0.00  0.00    -0.282 N 
ATOM      6  N   UNL     1      -6.282 -11.163  17.627  0.00  0.00    -0.222 N 
ATOM      7  N   UNL     1      -3.106 -10.259  12.242  0.00  0.00    -0.297 N 
ATOM      8  C   UNL     1      -5.549 -11.162  15.390  0.00  0.00    +0.181 C 
ATOM      9  C   UNL     1      -4.232 -10.600  14.868  0.00  0.00    +0.141 C 
ATOM     10  C   UNL     1      -4.614 -13.468  15.363  0.00  0.00    +0.129 C 
ATOM     11  C   UNL     1      -3.291 -12.905  14.855  0.00  0.00    +0.128 C 
ATOM     12  C   UNL     1      -6.158 -10.348  16.519  0.00  0.00    +0.245 C 
ATOM     13  C   UNL     1      -5.777 -12.430  17.383  0.00  0.00    +0.312 C 
ATOM     15  C   UNL     1      -2.887 -11.482  12.863  0.00  0.00    +0.303 C 
ATOM     21  H   UNL     1      -3.550  -9.495  12.729  0.00  0.00    +0.150 HD
ENDROOT
BRANCH   6  14
ATOM     14  C   UNL     1      -6.835 -10.724  18.893  0.00  0.00    +0.080 C 
ATOM     16  C   UNL     1      -5.870 -11.034  20.030  0.00  0.00    +0.028 C 
ATOM     17  C   UNL     1      -8.196 -11.366  19.133  0.00  0.00    +0.028 C 
ENDBRANCH   6  14
BRANCH   7  18
ATOM     18  C   UNL     1      -2.556  -9.947  10.941  0.00  0.00    +0.068 C 
ATOM     19  C   UNL     1      -1.253  -9.172  11.089  0.00  0.00    +0.027 C 
ATOM     20  C   UNL     1      -3.567  -9.172  10.104  0.00  0.00    +0.027 C 
ENDBRANCH   7  18
TORSDOF 2
ENDMDL
MODEL 5
REMARK VINA RESULT:      -5.2     26.784     28.734
REMARK  Name = 7161700
REMARK  6 active torsions:
REMARK  status: ('A' for Active; 'I' for Inactive)
REMARK    1  A    between atoms: N_6  and  C_14
REMARK    2  A    between atoms: N_7  and  C_18
REMARK    3  A    between atoms: C_14  and  C_16
REMARK    4  A    between atoms: C_14  and  C_17
REMARK    5  A    between atoms: C_18  and  C_19
REMARK    6  A    between atoms: C_18  and  C_20
REMARK                            x       y       z     vdW  Elec       q    Type
REMARK                         _______ _______ _______ _____ _____    ______ ____
ROOT
ATOM      1  O   UNL     1      -8.496  -9.794  15.255  0.00  0.00    -0.273 OA
ATOM      2  O   UNL     1      -7.720 -10.672  19.712  0.00  0.00    -0.252 OA
ATOM      3  O   UNL     1      -1.936 -11.051  16.006  0.00  0.00    -0.253 OA
ATOM      4  N   UNL     1      -6.475 -11.060  17.768  0.00  0.00    -0.271 N 
ATOM      5  N   UNL     1      -4.166 -10.487  16.303  0.00  0.00    -0.282 N 
ATOM      6  N   UNL     1      -8.476 -10.116  17.569  0.00  0.00    -0.222 N 
ATOM      7  N   UNL     1      -3.176 -10.506  14.155  0.00  0.00    -0.297 N 
ATOM      8  C   UNL     1      -6.608 -10.857  16.345  0.00  0.00    +0.181 C 
ATOM      9  C   UNL     1      -5.471  -9.992  15.813  0.00  0.00    +0.141 C 
ATOM     10  C   UNL     1      -5.214 -11.551  18.287  0.00  0.00    +0.129 C 
ATOM     11  C   UNL     1      -4.082 -10.673  17.763  0.00  0.00    +0.128 C 
ATOM     12  C   UNL     1      -7.969 -10.186  16.287  0.00  0.00    +0.245 C 
ATOM     13  C   UNL     1      -7.583 -10.627  18.496  0.00  0.00    +0.312 C 
ATOM     15  C   UNL     1      -3.020 -10.706  15.521  0.00  0.00    +0.303 C 
ATOM     21  H   UNL     1      -4.021 -10.103  13.778  0.00  0.00    +0.150 HD
ENDROOT
BRANCH   6  14
ATOM     14  C   UNL     1      -9.767  -9.542  17.895  0.00  0.00    +0.080 C 
ATOM     16  C   UNL     1     -10.885 -10.354  17.254  0.00  0.00    +0.028 C 
ATOM     17  C   UNL     1      -9.828  -8.082  17.463  0.00  0.00    +0.028 C 
ENDBRANCH   6  14
BRANCH   7  18
ATOM     18  C   UNL     1      -2.086 -10.686  13.221  0.00  0.00    +0.068 C 
ATOM     19  C   UNL     1      -2.374  -9.946  11.921  0.00  0.00    +0.027 C 
ATOM     20  C   UNL     1      -1.838 -12.169  12.969  0.00  0.00    +0.027 C 
ENDBRANCH   7  18
TORSDOF 2
ENDMDL
MODEL 6
REMARK VINA RESULT:      -5.1      3.319      4.437
REMARK  Name = 7161700
REMARK  6 active torsions:
REMARK  status: ('A' for Active; 'I' for Inactive)
REMARK    1  A    between atoms: N_6  and  C_14
REMARK    2  A    between atoms: N_7  and  C_18
REMARK    3  A    between atoms: C_14  and  C_16
REMARK    4  A    between atoms: C_14  and  C_17
REMARK    5  A    between atoms: C_18  and  C_19
REMARK    6  A    between atoms: C_18  and  C_20
REMARK                            x       y       z     vdW  Elec       q    Type
REMARK                         _______ _______ _______ _____ _____    ______ ____
ROOT
ATOM      1  O   UNL     1      15.314  12.205  17.311  0.00  0.00    -0.273 OA
ATOM      2  O   UNL     1      13.734   8.438  15.176  0.00  0.00    -0.252 OA
ATOM      3  O   UNL     1      11.315   8.918  21.598  0.00  0.00    -0.253 OA
ATOM      4  N   UNL     1      13.817   9.082  17.425  0.00  0.00    -0.271 N 
ATOM      5  N   UNL     1      12.391   9.768  19.727  0.00  0.00    -0.282 N 
ATOM      6  N   UNL     1      14.674  10.454  15.901  0.00  0.00    -0.222 N 
ATOM      7  N   UNL     1      12.490  10.876  21.814  0.00  0.00    -0.297 N 
ATOM      8  C   UNL     1      14.292  10.197  18.210  0.00  0.00    +0.181 C 
ATOM      9  C   UNL     1      13.155  10.816  19.015  0.00  0.00    +0.141 C 
ATOM     10  C   UNL     1      13.072   8.031  18.088  0.00  0.00    +0.129 C 
ATOM     11  C   UNL     1      11.926   8.654  18.880  0.00  0.00    +0.128 C 
ATOM     12  C   UNL     1      14.828  11.100  17.112  0.00  0.00    +0.245 C 
ATOM     13  C   UNL     1      14.047   9.229  16.057  0.00  0.00    +0.312 C 
ATOM     15  C   UNL     1      12.019   9.793  21.082  0.00  0.00    +0.303 C 
ATOM     21  H   UNL     1      12.954  11.651  21.364  0.00  0.00    +0.150 HD
ENDROOT
BRANCH   6  14
ATOM     14  C   UNL     1      15.086  11.017  14.630  0.00  0.00    +0.080 C 
ATOM     16  C   UNL     1      16.556  11.413  14.677  0.00  0.00    +0.028 C 
ATOM     17  C   UNL     1      14.205  12.204  14.261  0.00  0.00    +0.028 C 
ENDBRANCH   6  14
BRANCH   7  18
ATOM     18  C   UNL     1      12.187  11.046  23.218  0.00  0.00    +0.068 C 
ATOM     19  C   UNL     1      10.982  11.961  23.394  0.00  0.00    +0.027 C 
ATOM     20  C   UNL     1      13.402  11.583  23.966  0.00  0.00    +0.027 C 
ENDBRANCH   7  18
TORSDOF 2
ENDMDL
MODEL 7
REMARK VINA RESULT:      -5.1     26.804     28.782
REMARK  Name = 7161700
REMARK  6 active torsions:
REMARK  status: ('A' for Active; 'I' for Inactive)
REMARK    1  A    between atoms: N_6  and  C_14
REMARK    2  A    between atoms: N_7  and  C_18
REMARK    3  A    between atoms: C_14  and  C_16
REMARK    4  A    between atoms: C_14  and  C_17
REMARK    5  A    between atoms: C_18  and  C_19
REMARK    6  A    between atoms: C_18  and  C_20
REMARK                            x       y       z     vdW  Elec       q    Type
REMARK                         _______ _______ _______ _____ _____    ______ ____
ROOT
ATOM      1  O   UNL     1      -5.261  -9.845  14.845  0.00  0.00    -0.273 OA
ATOM      2  O   UNL     1      -4.121 -12.019  18.746  0.00  0.00    -0.252 OA
ATOM      3  O   UNL     1     -10.562  -9.611  18.971  0.00  0.00    -0.253 OA
ATOM      4  N   UNL     1      -5.847 -10.538  18.189  0.00  0.00    -0.271 N 
ATOM      5  N   UNL     1      -8.594 -10.146  17.866  0.00  0.00    -0.282 N 
ATOM      6  N   UNL     1      -4.358 -11.062  16.625  0.00  0.00    -0.222 N 
ATOM      7  N   UNL     1     -10.257  -8.811  16.843  0.00  0.00    -0.297 N 
ATOM      8  C   UNL     1      -6.294  -9.788  17.040  0.00  0.00    +0.181 C 
ATOM      9  C   UNL     1      -7.724 -10.166  16.670  0.00  0.00    +0.141 C 
ATOM     10  C   UNL     1      -6.667 -10.537  19.384  0.00  0.00    +0.129 C 
ATOM     11  C   UNL     1      -8.093 -10.930  19.011  0.00  0.00    +0.128 C 
ATOM     12  C   UNL     1      -5.261 -10.217  16.011  0.00  0.00    +0.245 C 
ATOM     13  C   UNL     1      -4.697 -11.290  17.948  0.00  0.00    +0.312 C 
ATOM     15  C   UNL     1      -9.851  -9.527  17.963  0.00  0.00    +0.303 C 
ATOM     21  H   UNL     1      -9.736  -8.850  15.979  0.00  0.00    +0.150 HD
ENDROOT
BRANCH   6  14
ATOM     14  C   UNL     1      -3.225 -11.661  15.946  0.00  0.00    +0.080 C 
ATOM     16  C   UNL     1      -2.223 -10.588  15.542  0.00  0.00    +0.028 C 
ATOM     17  C   UNL     1      -3.689 -12.466  14.739  0.00  0.00    +0.028 C 
ENDBRANCH   6  14
BRANCH   7  18
ATOM     18  C   UNL     1     -11.528  -8.124  16.787  0.00  0.00    +0.068 C 
ATOM     19  C   UNL     1     -12.470  -8.829  15.820  0.00  0.00    +0.027 C 
ATOM     20  C   UNL     1     -11.330  -6.663  16.399  0.00  0.00    +0.027 C 
ENDBRANCH   7  18
TORSDOF 2
ENDMDL
MODEL 8
REMARK VINA RESULT:      -5.1      3.425      5.251
REMARK  Name = 7161700
REMARK  6 active torsions:
REMARK  status: ('A' for Active; 'I' for Inactive)
REMARK    1  A    between atoms: N_6  and  C_14
REMARK    2  A    between atoms: N_7  and  C_18
REMARK    3  A    between atoms: C_14  and  C_16
REMARK    4  A    between atoms: C_14  and  C_17
REMARK    5  A    between atoms: C_18  and  C_19
REMARK    6  A    between atoms: C_18  and  C_20
REMARK                            x       y       z     vdW  Elec       q    Type
REMARK                         _______ _______ _______ _____ _____    ______ ____
ROOT
ATOM      1  O   UNL     1      18.617   9.004  22.249  0.00  0.00    -0.273 OA
ATOM      2  O   UNL     1      18.313   5.346  19.461  0.00  0.00    -0.252 OA
ATOM      3  O   UNL     1      12.748   9.365  18.992  0.00  0.00    -0.253 OA
ATOM      4  N   UNL     1      16.734   6.876  20.267  0.00  0.00    -0.271 N 
ATOM      5  N   UNL     1      14.921   8.915  19.669  0.00  0.00    -0.282 N 
ATOM      6  N   UNL     1      18.844   7.088  20.930  0.00  0.00    -0.222 N 
ATOM      7  N   UNL     1      13.718  10.758  20.535  0.00  0.00    -0.297 N 
ATOM      8  C   UNL     1      16.695   8.025  21.139  0.00  0.00    +0.181 C 
ATOM      9  C   UNL     1      16.164   9.248  20.400  0.00  0.00    +0.141 C 
ATOM     10  C   UNL     1      15.535   6.513  19.539  0.00  0.00    +0.129 C 
ATOM     11  C   UNL     1      15.015   7.735  18.789  0.00  0.00    +0.128 C 
ATOM     12  C   UNL     1      18.161   8.130  21.524  0.00  0.00    +0.245 C 
ATOM     13  C   UNL     1      18.005   6.314  20.145  0.00  0.00    +0.312 C 
ATOM     15  C   UNL     1      13.729   9.658  19.686  0.00  0.00    +0.303 C 
ATOM     21  H   UNL     1      14.557  11.068  21.002  0.00  0.00    +0.150 HD
ENDROOT
BRANCH   6  14
ATOM     14  C   UNL     1      20.268   6.866  21.085  0.00  0.00    +0.080 C 
ATOM     16  C   UNL     1      20.568   6.295  22.466  0.00  0.00    +0.028 C 
ATOM     17  C   UNL     1      21.041   8.156  20.842  0.00  0.00    +0.028 C 
ENDBRANCH   6  14
BRANCH   7  18
ATOM     18  C   UNL     1      12.565  11.623  20.659  0.00  0.00    +0.068 C 
ATOM     19  C   UNL     1      13.003  13.078  20.757  0.00  0.00    +0.027 C 
ATOM     20  C   UNL     1      11.720  11.219  21.861  0.00  0.00    +0.027 C 
ENDBRANCH   7  18
TORSDOF 2
ENDMDL
MODEL 9
REMARK VINA RESULT:      -5.1      3.586      5.871
REMARK  Name = 7161700
REMARK  6 active torsions:
REMARK  status: ('A' for Active; 'I' for Inactive)
REMARK    1  A    between atoms: N_6  and  C_14
REMARK    2  A    between atoms: N_7  and  C_18
REMARK    3  A    between atoms: C_14  and  C_16
REMARK    4  A    between atoms: C_14  and  C_17
REMARK    5  A    between atoms: C_18  and  C_19
REMARK    6  A    between atoms: C_18  and  C_20
REMARK                            x       y       z     vdW  Elec       q    Type
REMARK                         _______ _______ _______ _____ _____    ______ ____
ROOT
ATOM      1  O   UNL     1      17.557   5.836  20.373  0.00  0.00    -0.273 OA
ATOM      2  O   UNL     1      19.801   9.504  22.031  0.00  0.00    -0.252 OA
ATOM      3  O   UNL     1      12.988  10.450  22.105  0.00  0.00    -0.253 OA
ATOM      4  N   UNL     1      17.613   9.183  21.265  0.00  0.00    -0.271 N 
ATOM      5  N   UNL     1      14.889   9.140  21.884  0.00  0.00    -0.282 N 
ATOM      6  N   UNL     1      19.017   7.462  21.202  0.00  0.00    -0.222 N 
ATOM      7  N   UNL     1      12.762   8.343  21.226  0.00  0.00    -0.297 N 
ATOM      8  C   UNL     1      16.809   8.118  20.715  0.00  0.00    +0.181 C 
ATOM      9  C   UNL     1      15.578   7.867  21.577  0.00  0.00    +0.141 C 
ATOM     10  C   UNL     1      16.977  10.448  21.572  0.00  0.00    +0.129 C 
ATOM     11  C   UNL     1      15.754  10.194  22.447  0.00  0.00    +0.128 C 
ATOM     12  C   UNL     1      17.812   6.977  20.732  0.00  0.00    +0.245 C 
ATOM     13  C   UNL     1      18.923   8.799  21.550  0.00  0.00    +0.312 C 
ATOM     15  C   UNL     1      13.511   9.385  21.760  0.00  0.00    +0.303 C 
ATOM     21  H   UNL     1      13.168   7.434  21.066  0.00  0.00    +0.150 HD
ENDROOT
BRANCH   6  14
ATOM     14  C   UNL     1      20.211   6.652  21.346  0.00  0.00    +0.080 C 
ATOM     16  C   UNL     1      20.626   6.574  22.809  0.00  0.00    +0.028 C 
ATOM     17  C   UNL     1      21.338   7.203  20.481  0.00  0.00    +0.028 C 
ENDBRANCH   6  14
BRANCH   7  18
ATOM     18  C   UNL     1      11.330   8.441  21.042  0.00  0.00    +0.068 C 
ATOM     19  C   UNL     1      10.629   7.264  21.707  0.00  0.00    +0.027 C 
ATOM     20  C   UNL     1      10.986   8.523  19.560  0.00  0.00    +0.027 C 
ENDBRANCH   7  18
TORSDOF 2
ENDMDL
MODEL 10
REMARK VINA RESULT:      -4.9     27.153     29.218
REMARK  Name = 7161700
REMARK  6 active torsions:
REMARK  status: ('A' for Active; 'I' for Inactive)
REMARK    1  A    between atoms: N_6  and  C_14
REMARK    2  A    between atoms: N_7  and  C_18
REMARK    3  A    between atoms: C_14  and  C_16
REMARK    4  A    between atoms: C_14  and  C_17
REMARK    5  A    between atoms: C_18  and  C_19
REMARK    6  A    between atoms: C_18  and  C_20
REMARK                            x       y       z     vdW  Elec       q    Type
REMARK                         _______ _______ _______ _____ _____    ______ ____
ROOT
ATOM      1  O   UNL     1      -5.349 -13.999  14.215  0.00  0.00    -0.273 OA
ATOM      2  O   UNL     1      -2.279 -10.649  14.987  0.00  0.00    -0.252 OA
ATOM      3  O   UNL     1      -6.591 -11.412  20.293  0.00  0.00    -0.253 OA
ATOM      4  N   UNL     1      -4.317 -11.210  15.993  0.00  0.00    -0.271 N 
ATOM      5  N   UNL     1      -5.640 -12.092  18.289  0.00  0.00    -0.282 N 
ATOM      6  N   UNL     1      -3.613 -12.435  14.278  0.00  0.00    -0.222 N 
ATOM      7  N   UNL     1      -7.603 -13.110  19.128  0.00  0.00    -0.297 N 
ATOM      8  C   UNL     1      -5.360 -12.196  15.838  0.00  0.00    +0.181 C 
ATOM      9  C   UNL     1      -5.543 -12.996  17.122  0.00  0.00    +0.141 C 
ATOM     10  C   UNL     1      -4.380 -10.300  17.119  0.00  0.00    +0.129 C 
ATOM     11  C   UNL     1      -4.549 -11.107  18.403  0.00  0.00    +0.128 C 
ATOM     12  C   UNL     1      -4.801 -13.010  14.683  0.00  0.00    +0.245 C 
ATOM     13  C   UNL     1      -3.283 -11.345  15.066  0.00  0.00    +0.312 C 
ATOM     15  C   UNL     1      -6.611 -12.153  19.303  0.00  0.00    +0.303 C 
ATOM     21  H   UNL     1      -7.547 -13.795  18.390  0.00  0.00    +0.150 HD
ENDROOT
BRANCH   6  14
ATOM     14  C   UNL     1      -2.803 -12.942  13.187  0.00  0.00    +0.080 C 
ATOM     16  C   UNL     1      -1.470 -13.457  13.713  0.00  0.00    +0.028 C 
ATOM     17  C   UNL     1      -2.600 -11.867  12.127  0.00  0.00    +0.028 C 
ENDBRANCH   6  14
BRANCH   7  18
ATOM     18  C   UNL     1      -8.669 -13.298  20.088  0.00  0.00    +0.068 C 
ATOM     19  C   UNL     1      -9.196 -14.725  20.022  0.00  0.00    +0.027 C 
ATOM     20  C   UNL     1      -9.784 -12.286  19.854  0.00  0.00    +0.027 C 
ENDBRANCH   7  18
TORSDOF 2
ENDMDL
