MODEL 1
REMARK VINA RESULT:      -8.2      0.000      0.000
REMARK  Name = 26744874
REMARK  6 active torsions:
REMARK  status: ('A' for Active; 'I' for Inactive)
REMARK    1  A    between atoms: O_2  and  C_28
REMARK    2  A    between atoms: N_4  and  C_15
REMARK    3  A    between atoms: C_10  and  C_16
REMARK    4  A    between atoms: C_15  and  C_17
REMARK    5  A    between atoms: C_21  and  C_25
REMARK    6  A    between atoms: C_24  and  C_28
REMARK                            x       y       z     vdW  Elec       q    Type
REMARK                         _______ _______ _______ _____ _____    ______ ____
ROOT
ATOM      4  N   UNL     1      12.851   8.315  19.365  0.00  0.00    -0.281 NA
ATOM      5  N   UNL     1      10.731   9.269  16.422  0.00  0.00    -0.347 N 
ATOM      6  N   UNL     1      12.619   9.044  15.246  0.00  0.00    -0.240 NA
ATOM     10  C   UNL     1      13.825   7.523  18.536  0.00  0.00    +0.152 C 
ATOM     11  C   UNL     1      14.078   8.172  17.128  0.00  0.00    +0.086 C 
ATOM     12  C   UNL     1      11.516   8.434  18.709  0.00  0.00    +0.140 C 
ATOM     13  C   UNL     1      11.668   8.788  17.283  0.00  0.00    +0.053 A 
ATOM     14  C   UNL     1      12.811   8.651  16.540  0.00  0.00    +0.065 A 
ATOM     18  C   UNL     1      11.352   9.408  15.205  0.00  0.00    +0.197 A 
ATOM     31  H   UNL     1       9.763   9.482  16.630  0.00  0.00    +0.167 HD
ENDROOT
BRANCH  10  16
ATOM      1  O   UNL     1      15.813   6.143  18.933  0.00  0.00    -0.336 OA
ATOM      7  N   UNL     1      15.834   8.103  20.018  0.00  0.00    -0.190 NA
ATOM      8  N   UNL     1      17.017   6.179  19.649  0.00  0.00    -0.056 NA
ATOM     16  C   UNL     1      15.178   7.313  19.204  0.00  0.00    +0.245 A 
ATOM     21  C   UNL     1      16.956   7.364  20.263  0.00  0.00    +0.202 A 
BRANCH  21  25
ATOM      9  N   UNL     1      20.027   8.768  22.809  0.00  0.00    -0.263 NA
ATOM     25  C   UNL     1      17.997   7.840  21.126  0.00  0.00    +0.025 A 
ATOM     26  C   UNL     1      18.084   9.193  21.436  0.00  0.00    +0.031 A 
ATOM     27  C   UNL     1      18.925   6.951  21.658  0.00  0.00    +0.031 A 
ATOM     29  C   UNL     1      19.108   9.602  22.274  0.00  0.00    +0.111 A 
ATOM     30  C   UNL     1      19.911   7.461  22.486  0.00  0.00    +0.111 A 
ENDBRANCH  21  25
ENDBRANCH  10  16
BRANCH   4  15
ATOM     15  C   UNL     1      12.654   7.735  20.701  0.00  0.00    +0.120 C 
BRANCH  15  17
ATOM     17  C   UNL     1      12.212   8.770  21.701  0.00  0.00    -0.033 A 
ATOM     19  C   UNL     1      10.975   8.645  22.334  0.00  0.00    +0.006 A 
ATOM     20  C   UNL     1      13.039   9.854  21.994  0.00  0.00    +0.006 A 
ATOM     22  C   UNL     1      10.567   9.603  23.262  0.00  0.00    +0.015 A 
ATOM     23  C   UNL     1      12.630  10.813  22.921  0.00  0.00    +0.015 A 
ATOM     24  C   UNL     1      11.394  10.687  23.554  0.00  0.00    +0.059 A 
BRANCH  24  28
ATOM      3  O   UNL     1      11.530  11.928  25.596  0.00  0.00    -0.245 OA
ATOM     28  C   UNL     1      10.968  11.687  24.521  0.00  0.00    +0.337 C 
BRANCH  28   2
ATOM      2  O   UNL     1       9.855  12.359  24.121  0.00  0.00    -0.477 OA
ATOM     32  H   UNL     1       9.086  12.170  24.701  0.00  0.00    +0.295 HD
ENDBRANCH  28   2
ENDBRANCH  24  28
ENDBRANCH  15  17
ENDBRANCH   4  15
TORSDOF 6
ENDMDL
MODEL 2
REMARK VINA RESULT:      -8.1      3.662      6.987
REMARK  Name = 26744874
REMARK  6 active torsions:
REMARK  status: ('A' for Active; 'I' for Inactive)
REMARK    1  A    between atoms: O_2  and  C_28
REMARK    2  A    between atoms: N_4  and  C_15
REMARK    3  A    between atoms: C_10  and  C_16
REMARK    4  A    between atoms: C_15  and  C_17
REMARK    5  A    between atoms: C_21  and  C_25
REMARK    6  A    between atoms: C_24  and  C_28
REMARK                            x       y       z     vdW  Elec       q    Type
REMARK                         _______ _______ _______ _____ _____    ______ ____
ROOT
ATOM      4  N   UNL     1      14.391   7.482  19.273  0.00  0.00    -0.281 NA
ATOM      5  N   UNL     1      11.861   6.633  21.908  0.00  0.00    -0.347 N 
ATOM      6  N   UNL     1      10.553   8.094  20.836  0.00  0.00    -0.240 NA
ATOM     10  C   UNL     1      13.352   7.848  18.249  0.00  0.00    +0.152 C 
ATOM     11  C   UNL     1      12.107   8.562  18.887  0.00  0.00    +0.086 C 
ATOM     12  C   UNL     1      13.859   6.553  20.312  0.00  0.00    +0.140 C 
ATOM     13  C   UNL     1      12.538   7.011  20.790  0.00  0.00    +0.053 A 
ATOM     14  C   UNL     1      11.716   7.898  20.147  0.00  0.00    +0.065 A 
ATOM     18  C   UNL     1      10.669   7.314  21.892  0.00  0.00    +0.197 A 
ATOM     31  H   UNL     1      12.169   5.976  22.615  0.00  0.00    +0.167 HD
ENDROOT
BRANCH  10  16
ATOM      1  O   UNL     1      13.836   8.214  15.872  0.00  0.00    -0.336 OA
ATOM      7  N   UNL     1      14.369   9.948  17.188  0.00  0.00    -0.190 NA
ATOM      8  N   UNL     1      14.361   9.199  15.026  0.00  0.00    -0.056 NA
ATOM     16  C   UNL     1      13.875   8.737  17.126  0.00  0.00    +0.245 A 
ATOM     21  C   UNL     1      14.652  10.189  15.874  0.00  0.00    +0.202 A 
BRANCH  21  25
ATOM      9  N   UNL     1      16.342  13.852  14.604  0.00  0.00    -0.263 NA
ATOM     25  C   UNL     1      15.225  11.431  15.444  0.00  0.00    +0.025 A 
ATOM     26  C   UNL     1      14.747  12.634  15.951  0.00  0.00    +0.031 A 
ATOM     27  C   UNL     1      16.262  11.438  14.516  0.00  0.00    +0.031 A 
ATOM     29  C   UNL     1      15.334  13.806  15.503  0.00  0.00    +0.111 A 
ATOM     30  C   UNL     1      16.781  12.663  14.133  0.00  0.00    +0.111 A 
ENDBRANCH  21  25
ENDBRANCH  10  16
BRANCH   4  15
ATOM     15  C   UNL     1      15.577   6.861  18.668  0.00  0.00    +0.120 C 
BRANCH  15  17
ATOM     17  C   UNL     1      16.754   6.869  19.607  0.00  0.00    -0.033 A 
ATOM     19  C   UNL     1      17.745   5.894  19.492  0.00  0.00    +0.006 A 
ATOM     20  C   UNL     1      16.853   7.852  20.592  0.00  0.00    +0.006 A 
ATOM     22  C   UNL     1      18.836   5.903  20.362  0.00  0.00    +0.015 A 
ATOM     23  C   UNL     1      17.944   7.860  21.462  0.00  0.00    +0.015 A 
ATOM     24  C   UNL     1      18.934   6.885  21.347  0.00  0.00    +0.059 A 
BRANCH  24  28
ATOM      3  O   UNL     1      21.225   7.223  21.953  0.00  0.00    -0.245 OA
ATOM     28  C   UNL     1      20.072   6.895  22.254  0.00  0.00    +0.337 C 
BRANCH  28   2
ATOM      2  O   UNL     1      19.738   6.496  23.511  0.00  0.00    -0.477 OA
ATOM     32  H   UNL     1      20.043   5.582  23.697  0.00  0.00    +0.295 HD
ENDBRANCH  28   2
ENDBRANCH  24  28
ENDBRANCH  15  17
ENDBRANCH   4  15
TORSDOF 6
ENDMDL
MODEL 3
REMARK VINA RESULT:      -7.7      2.854      7.096
REMARK  Name = 26744874
REMARK  6 active torsions:
REMARK  status: ('A' for Active; 'I' for Inactive)
REMARK    1  A    between atoms: O_2  and  C_28
REMARK    2  A    between atoms: N_4  and  C_15
REMARK    3  A    between atoms: C_10  and  C_16
REMARK    4  A    between atoms: C_15  and  C_17
REMARK    5  A    between atoms: C_21  and  C_25
REMARK    6  A    between atoms: C_24  and  C_28
REMARK                            x       y       z     vdW  Elec       q    Type
REMARK                         _______ _______ _______ _____ _____    ______ ____
ROOT
ATOM      4  N   UNL     1      16.867   7.103  20.399  0.00  0.00    -0.281 NA
ATOM      5  N   UNL     1      20.533   6.319  20.287  0.00  0.00    -0.347 N 
ATOM      6  N   UNL     1      20.792   8.374  21.126  0.00  0.00    -0.240 NA
ATOM     10  C   UNL     1      17.006   8.076  21.537  0.00  0.00    +0.152 C 
ATOM     11  C   UNL     1      18.334   8.909  21.454  0.00  0.00    +0.086 C 
ATOM     12  C   UNL     1      17.983   6.114  20.360  0.00  0.00    +0.140 C 
ATOM     13  C   UNL     1      19.283   6.792  20.544  0.00  0.00    +0.053 A 
ATOM     14  C   UNL     1      19.467   8.046  21.064  0.00  0.00    +0.065 A 
ATOM     18  C   UNL     1      21.409   7.309  20.653  0.00  0.00    +0.197 A 
ATOM     31  H   UNL     1      20.775   5.414  19.903  0.00  0.00    +0.167 HD
ENDROOT
BRANCH  10  16
ATOM      1  O   UNL     1      15.810  10.068  20.752  0.00  0.00    -0.336 OA
ATOM      7  N   UNL     1      14.861   9.074  22.522  0.00  0.00    -0.190 NA
ATOM      8  N   UNL     1      14.672  10.826  21.062  0.00  0.00    -0.056 NA
ATOM     16  C   UNL     1      15.845   9.056  21.659  0.00  0.00    +0.245 A 
ATOM     21  C   UNL     1      14.167  10.178  22.115  0.00  0.00    +0.202 A 
BRANCH  21  25
ATOM      9  N   UNL     1      10.642  11.436  24.084  0.00  0.00    -0.263 NA
ATOM     25  C   UNL     1      12.972  10.604  22.782  0.00  0.00    +0.025 A 
ATOM     26  C   UNL     1      13.020  11.647  23.702  0.00  0.00    +0.031 A 
ATOM     27  C   UNL     1      11.760   9.977  22.514  0.00  0.00    +0.031 A 
ATOM     29  C   UNL     1      11.838  12.022  24.319  0.00  0.00    +0.111 A 
ATOM     30  C   UNL     1      10.635  10.426  23.185  0.00  0.00    +0.111 A 
ENDBRANCH  21  25
ENDBRANCH  10  16
BRANCH   4  15
ATOM     15  C   UNL     1      15.600   6.360  20.450  0.00  0.00    +0.120 C 
BRANCH  15  17
ATOM     17  C   UNL     1      14.565   6.954  19.533  0.00  0.00    -0.033 A 
ATOM     19  C   UNL     1      14.930   7.392  18.260  0.00  0.00    +0.006 A 
ATOM     20  C   UNL     1      13.240   7.067  19.957  0.00  0.00    +0.006 A 
ATOM     22  C   UNL     1      13.969   7.941  17.410  0.00  0.00    +0.015 A 
ATOM     23  C   UNL     1      12.281   7.617  19.107  0.00  0.00    +0.015 A 
ATOM     24  C   UNL     1      12.646   8.054  17.834  0.00  0.00    +0.059 A 
BRANCH  24  28
ATOM      3  O   UNL     1      10.541   8.129  16.697  0.00  0.00    -0.245 OA
ATOM     28  C   UNL     1      11.644   8.627  16.948  0.00  0.00    +0.337 C 
BRANCH  28   2
ATOM      2  O   UNL     1      12.046   9.806  16.400  0.00  0.00    -0.477 OA
ATOM     32  H   UNL     1      12.994   9.787  16.147  0.00  0.00    +0.295 HD
ENDBRANCH  28   2
ENDBRANCH  24  28
ENDBRANCH  15  17
ENDBRANCH   4  15
TORSDOF 6
ENDMDL
MODEL 4
REMARK VINA RESULT:      -7.7      3.323      6.907
REMARK  Name = 26744874
REMARK  6 active torsions:
REMARK  status: ('A' for Active; 'I' for Inactive)
REMARK    1  A    between atoms: O_2  and  C_28
REMARK    2  A    between atoms: N_4  and  C_15
REMARK    3  A    between atoms: C_10  and  C_16
REMARK    4  A    between atoms: C_15  and  C_17
REMARK    5  A    between atoms: C_21  and  C_25
REMARK    6  A    between atoms: C_24  and  C_28
REMARK                            x       y       z     vdW  Elec       q    Type
REMARK                         _______ _______ _______ _____ _____    ______ ____
ROOT
ATOM      4  N   UNL     1      12.684   8.883  21.080  0.00  0.00    -0.281 NA
ATOM      5  N   UNL     1      11.091  10.270  24.179  0.00  0.00    -0.347 N 
ATOM      6  N   UNL     1      11.124  12.216  23.081  0.00  0.00    -0.240 NA
ATOM     10  C   UNL     1      12.075   9.922  20.179  0.00  0.00    +0.152 C 
ATOM     11  C   UNL     1      11.985  11.332  20.865  0.00  0.00    +0.086 C 
ATOM     12  C   UNL     1      11.900   8.692  22.334  0.00  0.00    +0.140 C 
ATOM     13  C   UNL     1      11.534   9.997  22.921  0.00  0.00    +0.053 A 
ATOM     14  C   UNL     1      11.539  11.201  22.267  0.00  0.00    +0.065 A 
ATOM     18  C   UNL     1      10.857  11.622  24.227  0.00  0.00    +0.197 A 
ATOM     31  H   UNL     1      10.955   9.609  24.934  0.00  0.00    +0.167 HD
ENDROOT
BRANCH  10  16
ATOM      1  O   UNL     1      12.331   9.370  17.803  0.00  0.00    -0.336 OA
ATOM      7  N   UNL     1      13.835  10.846  18.562  0.00  0.00    -0.190 NA
ATOM      8  N   UNL     1      13.149   9.690  16.711  0.00  0.00    -0.056 NA
ATOM     16  C   UNL     1      12.803  10.094  18.851  0.00  0.00    +0.245 A 
ATOM     21  C   UNL     1      14.011  10.565  17.238  0.00  0.00    +0.202 A 
BRANCH  21  25
ATOM      9  N   UNL     1      17.093  12.367  14.972  0.00  0.00    -0.263 NA
ATOM     25  C   UNL     1      15.056  11.176  16.470  0.00  0.00    +0.025 A 
ATOM     26  C   UNL     1      15.258  10.804  15.145  0.00  0.00    +0.031 A 
ATOM     27  C   UNL     1      15.873  12.143  17.046  0.00  0.00    +0.031 A 
ATOM     29  C   UNL     1      16.280  11.425  14.446  0.00  0.00    +0.111 A 
ATOM     30  C   UNL     1      16.867  12.703  16.262  0.00  0.00    +0.111 A 
ENDBRANCH  21  25
ENDBRANCH  10  16
BRANCH   4  15
ATOM     15  C   UNL     1      12.815   7.577  20.418  0.00  0.00    +0.120 C 
BRANCH  15  17
ATOM     17  C   UNL     1      14.255   7.165  20.272  0.00  0.00    -0.033 A 
ATOM     19  C   UNL     1      14.782   6.910  19.006  0.00  0.00    +0.006 A 
ATOM     20  C   UNL     1      15.062   7.038  21.402  0.00  0.00    +0.006 A 
ATOM     22  C   UNL     1      16.118   6.529  18.871  0.00  0.00    +0.015 A 
ATOM     23  C   UNL     1      16.397   6.657  21.267  0.00  0.00    +0.015 A 
ATOM     24  C   UNL     1      16.924   6.402  20.001  0.00  0.00    +0.059 A 
BRANCH  24  28
ATOM      3  O   UNL     1      19.267   6.496  20.482  0.00  0.00    -0.245 OA
ATOM     28  C   UNL     1      18.317   6.005  19.861  0.00  0.00    +0.337 C 
BRANCH  28   2
ATOM      2  O   UNL     1      18.485   5.008  18.951  0.00  0.00    -0.477 OA
ATOM     32  H   UNL     1      18.816   5.349  18.092  0.00  0.00    +0.295 HD
ENDBRANCH  28   2
ENDBRANCH  24  28
ENDBRANCH  15  17
ENDBRANCH   4  15
TORSDOF 6
ENDMDL
MODEL 5
REMARK VINA RESULT:      -7.3      3.000      6.959
REMARK  Name = 26744874
REMARK  6 active torsions:
REMARK  status: ('A' for Active; 'I' for Inactive)
REMARK    1  A    between atoms: O_2  and  C_28
REMARK    2  A    between atoms: N_4  and  C_15
REMARK    3  A    between atoms: C_10  and  C_16
REMARK    4  A    between atoms: C_15  and  C_17
REMARK    5  A    between atoms: C_21  and  C_25
REMARK    6  A    between atoms: C_24  and  C_28
REMARK                            x       y       z     vdW  Elec       q    Type
REMARK                         _______ _______ _______ _____ _____    ______ ____
ROOT
ATOM      4  N   UNL     1      12.164   9.895  22.320  0.00  0.00    -0.281 NA
ATOM      5  N   UNL     1      10.595  11.855  25.106  0.00  0.00    -0.347 N 
ATOM      6  N   UNL     1      11.584  13.618  24.152  0.00  0.00    -0.240 NA
ATOM     10  C   UNL     1      12.191  11.066  21.376  0.00  0.00    +0.152 C 
ATOM     11  C   UNL     1      12.495  12.420  22.110  0.00  0.00    +0.086 C 
ATOM     12  C   UNL     1      11.121  10.045  23.376  0.00  0.00    +0.140 C 
ATOM     13  C   UNL     1      11.156  11.405  23.951  0.00  0.00    +0.053 A 
ATOM     14  C   UNL     1      11.749  12.502  23.382  0.00  0.00    +0.065 A 
ATOM     18  C   UNL     1      10.880  13.196  25.184  0.00  0.00    +0.197 A 
ATOM     31  H   UNL     1      10.066  11.313  25.778  0.00  0.00    +0.167 HD
ENDROOT
BRANCH  10  16
ATOM      1  O   UNL     1      14.500  11.117  20.548  0.00  0.00    -0.336 OA
ATOM      7  N   UNL     1      12.980  10.624  18.977  0.00  0.00    -0.190 NA
ATOM      8  N   UNL     1      15.215  10.931  19.357  0.00  0.00    -0.056 NA
ATOM     16  C   UNL     1      13.192  10.918  20.236  0.00  0.00    +0.245 A 
ATOM     21  C   UNL     1      14.250  10.644  18.479  0.00  0.00    +0.202 A 
BRANCH  21  25
ATOM      9  N   UNL     1      15.050   9.837  14.405  0.00  0.00    -0.263 NA
ATOM     25  C   UNL     1      14.521  10.370  17.098  0.00  0.00    +0.025 A 
ATOM     26  C   UNL     1      14.146   9.153  16.540  0.00  0.00    +0.031 A 
ATOM     27  C   UNL     1      15.162  11.321  16.310  0.00  0.00    +0.031 A 
ATOM     29  C   UNL     1      14.430   8.938  15.201  0.00  0.00    +0.111 A 
ATOM     30  C   UNL     1      15.400  11.009  14.982  0.00  0.00    +0.111 A 
ENDBRANCH  21  25
ENDBRANCH  10  16
BRANCH   4  15
ATOM     15  C   UNL     1      11.931   8.622  21.625  0.00  0.00    +0.120 C 
BRANCH  15  17
ATOM     17  C   UNL     1      13.219   7.985  21.176  0.00  0.00    -0.033 A 
ATOM     19  C   UNL     1      13.289   7.351  19.936  0.00  0.00    +0.006 A 
ATOM     20  C   UNL     1      14.343   8.030  22.001  0.00  0.00    +0.006 A 
ATOM     22  C   UNL     1      14.483   6.762  19.520  0.00  0.00    +0.015 A 
ATOM     23  C   UNL     1      15.537   7.441  21.585  0.00  0.00    +0.015 A 
ATOM     24  C   UNL     1      15.607   6.806  20.345  0.00  0.00    +0.059 A 
BRANCH  24  28
ATOM      3  O   UNL     1      17.928   6.251  20.519  0.00  0.00    -0.245 OA
ATOM     28  C   UNL     1      16.853   6.193  19.912  0.00  0.00    +0.337 C 
BRANCH  28   2
ATOM      2  O   UNL     1      16.722   5.523  18.735  0.00  0.00    -0.477 OA
ATOM     32  H   UNL     1      16.773   6.127  17.964  0.00  0.00    +0.295 HD
ENDBRANCH  28   2
ENDBRANCH  24  28
ENDBRANCH  15  17
ENDBRANCH   4  15
TORSDOF 6
ENDMDL
MODEL 6
REMARK VINA RESULT:      -7.1     14.048     19.413
REMARK  Name = 26744874
REMARK  6 active torsions:
REMARK  status: ('A' for Active; 'I' for Inactive)
REMARK    1  A    between atoms: O_2  and  C_28
REMARK    2  A    between atoms: N_4  and  C_15
REMARK    3  A    between atoms: C_10  and  C_16
REMARK    4  A    between atoms: C_15  and  C_17
REMARK    5  A    between atoms: C_21  and  C_25
REMARK    6  A    between atoms: C_24  and  C_28
REMARK                            x       y       z     vdW  Elec       q    Type
REMARK                         _______ _______ _______ _____ _____    ______ ____
ROOT
ATOM      4  N   UNL     1       9.945   5.652   4.719  0.00  0.00    -0.281 NA
ATOM      5  N   UNL     1      10.128   3.913   8.036  0.00  0.00    -0.347 N 
ATOM      6  N   UNL     1       9.344   5.837   8.860  0.00  0.00    -0.240 NA
ATOM     10  C   UNL     1       8.833   6.570   5.147  0.00  0.00    +0.152 C 
ATOM     11  C   UNL     1       8.969   7.016   6.647  0.00  0.00    +0.086 C 
ATOM     12  C   UNL     1       9.988   4.400   5.529  0.00  0.00    +0.140 C 
ATOM     13  C   UNL     1       9.851   4.707   6.967  0.00  0.00    +0.053 A 
ATOM     14  C   UNL     1       9.366   5.875   7.495  0.00  0.00    +0.065 A 
ATOM     18  C   UNL     1       9.807   4.638   9.157  0.00  0.00    +0.197 A 
ATOM     31  H   UNL     1      10.497   2.970   8.016  0.00  0.00    +0.167 HD
ENDROOT
BRANCH  10  16
ATOM      1  O   UNL     1       9.799   8.632   4.236  0.00  0.00    -0.336 OA
ATOM      7  N   UNL     1       7.683   8.260   3.601  0.00  0.00    -0.190 NA
ATOM      8  N   UNL     1       9.446   9.706   3.408  0.00  0.00    -0.056 NA
ATOM     16  C   UNL     1       8.706   7.828   4.295  0.00  0.00    +0.245 A 
ATOM     21  C   UNL     1       8.185   9.415   3.074  0.00  0.00    +0.202 A 
BRANCH  21  25
ATOM      9  N   UNL     1       5.872  11.893   0.546  0.00  0.00    -0.263 NA
ATOM     25  C   UNL     1       7.401  10.255   2.217  0.00  0.00    +0.025 A 
ATOM     26  C   UNL     1       7.540  11.638   2.276  0.00  0.00    +0.031 A 
ATOM     27  C   UNL     1       6.496   9.691   1.323  0.00  0.00    +0.031 A 
ATOM     29  C   UNL     1       6.760  12.405   1.427  0.00  0.00    +0.111 A 
ATOM     30  C   UNL     1       5.763  10.546   0.517  0.00  0.00    +0.111 A 
ENDBRANCH  21  25
ENDBRANCH  10  16
BRANCH   4  15
ATOM     15  C   UNL     1       9.844   5.277   3.301  0.00  0.00    +0.120 C 
BRANCH  15  17
ATOM     17  C   UNL     1      11.179   4.873   2.733  0.00  0.00    -0.033 A 
ATOM     19  C   UNL     1      12.223   5.796   2.683  0.00  0.00    +0.006 A 
ATOM     20  C   UNL     1      11.371   3.576   2.258  0.00  0.00    +0.006 A 
ATOM     22  C   UNL     1      13.460   5.421   2.157  0.00  0.00    +0.015 A 
ATOM     23  C   UNL     1      12.607   3.201   1.732  0.00  0.00    +0.015 A 
ATOM     24  C   UNL     1      13.651   4.124   1.681  0.00  0.00    +0.059 A 
BRANCH  24  28
ATOM      3  O   UNL     1      15.310   3.921  -0.031  0.00  0.00    -0.245 OA
ATOM     28  C   UNL     1      14.941   3.733   1.133  0.00  0.00    +0.337 C 
BRANCH  28   2
ATOM      2  O   UNL     1      15.733   3.118   2.053  0.00  0.00    -0.477 OA
ATOM     32  H   UNL     1      15.765   2.147   1.916  0.00  0.00    +0.295 HD
ENDBRANCH  28   2
ENDBRANCH  24  28
ENDBRANCH  15  17
ENDBRANCH   4  15
TORSDOF 6
ENDMDL
MODEL 7
REMARK VINA RESULT:      -7.0     27.511     29.859
REMARK  Name = 26744874
REMARK  6 active torsions:
REMARK  status: ('A' for Active; 'I' for Inactive)
REMARK    1  A    between atoms: O_2  and  C_28
REMARK    2  A    between atoms: N_4  and  C_15
REMARK    3  A    between atoms: C_10  and  C_16
REMARK    4  A    between atoms: C_15  and  C_17
REMARK    5  A    between atoms: C_21  and  C_25
REMARK    6  A    between atoms: C_24  and  C_28
REMARK                            x       y       z     vdW  Elec       q    Type
REMARK                         _______ _______ _______ _____ _____    ______ ____
ROOT
ATOM      4  N   UNL     1      -5.887 -10.831  15.830  0.00  0.00    -0.281 NA
ATOM      5  N   UNL     1      -2.487 -10.304  14.335  0.00  0.00    -0.347 N 
ATOM      6  N   UNL     1      -1.738 -10.722  16.399  0.00  0.00    -0.240 NA
ATOM     10  C   UNL     1      -5.381 -11.747  16.910  0.00  0.00    +0.152 C 
ATOM     11  C   UNL     1      -3.969 -11.319  17.447  0.00  0.00    +0.086 C 
ATOM     12  C   UNL     1      -4.978 -10.796  14.646  0.00  0.00    +0.140 C 
ATOM     13  C   UNL     1      -3.572 -10.661  15.076  0.00  0.00    +0.053 A 
ATOM     14  C   UNL     1      -3.088 -10.919  16.331  0.00  0.00    +0.065 A 
ATOM     18  C   UNL     1      -1.404 -10.355  15.177  0.00  0.00    +0.197 A 
ATOM     31  H   UNL     1      -2.475 -10.052  13.355  0.00  0.00    +0.167 HD
ENDROOT
BRANCH  10  16
ATOM      1  O   UNL     1      -6.043 -11.077  19.175  0.00  0.00    -0.336 OA
ATOM      7  N   UNL     1      -7.367 -12.638  18.264  0.00  0.00    -0.190 NA
ATOM      8  N   UNL     1      -7.024 -11.364  20.133  0.00  0.00    -0.056 NA
ATOM     16  C   UNL     1      -6.318 -11.870  18.106  0.00  0.00    +0.245 A 
ATOM     21  C   UNL     1      -7.766 -12.292  19.523  0.00  0.00    +0.202 A 
BRANCH  21  25
ATOM      9  N   UNL     1     -11.146 -14.064  21.346  0.00  0.00    -0.263 NA
ATOM     25  C   UNL     1      -8.912 -12.893  20.141  0.00  0.00    +0.025 A 
ATOM     26  C   UNL     1      -8.807 -14.142  20.743  0.00  0.00    +0.031 A 
ATOM     27  C   UNL     1     -10.135 -12.230  20.140  0.00  0.00    +0.031 A 
ATOM     29  C   UNL     1      -9.942 -14.679  21.327  0.00  0.00    +0.111 A 
ATOM     30  C   UNL     1     -11.211 -12.852  20.751  0.00  0.00    +0.111 A 
ENDBRANCH  21  25
ENDBRANCH  10  16
BRANCH   4  15
ATOM     15  C   UNL     1      -7.230 -11.202  15.365  0.00  0.00    +0.120 C 
BRANCH  15  17
ATOM     17  C   UNL     1      -8.209 -10.069  15.519  0.00  0.00    -0.033 A 
ATOM     19  C   UNL     1      -9.069  -9.743  14.470  0.00  0.00    +0.006 A 
ATOM     20  C   UNL     1      -8.257  -9.347  16.711  0.00  0.00    +0.006 A 
ATOM     22  C   UNL     1      -9.977  -8.693  14.615  0.00  0.00    +0.015 A 
ATOM     23  C   UNL     1      -9.165  -8.298  16.855  0.00  0.00    +0.015 A 
ATOM     24  C   UNL     1     -10.024  -7.971  15.806  0.00  0.00    +0.059 A 
BRANCH  24  28
ATOM      3  O   UNL     1     -12.145  -6.992  16.328  0.00  0.00    -0.245 OA
ATOM     28  C   UNL     1     -10.971  -6.877  15.957  0.00  0.00    +0.337 C 
BRANCH  28   2
ATOM      2  O   UNL     1     -10.427  -5.670  15.642  0.00  0.00    -0.477 OA
ATOM     32  H   UNL     1      -9.541  -5.765  15.230  0.00  0.00    +0.295 HD
ENDBRANCH  28   2
ENDBRANCH  24  28
ENDBRANCH  15  17
ENDBRANCH   4  15
TORSDOF 6
ENDMDL
MODEL 8
REMARK VINA RESULT:      -6.9     30.096     32.595
REMARK  Name = 26744874
REMARK  6 active torsions:
REMARK  status: ('A' for Active; 'I' for Inactive)
REMARK    1  A    between atoms: O_2  and  C_28
REMARK    2  A    between atoms: N_4  and  C_15
REMARK    3  A    between atoms: C_10  and  C_16
REMARK    4  A    between atoms: C_15  and  C_17
REMARK    5  A    between atoms: C_21  and  C_25
REMARK    6  A    between atoms: C_24  and  C_28
REMARK                            x       y       z     vdW  Elec       q    Type
REMARK                         _______ _______ _______ _____ _____    ______ ____
ROOT
ATOM      4  N   UNL     1     -14.359   5.770  32.600  0.00  0.00    -0.281 NA
ATOM      5  N   UNL     1     -12.800   9.173  32.827  0.00  0.00    -0.347 N 
ATOM      6  N   UNL     1     -14.403   9.781  31.393  0.00  0.00    -0.240 NA
ATOM     10  C   UNL     1     -15.725   6.306  32.267  0.00  0.00    +0.152 C 
ATOM     11  C   UNL     1     -15.661   7.580  31.351  0.00  0.00    +0.086 C 
ATOM     12  C   UNL     1     -13.520   6.769  33.323  0.00  0.00    +0.140 C 
ATOM     13  C   UNL     1     -13.611   8.092  32.673  0.00  0.00    +0.053 A 
ATOM     14  C   UNL     1     -14.588   8.490  31.798  0.00  0.00    +0.065 A 
ATOM     18  C   UNL     1     -13.317  10.167  32.035  0.00  0.00    +0.197 A 
ATOM     31  H   UNL     1     -11.976   9.238  33.413  0.00  0.00    +0.167 HD
ENDROOT
BRANCH  10  16
ATOM      1  O   UNL     1     -17.807   5.010  32.234  0.00  0.00    -0.336 OA
ATOM      7  N   UNL     1     -16.473   4.635  30.474  0.00  0.00    -0.190 NA
ATOM      8  N   UNL     1     -18.469   4.066  31.437  0.00  0.00    -0.056 NA
ATOM     16  C   UNL     1     -16.642   5.291  31.594  0.00  0.00    +0.245 A 
ATOM     21  C   UNL     1     -17.620   3.897  30.419  0.00  0.00    +0.202 A 
BRANCH  21  25
ATOM      9  N   UNL     1     -18.408   1.252  27.215  0.00  0.00    -0.263 NA
ATOM     25  C   UNL     1     -17.887   3.000  29.333  0.00  0.00    +0.025 A 
ATOM     26  C   UNL     1     -16.879   2.179  28.840  0.00  0.00    +0.031 A 
ATOM     27  C   UNL     1     -19.157   2.947  28.767  0.00  0.00    +0.031 A 
ATOM     29  C   UNL     1     -17.188   1.330  27.790  0.00  0.00    +0.111 A 
ATOM     30  C   UNL     1     -19.364   2.064  27.720  0.00  0.00    +0.111 A 
ENDBRANCH  21  25
ENDBRANCH  10  16
BRANCH   4  15
ATOM     15  C   UNL     1     -14.422   4.549  33.414  0.00  0.00    +0.120 C 
BRANCH  15  17
ATOM     17  C   UNL     1     -14.310   3.306  32.571  0.00  0.00    -0.033 A 
ATOM     19  C   UNL     1     -13.524   3.313  31.420  0.00  0.00    +0.006 A 
ATOM     20  C   UNL     1     -14.994   2.148  32.942  0.00  0.00    +0.006 A 
ATOM     22  C   UNL     1     -13.420   2.161  30.640  0.00  0.00    +0.015 A 
ATOM     23  C   UNL     1     -14.891   0.997  32.162  0.00  0.00    +0.015 A 
ATOM     24  C   UNL     1     -14.104   1.004  31.011  0.00  0.00    +0.059 A 
BRANCH  24  28
ATOM      3  O   UNL     1     -14.945  -0.889  29.812  0.00  0.00    -0.245 OA
ATOM     28  C   UNL     1     -13.996  -0.197  30.197  0.00  0.00    +0.337 C 
BRANCH  28   2
ATOM      2  O   UNL     1     -12.706  -0.503  29.888  0.00  0.00    -0.477 OA
ATOM     32  H   UNL     1     -12.640  -0.989  29.038  0.00  0.00    +0.295 HD
ENDBRANCH  28   2
ENDBRANCH  24  28
ENDBRANCH  15  17
ENDBRANCH   4  15
TORSDOF 6
ENDMDL
MODEL 9
REMARK VINA RESULT:      -6.8      3.298      6.384
REMARK  Name = 26744874
REMARK  6 active torsions:
REMARK  status: ('A' for Active; 'I' for Inactive)
REMARK    1  A    between atoms: O_2  and  C_28
REMARK    2  A    between atoms: N_4  and  C_15
REMARK    3  A    between atoms: C_10  and  C_16
REMARK    4  A    between atoms: C_15  and  C_17
REMARK    5  A    between atoms: C_21  and  C_25
REMARK    6  A    between atoms: C_24  and  C_28
REMARK                            x       y       z     vdW  Elec       q    Type
REMARK                         _______ _______ _______ _____ _____    ______ ____
ROOT
ATOM      4  N   UNL     1      13.523  11.950  21.505  0.00  0.00    -0.281 NA
ATOM      5  N   UNL     1      10.852  12.977  23.929  0.00  0.00    -0.347 N 
ATOM      6  N   UNL     1      11.921  11.637  25.363  0.00  0.00    -0.240 NA
ATOM     10  C   UNL     1      14.538  11.680  22.582  0.00  0.00    +0.152 C 
ATOM     11  C   UNL     1      13.892  11.064  23.874  0.00  0.00    +0.086 C 
ATOM     12  C   UNL     1      12.470  12.909  21.949  0.00  0.00    +0.140 C 
ATOM     13  C   UNL     1      11.981  12.556  23.297  0.00  0.00    +0.053 A 
ATOM     14  C   UNL     1      12.622  11.745  24.196  0.00  0.00    +0.065 A 
ATOM     18  C   UNL     1      10.859  12.395  25.172  0.00  0.00    +0.197 A 
ATOM     31  H   UNL     1      10.143  13.599  23.561  0.00  0.00    +0.167 HD
ENDROOT
BRANCH  10  16
ATOM      1  O   UNL     1      16.937  11.220  22.356  0.00  0.00    -0.336 OA
ATOM      7  N   UNL     1      15.620   9.581  21.585  0.00  0.00    -0.190 NA
ATOM      8  N   UNL     1      17.796  10.221  21.880  0.00  0.00    -0.056 NA
ATOM     16  C   UNL     1      15.675  10.763  22.145  0.00  0.00    +0.245 A 
ATOM     21  C   UNL     1      16.945   9.288  21.442  0.00  0.00    +0.202 A 
BRANCH  21  25
ATOM      9  N   UNL     1      18.245   5.651  19.719  0.00  0.00    -0.263 NA
ATOM     25  C   UNL     1      17.386   8.055  20.858  0.00  0.00    +0.025 A 
ATOM     26  C   UNL     1      18.639   7.542  21.172  0.00  0.00    +0.031 A 
ATOM     27  C   UNL     1      16.562   7.367  19.974  0.00  0.00    +0.031 A 
ATOM     29  C   UNL     1      19.018   6.348  20.582  0.00  0.00    +0.111 A 
ATOM     30  C   UNL     1      17.033   6.181  19.437  0.00  0.00    +0.111 A 
ENDBRANCH  21  25
ENDBRANCH  10  16
BRANCH   4  15
ATOM     15  C   UNL     1      14.137  12.479  20.279  0.00  0.00    +0.120 C 
BRANCH  15  17
ATOM     17  C   UNL     1      13.832  11.616  19.084  0.00  0.00    -0.033 A 
ATOM     19  C   UNL     1      13.075  10.455  19.236  0.00  0.00    +0.006 A 
ATOM     20  C   UNL     1      14.307  11.978  17.823  0.00  0.00    +0.006 A 
ATOM     22  C   UNL     1      12.792   9.656  18.128  0.00  0.00    +0.015 A 
ATOM     23  C   UNL     1      14.025  11.179  16.715  0.00  0.00    +0.015 A 
ATOM     24  C   UNL     1      13.268  10.018  16.868  0.00  0.00    +0.059 A 
BRANCH  24  28
ATOM      3  O   UNL     1      11.857   9.042  15.200  0.00  0.00    -0.245 OA
ATOM     28  C   UNL     1      12.973   9.186  15.712  0.00  0.00    +0.337 C 
BRANCH  28   2
ATOM      2  O   UNL     1      14.078   8.559  15.226  0.00  0.00    -0.477 OA
ATOM     32  H   UNL     1      13.898   7.619  15.009  0.00  0.00    +0.295 HD
ENDBRANCH  28   2
ENDBRANCH  24  28
ENDBRANCH  15  17
ENDBRANCH   4  15
TORSDOF 6
ENDMDL
MODEL 10
REMARK VINA RESULT:      -6.8     13.843     18.314
REMARK  Name = 26744874
REMARK  6 active torsions:
REMARK  status: ('A' for Active; 'I' for Inactive)
REMARK    1  A    between atoms: O_2  and  C_28
REMARK    2  A    between atoms: N_4  and  C_15
REMARK    3  A    between atoms: C_10  and  C_16
REMARK    4  A    between atoms: C_15  and  C_17
REMARK    5  A    between atoms: C_21  and  C_25
REMARK    6  A    between atoms: C_24  and  C_28
REMARK                            x       y       z     vdW  Elec       q    Type
REMARK                         _______ _______ _______ _____ _____    ______ ____
ROOT
ATOM      4  N   UNL     1       9.590   7.265   6.180  0.00  0.00    -0.281 NA
ATOM      5  N   UNL     1       8.799   5.872   9.571  0.00  0.00    -0.347 N 
ATOM      6  N   UNL     1       9.737   3.997   8.797  0.00  0.00    -0.240 NA
ATOM     10  C   UNL     1      10.759   6.345   5.962  0.00  0.00    +0.152 C 
ATOM     11  C   UNL     1      10.515   4.914   6.564  0.00  0.00    +0.086 C 
ATOM     12  C   UNL     1       9.287   7.463   7.627  0.00  0.00    +0.140 C 
ATOM     13  C   UNL     1       9.300   6.170   8.341  0.00  0.00    +0.053 A 
ATOM     14  C   UNL     1       9.875   5.010   7.891  0.00  0.00    +0.065 A 
ATOM     18  C   UNL     1       9.087   4.550   9.802  0.00  0.00    +0.197 A 
ATOM     31  H   UNL     1       8.312   6.500  10.199  0.00  0.00    +0.167 HD
ENDROOT
BRANCH  10  16
ATOM      1  O   UNL     1      12.342   6.708   4.124  0.00  0.00    -0.336 OA
ATOM      7  N   UNL     1      10.498   5.586   3.528  0.00  0.00    -0.190 NA
ATOM      8  N   UNL     1      12.479   6.431   2.758  0.00  0.00    -0.056 NA
ATOM     16  C   UNL     1      11.150   6.175   4.499  0.00  0.00    +0.245 A 
ATOM     21  C   UNL     1      11.353   5.768   2.480  0.00  0.00    +0.202 A 
BRANCH  21  25
ATOM      9  N   UNL     1      10.466   4.311  -1.390  0.00  0.00    -0.263 NA
ATOM     25  C   UNL     1      11.052   5.274   1.168  0.00  0.00    +0.025 A 
ATOM     26  C   UNL     1      10.026   5.847   0.424  0.00  0.00    +0.031 A 
ATOM     27  C   UNL     1      11.785   4.220   0.633  0.00  0.00    +0.031 A 
ATOM     29  C   UNL     1       9.775   5.334  -0.838  0.00  0.00    +0.111 A 
ATOM     30  C   UNL     1      11.455   3.780  -0.638  0.00  0.00    +0.111 A 
ENDBRANCH  21  25
ENDBRANCH  10  16
BRANCH   4  15
ATOM     15  C   UNL     1       9.798   8.586   5.572  0.00  0.00    +0.120 C 
BRANCH  15  17
ATOM     17  C   UNL     1       8.690   8.945   4.618  0.00  0.00    -0.033 A 
ATOM     19  C   UNL     1       7.565   9.627   5.082  0.00  0.00    +0.006 A 
ATOM     20  C   UNL     1       8.789   8.597   3.271  0.00  0.00    +0.006 A 
ATOM     22  C   UNL     1       6.538   9.960   4.197  0.00  0.00    +0.015 A 
ATOM     23  C   UNL     1       7.763   8.930   2.387  0.00  0.00    +0.015 A 
ATOM     24  C   UNL     1       6.638   9.611   2.851  0.00  0.00    +0.059 A 
BRANCH  24  28
ATOM      3  O   UNL     1       5.712  10.205   0.726  0.00  0.00    -0.245 OA
ATOM     28  C   UNL     1       5.568   9.959   1.928  0.00  0.00    +0.337 C 
BRANCH  28   2
ATOM      2  O   UNL     1       4.349   9.988   2.532  0.00  0.00    -0.477 OA
ATOM     32  H   UNL     1       3.711   9.383   2.096  0.00  0.00    +0.295 HD
ENDBRANCH  28   2
ENDBRANCH  24  28
ENDBRANCH  15  17
ENDBRANCH   4  15
TORSDOF 6
ENDMDL
