MODEL 1
REMARK VINA RESULT:      -7.0      0.000      0.000
REMARK  Name = 45361548
REMARK  10 active torsions:
REMARK  status: ('A' for Active; 'I' for Inactive)
REMARK    1  A    between atoms: O_1  and  C_12
REMARK    2  A    between atoms: N_4  and  C_16
REMARK    3  A    between atoms: N_5  and  C_26
REMARK    4  A    between atoms: C_9  and  C_19
REMARK    5  A    between atoms: C_11  and  C_21
REMARK    6  A    between atoms: C_15  and  C_20
REMARK    7  A    between atoms: C_20  and  C_22
REMARK    8  A    between atoms: C_20  and  C_23
REMARK    9  A    between atoms: C_24  and  C_25
REMARK   10  A    between atoms: C_26  and  C_28
REMARK                            x       y       z     vdW  Elec       q    Type
REMARK                         _______ _______ _______ _____ _____    ______ ____
ROOT
ATOM      9  C   UNL     1     -15.013   7.596  20.548  0.00  0.00    -0.027 C 
ATOM     10  C   UNL     1     -13.784   6.672  20.840  0.00  0.00    +0.028 C 
ATOM     11  C   UNL     1     -13.964   5.915  22.203  0.00  0.00    +0.012 C 
ATOM     12  C   UNL     1     -12.445   7.447  20.677  0.00  0.00    +0.122 C 
ATOM     13  C   UNL     1     -14.856   8.237  19.150  0.00  0.00    +0.007 C 
ATOM     14  C   UNL     1     -16.297   6.737  20.531  0.00  0.00    +0.009 C 
ATOM     15  C   UNL     1     -12.338   8.173  19.316  0.00  0.00    +0.029 C 
ATOM     16  C   UNL     1     -15.296   5.114  22.203  0.00  0.00    +0.076 C 
ATOM     17  C   UNL     1     -13.565   9.030  19.000  0.00  0.00    +0.007 C 
ATOM     18  C   UNL     1     -16.513   5.956  21.820  0.00  0.00    +0.023 C 
ATOM     19  C   UNL     1     -15.169   8.725  21.598  0.00  0.00    +0.011 C 
ATOM     21  C   UNL     1     -12.803   4.965  22.539  0.00  0.00    +0.010 C 
ENDROOT
BRANCH  16   4
ATOM      3  O   UNL     1     -16.472   2.535  22.663  0.00  0.00    -0.268 OA
ATOM      4  N   UNL     1     -15.553   4.497  23.488  0.00  0.00    -0.307 N 
ATOM     24  C   UNL     1     -16.126   3.243  23.606  0.00  0.00    +0.264 C 
ATOM     35  H   UNL     1     -15.353   5.033  24.328  0.00  0.00    +0.149 HD
BRANCH  24  25
ATOM      6  N   UNL     1     -16.555   1.439  25.149  0.00  0.00    -0.247 NA
ATOM      7  N   UNL     1     -16.543   3.206  27.328  0.00  0.00    -0.259 NA
ATOM     25  C   UNL     1     -16.347   2.762  24.994  0.00  0.00    +0.143 A 
ATOM     27  C   UNL     1     -16.342   3.630  26.064  0.00  0.00    +0.143 A 
ATOM     29  C   UNL     1     -16.758   1.016  26.412  0.00  0.00    +0.131 A 
ATOM     32  C   UNL     1     -16.752   1.883  27.482  0.00  0.00    +0.130 A 
ENDBRANCH  24  25
ENDBRANCH  16   4
BRANCH  12   1
ATOM      1  O   UNL     1     -11.352   6.529  20.737  0.00  0.00    -0.391 OA
ATOM     36  H   UNL     1     -11.636   5.695  20.325  0.00  0.00    +0.210 HD
ENDBRANCH  12   1
BRANCH  15  20
ATOM     20  C   UNL     1     -11.073   9.035  19.227  0.00  0.00    +0.077 C 
ATOM     22  C   UNL     1     -11.288  10.356  19.958  0.00  0.00    +0.017 C 
BRANCH  20  23
ATOM      2  O   UNL     1     -10.269  10.336  17.348  0.00  0.00    -0.276 OA
ATOM      5  N   UNL     1     -10.905   8.135  16.984  0.00  0.00    -0.311 N 
ATOM     23  C   UNL     1     -10.700   9.263  17.766  0.00  0.00    +0.216 C 
ATOM     37  H   UNL     1     -11.214   7.270  17.413  0.00  0.00    +0.149 HD
BRANCH   5  26
ATOM     26  C   UNL     1     -10.625   8.106  15.567  0.00  0.00    +0.141 C 
BRANCH  26  28
ATOM      8  N   UNL     1     -12.831   8.924  12.606  0.00  0.00    -0.263 NA
ATOM     28  C   UNL     1     -11.856   8.362  14.746  0.00  0.00    -0.012 A 
ATOM     30  C   UNL     1     -13.124   8.290  15.313  0.00  0.00    +0.008 A 
ATOM     31  C   UNL     1     -11.764   8.680  13.400  0.00  0.00    +0.115 A 
ATOM     33  C   UNL     1     -14.245   8.535  14.528  0.00  0.00    +0.020 A 
ATOM     34  C   UNL     1     -14.047   8.844  13.192  0.00  0.00    +0.111 A 
ENDBRANCH  26  28
ENDBRANCH   5  26
ENDBRANCH  20  23
ENDBRANCH  15  20
TORSDOF 7
ENDMDL
MODEL 2
REMARK VINA RESULT:      -6.8     18.183     19.504
REMARK  Name = 45361548
REMARK  10 active torsions:
REMARK  status: ('A' for Active; 'I' for Inactive)
REMARK    1  A    between atoms: O_1  and  C_12
REMARK    2  A    between atoms: N_4  and  C_16
REMARK    3  A    between atoms: N_5  and  C_26
REMARK    4  A    between atoms: C_9  and  C_19
REMARK    5  A    between atoms: C_11  and  C_21
REMARK    6  A    between atoms: C_15  and  C_20
REMARK    7  A    between atoms: C_20  and  C_22
REMARK    8  A    between atoms: C_20  and  C_23
REMARK    9  A    between atoms: C_24  and  C_25
REMARK   10  A    between atoms: C_26  and  C_28
REMARK                            x       y       z     vdW  Elec       q    Type
REMARK                         _______ _______ _______ _____ _____    ______ ____
ROOT
ATOM      9  C   UNL     1      -4.768 -11.062  16.865  0.00  0.00    -0.027 C 
ATOM     10  C   UNL     1      -5.540 -10.437  15.657  0.00  0.00    +0.028 C 
ATOM     11  C   UNL     1      -7.092 -10.533  15.875  0.00  0.00    +0.012 C 
ATOM     12  C   UNL     1      -5.019 -10.998  14.303  0.00  0.00    +0.122 C 
ATOM     13  C   UNL     1      -3.248 -10.849  16.672  0.00  0.00    +0.007 C 
ATOM     14  C   UNL     1      -5.184 -10.333  18.163  0.00  0.00    +0.009 C 
ATOM     15  C   UNL     1      -3.484 -10.876  14.159  0.00  0.00    +0.029 C 
ATOM     16  C   UNL     1      -7.491  -9.863  17.219  0.00  0.00    +0.076 C 
ATOM     17  C   UNL     1      -2.726 -11.432  15.366  0.00  0.00    +0.007 C 
ATOM     18  C   UNL     1      -6.685 -10.370  18.415  0.00  0.00    +0.023 C 
ATOM     19  C   UNL     1      -5.041 -12.580  17.023  0.00  0.00    +0.011 C 
ATOM     21  C   UNL     1      -7.915  -9.910  14.736  0.00  0.00    +0.010 C 
ENDROOT
BRANCH  16   4
ATOM      3  O   UNL     1      -9.476  -7.794  17.375  0.00  0.00    -0.268 OA
ATOM      4  N   UNL     1      -8.899 -10.035  17.510  0.00  0.00    -0.307 N 
ATOM     24  C   UNL     1      -9.780  -8.970  17.562  0.00  0.00    +0.264 C 
ATOM     35  H   UNL     1      -9.233 -10.968  17.737  0.00  0.00    +0.149 HD
BRANCH  24  25
ATOM      6  N   UNL     1     -12.127  -8.936  17.008  0.00  0.00    -0.247 NA
ATOM      7  N   UNL     1     -12.779 -10.287  19.379  0.00  0.00    -0.259 NA
ATOM     25  C   UNL     1     -11.186  -9.311  17.898  0.00  0.00    +0.143 A 
ATOM     27  C   UNL     1     -11.506  -9.973  19.063  0.00  0.00    +0.143 A 
ATOM     29  C   UNL     1     -13.399  -9.249  17.326  0.00  0.00    +0.131 A 
ATOM     32  C   UNL     1     -13.720  -9.912  18.490  0.00  0.00    +0.130 A 
ENDBRANCH  24  25
ENDBRANCH  16   4
BRANCH  12   1
ATOM      1  O   UNL     1      -5.590 -10.253  13.226  0.00  0.00    -0.391 OA
ATOM     36  H   UNL     1      -5.063 -10.424  12.427  0.00  0.00    +0.210 HD
ENDBRANCH  12   1
BRANCH  15  20
ATOM     20  C   UNL     1      -2.976 -11.551  12.879  0.00  0.00    +0.077 C 
ATOM     22  C   UNL     1      -1.796 -12.461  13.200  0.00  0.00    +0.017 C 
BRANCH  20  23
ATOM      2  O   UNL     1      -1.490  -9.959  11.818  0.00  0.00    -0.276 OA
ATOM      5  N   UNL     1      -3.635 -10.211  10.970  0.00  0.00    -0.311 N 
ATOM     23  C   UNL     1      -2.598 -10.493  11.848  0.00  0.00    +0.216 C 
ATOM     37  H   UNL     1      -4.503 -10.733  11.028  0.00  0.00    +0.149 HD
BRANCH   5  26
ATOM     26  C   UNL     1      -3.517  -9.241   9.906  0.00  0.00    +0.141 C 
BRANCH  26  28
ATOM      8  N   UNL     1      -6.136  -9.680   7.214  0.00  0.00    -0.263 NA
ATOM     28  C   UNL     1      -4.799  -9.089   9.139  0.00  0.00    -0.012 A 
ATOM     30  C   UNL     1      -5.814  -8.257   9.598  0.00  0.00    +0.008 A 
ATOM     31  C   UNL     1      -5.007  -9.773   7.952  0.00  0.00    +0.115 A 
ATOM     33  C   UNL     1      -6.989  -8.135   8.865  0.00  0.00    +0.020 A 
ATOM     34  C   UNL     1      -7.100  -8.862   7.691  0.00  0.00    +0.111 A 
ENDBRANCH  26  28
ENDBRANCH   5  26
ENDBRANCH  20  23
ENDBRANCH  15  20
TORSDOF 7
ENDMDL
MODEL 3
REMARK VINA RESULT:      -6.7      2.378      3.309
REMARK  Name = 45361548
REMARK  10 active torsions:
REMARK  status: ('A' for Active; 'I' for Inactive)
REMARK    1  A    between atoms: O_1  and  C_12
REMARK    2  A    between atoms: N_4  and  C_16
REMARK    3  A    between atoms: N_5  and  C_26
REMARK    4  A    between atoms: C_9  and  C_19
REMARK    5  A    between atoms: C_11  and  C_21
REMARK    6  A    between atoms: C_15  and  C_20
REMARK    7  A    between atoms: C_20  and  C_22
REMARK    8  A    between atoms: C_20  and  C_23
REMARK    9  A    between atoms: C_24  and  C_25
REMARK   10  A    between atoms: C_26  and  C_28
REMARK                            x       y       z     vdW  Elec       q    Type
REMARK                         _______ _______ _______ _____ _____    ______ ____
ROOT
ATOM      9  C   UNL     1     -15.268   7.335  20.535  0.00  0.00    -0.027 C 
ATOM     10  C   UNL     1     -14.059   6.472  21.028  0.00  0.00    +0.028 C 
ATOM     11  C   UNL     1     -14.412   5.727  22.365  0.00  0.00    +0.012 C 
ATOM     12  C   UNL     1     -12.745   7.305  21.053  0.00  0.00    +0.122 C 
ATOM     13  C   UNL     1     -14.928   7.962  19.163  0.00  0.00    +0.007 C 
ATOM     14  C   UNL     1     -16.497   6.418  20.342  0.00  0.00    +0.009 C 
ATOM     15  C   UNL     1     -12.464   8.015  19.709  0.00  0.00    +0.029 C 
ATOM     16  C   UNL     1     -15.693   4.866  22.180  0.00  0.00    +0.076 C 
ATOM     17  C   UNL     1     -13.664   8.811  19.194  0.00  0.00    +0.007 C 
ATOM     18  C   UNL     1     -16.872   5.647  21.600  0.00  0.00    +0.023 C 
ATOM     19  C   UNL     1     -15.629   8.471  21.526  0.00  0.00    +0.011 C 
ATOM     21  C   UNL     1     -13.275   4.835  22.892  0.00  0.00    +0.010 C 
ENDROOT
BRANCH  16   4
ATOM      3  O   UNL     1     -16.742   2.215  22.522  0.00  0.00    -0.268 OA
ATOM      4  N   UNL     1     -16.115   4.257  23.424  0.00  0.00    -0.307 N 
ATOM     24  C   UNL     1     -16.609   2.966  23.486  0.00  0.00    +0.264 C 
ATOM     35  H   UNL     1     -16.096   4.822  24.268  0.00  0.00    +0.149 HD
BRANCH  24  25
ATOM      6  N   UNL     1     -16.454   1.358  25.277  0.00  0.00    -0.247 NA
ATOM      7  N   UNL     1     -18.329   2.776  26.808  0.00  0.00    -0.259 NA
ATOM     25  C   UNL     1     -17.023   2.497  24.833  0.00  0.00    +0.143 A 
ATOM     27  C   UNL     1     -17.944   3.193  25.584  0.00  0.00    +0.143 A 
ATOM     29  C   UNL     1     -16.840   0.941  26.499  0.00  0.00    +0.131 A 
ATOM     32  C   UNL     1     -17.760   1.637  27.251  0.00  0.00    +0.130 A 
ENDBRANCH  24  25
ENDBRANCH  16   4
BRANCH  12   1
ATOM      1  O   UNL     1     -11.635   6.438  21.297  0.00  0.00    -0.391 OA
ATOM     36  H   UNL     1     -11.011   6.531  20.556  0.00  0.00    +0.210 HD
ENDBRANCH  12   1
BRANCH  15  20
ATOM     20  C   UNL     1     -11.238   8.932  19.794  0.00  0.00    +0.077 C 
ATOM     22  C   UNL     1     -11.609  10.239  20.486  0.00  0.00    +0.017 C 
BRANCH  20  23
ATOM      2  O   UNL     1     -10.611   8.303  17.540  0.00  0.00    -0.276 OA
ATOM      5  N   UNL     1     -10.259  10.493  18.221  0.00  0.00    -0.311 N 
ATOM     23  C   UNL     1     -10.677   9.182  18.398  0.00  0.00    +0.216 C 
ATOM     37  H   UNL     1     -10.395  11.173  18.961  0.00  0.00    +0.149 HD
BRANCH   5  26
ATOM     26  C   UNL     1      -9.689  10.971  16.982  0.00  0.00    +0.141 C 
BRANCH  26  28
ATOM      8  N   UNL     1     -10.101  14.632  17.834  0.00  0.00    -0.263 NA
ATOM     28  C   UNL     1      -9.458  12.454  17.005  0.00  0.00    -0.012 A 
ATOM     30  C   UNL     1      -8.436  13.032  16.259  0.00  0.00    +0.008 A 
ATOM     31  C   UNL     1     -10.256  13.291  17.770  0.00  0.00    +0.115 A 
ATOM     33  C   UNL     1      -8.247  14.409  16.299  0.00  0.00    +0.020 A 
ATOM     34  C   UNL     1      -9.098  15.158  17.096  0.00  0.00    +0.111 A 
ENDBRANCH  26  28
ENDBRANCH   5  26
ENDBRANCH  20  23
ENDBRANCH  15  20
TORSDOF 7
ENDMDL
MODEL 4
REMARK VINA RESULT:      -6.7      9.293     14.279
REMARK  Name = 45361548
REMARK  10 active torsions:
REMARK  status: ('A' for Active; 'I' for Inactive)
REMARK    1  A    between atoms: O_1  and  C_12
REMARK    2  A    between atoms: N_4  and  C_16
REMARK    3  A    between atoms: N_5  and  C_26
REMARK    4  A    between atoms: C_9  and  C_19
REMARK    5  A    between atoms: C_11  and  C_21
REMARK    6  A    between atoms: C_15  and  C_20
REMARK    7  A    between atoms: C_20  and  C_22
REMARK    8  A    between atoms: C_20  and  C_23
REMARK    9  A    between atoms: C_24  and  C_25
REMARK   10  A    between atoms: C_26  and  C_28
REMARK                            x       y       z     vdW  Elec       q    Type
REMARK                         _______ _______ _______ _____ _____    ______ ____
ROOT
ATOM      9  C   UNL     1     -14.562   2.221  31.218  0.00  0.00    -0.027 C 
ATOM     10  C   UNL     1     -15.773   3.172  30.940  0.00  0.00    +0.028 C 
ATOM     11  C   UNL     1     -16.198   3.109  29.430  0.00  0.00    +0.012 C 
ATOM     12  C   UNL     1     -15.510   4.599  31.502  0.00  0.00    +0.122 C 
ATOM     13  C   UNL     1     -14.243   2.221  32.732  0.00  0.00    +0.007 C 
ATOM     14  C   UNL     1     -14.950   0.780  30.819  0.00  0.00    +0.009 C 
ATOM     15  C   UNL     1     -15.090   4.585  32.990  0.00  0.00    +0.029 C 
ATOM     16  C   UNL     1     -16.514   1.644  29.019  0.00  0.00    +0.076 C 
ATOM     17  C   UNL     1     -13.946   3.612  33.277  0.00  0.00    +0.007 C 
ATOM     18  C   UNL     1     -15.398   0.660  29.369  0.00  0.00    +0.023 C 
ATOM     19  C   UNL     1     -13.288   2.639  30.441  0.00  0.00    +0.011 C 
ATOM     21  C   UNL     1     -17.405   4.001  29.091  0.00  0.00    +0.010 C 
ENDROOT
BRANCH  16   4
ATOM      3  O   UNL     1     -18.456  -0.077  27.789  0.00  0.00    -0.268 OA
ATOM      4  N   UNL     1     -16.796   1.531  27.603  0.00  0.00    -0.307 N 
ATOM     24  C   UNL     1     -17.757   0.668  27.106  0.00  0.00    +0.264 C 
ATOM     35  H   UNL     1     -16.227   2.067  26.954  0.00  0.00    +0.149 HD
BRANCH  24  25
ATOM      6  N   UNL     1     -18.587  -0.387  25.102  0.00  0.00    -0.247 NA
ATOM      7  N   UNL     1     -17.503   1.644  23.499  0.00  0.00    -0.259 NA
ATOM     25  C   UNL     1     -17.908   0.652  25.628  0.00  0.00    +0.143 A 
ATOM     27  C   UNL     1     -17.375   1.649  24.841  0.00  0.00    +0.143 A 
ATOM     29  C   UNL     1     -18.714  -0.393  23.761  0.00  0.00    +0.131 A 
ATOM     32  C   UNL     1     -18.182   0.605  22.973  0.00  0.00    +0.130 A 
ENDBRANCH  24  25
ENDBRANCH  16   4
BRANCH  12   1
ATOM      1  O   UNL     1     -16.710   5.371  31.424  0.00  0.00    -0.391 OA
ATOM     36  H   UNL     1     -17.153   5.157  30.585  0.00  0.00    +0.210 HD
ENDBRANCH  12   1
BRANCH  15  20
ATOM     20  C   UNL     1     -14.710   5.984  33.488  0.00  0.00    +0.077 C 
ATOM     22  C   UNL     1     -13.635   6.586  32.590  0.00  0.00    +0.017 C 
BRANCH  20  23
ATOM      2  O   UNL     1     -14.697   5.098  35.742  0.00  0.00    -0.276 OA
ATOM      5  N   UNL     1     -13.275   6.859  35.234  0.00  0.00    -0.311 N 
ATOM     23  C   UNL     1     -14.245   5.912  34.939  0.00  0.00    +0.216 C 
ATOM     37  H   UNL     1     -12.917   7.462  34.502  0.00  0.00    +0.149 HD
BRANCH   5  26
ATOM     26  C   UNL     1     -12.682   6.987  36.545  0.00  0.00    +0.141 C 
BRANCH  26  28
ATOM      8  N   UNL     1      -9.317   8.466  37.433  0.00  0.00    -0.263 NA
ATOM     28  C   UNL     1     -11.488   7.898  36.535  0.00  0.00    -0.012 A 
ATOM     30  C   UNL     1     -11.420   8.981  35.666  0.00  0.00    +0.008 A 
ATOM     31  C   UNL     1     -10.419   7.685  37.391  0.00  0.00    +0.115 A 
ATOM     33  C   UNL     1     -10.303   9.808  35.681  0.00  0.00    +0.020 A 
ATOM     34  C   UNL     1      -9.287   9.510  36.575  0.00  0.00    +0.111 A 
ENDBRANCH  26  28
ENDBRANCH   5  26
ENDBRANCH  20  23
ENDBRANCH  15  20
TORSDOF 7
ENDMDL
MODEL 5
REMARK VINA RESULT:      -6.6     19.482     22.492
REMARK  Name = 45361548
REMARK  10 active torsions:
REMARK  status: ('A' for Active; 'I' for Inactive)
REMARK    1  A    between atoms: O_1  and  C_12
REMARK    2  A    between atoms: N_4  and  C_16
REMARK    3  A    between atoms: N_5  and  C_26
REMARK    4  A    between atoms: C_9  and  C_19
REMARK    5  A    between atoms: C_11  and  C_21
REMARK    6  A    between atoms: C_15  and  C_20
REMARK    7  A    between atoms: C_20  and  C_22
REMARK    8  A    between atoms: C_20  and  C_23
REMARK    9  A    between atoms: C_24  and  C_25
REMARK   10  A    between atoms: C_26  and  C_28
REMARK                            x       y       z     vdW  Elec       q    Type
REMARK                         _______ _______ _______ _____ _____    ______ ____
ROOT
ATOM      9  C   UNL     1      -3.213 -11.295  11.644  0.00  0.00    -0.027 C 
ATOM     10  C   UNL     1      -4.558 -10.857  12.313  0.00  0.00    +0.028 C 
ATOM     11  C   UNL     1      -5.372  -9.909  11.363  0.00  0.00    +0.012 C 
ATOM     12  C   UNL     1      -4.322 -10.318  13.754  0.00  0.00    +0.122 C 
ATOM     13  C   UNL     1      -2.491 -12.314  12.556  0.00  0.00    +0.007 C 
ATOM     14  C   UNL     1      -3.521 -11.998  10.303  0.00  0.00    +0.009 C 
ATOM     15  C   UNL     1      -3.509 -11.299  14.630  0.00  0.00    +0.029 C 
ATOM     16  C   UNL     1      -5.612 -10.597   9.990  0.00  0.00    +0.076 C 
ATOM     17  C   UNL     1      -2.223 -11.776  13.955  0.00  0.00    +0.007 C 
ATOM     18  C   UNL     1      -4.334 -11.135   9.348  0.00  0.00    +0.023 C 
ATOM     19  C   UNL     1      -2.262 -10.098  11.385  0.00  0.00    +0.011 C 
ATOM     21  C   UNL     1      -6.723  -9.462  11.947  0.00  0.00    +0.010 C 
ENDROOT
BRANCH  16   4
ATOM      3  O   UNL     1      -8.011 -11.125   8.502  0.00  0.00    -0.268 OA
ATOM      4  N   UNL     1      -6.259  -9.708   9.048  0.00  0.00    -0.307 N 
ATOM     24  C   UNL     1      -7.419 -10.056   8.378  0.00  0.00    +0.264 C 
ATOM     35  H   UNL     1      -5.809  -8.822   8.836  0.00  0.00    +0.149 HD
BRANCH  24  25
ATOM      6  N   UNL     1      -8.210  -9.471   6.176  0.00  0.00    -0.247 NA
ATOM      7  N   UNL     1      -8.611  -6.805   6.951  0.00  0.00    -0.259 NA
ATOM     25  C   UNL     1      -7.942  -9.043   7.426  0.00  0.00    +0.143 A 
ATOM     27  C   UNL     1      -8.138  -7.733   7.806  0.00  0.00    +0.143 A 
ATOM     29  C   UNL     1      -8.682  -8.542   5.321  0.00  0.00    +0.131 A 
ATOM     32  C   UNL     1      -8.879  -7.233   5.701  0.00  0.00    +0.130 A 
ENDBRANCH  24  25
ENDBRANCH  16   4
BRANCH  12   1
ATOM      1  O   UNL     1      -5.580 -10.134  14.406  0.00  0.00    -0.391 OA
ATOM     36  H   UNL     1      -5.913  -9.250  14.175  0.00  0.00    +0.210 HD
ENDBRANCH  12   1
BRANCH  15  20
ATOM     20  C   UNL     1      -3.176 -10.696  16.000  0.00  0.00    +0.077 C 
ATOM     22  C   UNL     1      -1.665 -10.668  16.207  0.00  0.00    +0.017 C 
BRANCH  20  23
ATOM      2  O   UNL     1      -3.555 -11.404  18.286  0.00  0.00    -0.276 OA
ATOM      5  N   UNL     1      -4.883 -12.304  16.611  0.00  0.00    -0.311 N 
ATOM     23  C   UNL     1      -3.872 -11.490  17.101  0.00  0.00    +0.216 C 
ATOM     37  H   UNL     1      -5.120 -12.280  15.625  0.00  0.00    +0.149 HD
BRANCH   5  26
ATOM     26  C   UNL     1      -5.685 -13.152  17.462  0.00  0.00    +0.141 C 
BRANCH  26  28
ATOM      8  N   UNL     1      -7.987 -11.512  19.974  0.00  0.00    -0.263 NA
ATOM     28  C   UNL     1      -6.864 -12.420  18.035  0.00  0.00    -0.012 A 
ATOM     30  C   UNL     1      -7.899 -11.977  17.219  0.00  0.00    +0.008 A 
ATOM     31  C   UNL     1      -6.955 -12.164  19.395  0.00  0.00    +0.115 A 
ATOM     33  C   UNL     1      -8.978 -11.304  17.779  0.00  0.00    +0.020 A 
ATOM     34  C   UNL     1      -8.975 -11.097  19.149  0.00  0.00    +0.111 A 
ENDBRANCH  26  28
ENDBRANCH   5  26
ENDBRANCH  20  23
ENDBRANCH  15  20
TORSDOF 7
ENDMDL
MODEL 6
REMARK VINA RESULT:      -6.6     18.275     19.641
REMARK  Name = 45361548
REMARK  10 active torsions:
REMARK  status: ('A' for Active; 'I' for Inactive)
REMARK    1  A    between atoms: O_1  and  C_12
REMARK    2  A    between atoms: N_4  and  C_16
REMARK    3  A    between atoms: N_5  and  C_26
REMARK    4  A    between atoms: C_9  and  C_19
REMARK    5  A    between atoms: C_11  and  C_21
REMARK    6  A    between atoms: C_15  and  C_20
REMARK    7  A    between atoms: C_20  and  C_22
REMARK    8  A    between atoms: C_20  and  C_23
REMARK    9  A    between atoms: C_24  and  C_25
REMARK   10  A    between atoms: C_26  and  C_28
REMARK                            x       y       z     vdW  Elec       q    Type
REMARK                         _______ _______ _______ _____ _____    ______ ____
ROOT
ATOM      9  C   UNL     1      -4.571 -11.256  17.059  0.00  0.00    -0.027 C 
ATOM     10  C   UNL     1      -5.563 -10.463  16.144  0.00  0.00    +0.028 C 
ATOM     11  C   UNL     1      -7.022 -10.518  16.722  0.00  0.00    +0.012 C 
ATOM     12  C   UNL     1      -5.417 -10.887  14.654  0.00  0.00    +0.122 C 
ATOM     13  C   UNL     1      -3.129 -11.087  16.525  0.00  0.00    +0.007 C 
ATOM     14  C   UNL     1      -4.617 -10.664  18.486  0.00  0.00    +0.009 C 
ATOM     15  C   UNL     1      -3.955 -10.815  14.156  0.00  0.00    +0.029 C 
ATOM     16  C   UNL     1      -7.043  -9.990  18.184  0.00  0.00    +0.076 C 
ATOM     17  C   UNL     1      -2.974 -11.538  15.079  0.00  0.00    +0.007 C 
ATOM     18  C   UNL     1      -6.014 -10.666  19.090  0.00  0.00    +0.023 C 
ATOM     19  C   UNL     1      -4.904 -12.769  17.124  0.00  0.00    +0.011 C 
ATOM     21  C   UNL     1      -8.046  -9.733  15.886  0.00  0.00    +0.010 C 
ENDROOT
BRANCH  16   4
ATOM      3  O   UNL     1      -8.256 -12.432  19.085  0.00  0.00    -0.268 OA
ATOM      4  N   UNL     1      -8.351 -10.135  18.789  0.00  0.00    -0.307 N 
ATOM     24  C   UNL     1      -8.848 -11.361  19.192  0.00  0.00    +0.264 C 
ATOM     35  H   UNL     1      -8.940  -9.311  18.865  0.00  0.00    +0.149 HD
BRANCH  24  25
ATOM      6  N   UNL     1     -10.697 -12.521  20.220  0.00  0.00    -0.247 NA
ATOM      7  N   UNL     1     -12.197 -10.155  20.358  0.00  0.00    -0.259 NA
ATOM     25  C   UNL     1     -10.217 -11.344  19.771  0.00  0.00    +0.143 A 
ATOM     27  C   UNL     1     -10.953 -10.182  19.838  0.00  0.00    +0.143 A 
ATOM     29  C   UNL     1     -11.940 -12.493  20.739  0.00  0.00    +0.131 A 
ATOM     32  C   UNL     1     -12.677 -11.331  20.808  0.00  0.00    +0.130 A 
ENDBRANCH  24  25
ENDBRANCH  16   4
BRANCH  12   1
ATOM      1  O   UNL     1      -6.174  -9.999  13.830  0.00  0.00    -0.391 OA
ATOM     36  H   UNL     1      -7.118 -10.167  13.992  0.00  0.00    +0.210 HD
ENDBRANCH  12   1
BRANCH  15  20
ATOM     20  C   UNL     1      -3.813 -11.359  12.729  0.00  0.00    +0.077 C 
ATOM     22  C   UNL     1      -2.694 -12.393  12.672  0.00  0.00    +0.017 C 
BRANCH  20  23
ATOM      2  O   UNL     1      -2.432  -9.897  11.378  0.00  0.00    -0.276 OA
ATOM      5  N   UNL     1      -4.730  -9.578  11.366  0.00  0.00    -0.311 N 
ATOM     23  C   UNL     1      -3.559 -10.211  11.757  0.00  0.00    +0.216 C 
ATOM     37  H   UNL     1      -5.627  -9.930  11.683  0.00  0.00    +0.149 HD
BRANCH   5  26
ATOM     26  C   UNL     1      -4.745  -8.460  10.450  0.00  0.00    +0.141 C 
BRANCH  26  28
ATOM      8  N   UNL     1      -7.493  -8.452   7.852  0.00  0.00    -0.263 NA
ATOM     28  C   UNL     1      -5.509  -8.772   9.195  0.00  0.00    -0.012 A 
ATOM     30  C   UNL     1      -4.988  -9.632   8.235  0.00  0.00    +0.008 A 
ATOM     31  C   UNL     1      -6.755  -8.212   8.959  0.00  0.00    +0.115 A 
ATOM     33  C   UNL     1      -5.720  -9.904   7.084  0.00  0.00    +0.020 A 
ATOM     34  C   UNL     1      -6.955  -9.293   6.941  0.00  0.00    +0.111 A 
ENDBRANCH  26  28
ENDBRANCH   5  26
ENDBRANCH  20  23
ENDBRANCH  15  20
TORSDOF 7
ENDMDL
MODEL 7
REMARK VINA RESULT:      -6.6     18.422     19.847
REMARK  Name = 45361548
REMARK  10 active torsions:
REMARK  status: ('A' for Active; 'I' for Inactive)
REMARK    1  A    between atoms: O_1  and  C_12
REMARK    2  A    between atoms: N_4  and  C_16
REMARK    3  A    between atoms: N_5  and  C_26
REMARK    4  A    between atoms: C_9  and  C_19
REMARK    5  A    between atoms: C_11  and  C_21
REMARK    6  A    between atoms: C_15  and  C_20
REMARK    7  A    between atoms: C_20  and  C_22
REMARK    8  A    between atoms: C_20  and  C_23
REMARK    9  A    between atoms: C_24  and  C_25
REMARK   10  A    between atoms: C_26  and  C_28
REMARK                            x       y       z     vdW  Elec       q    Type
REMARK                         _______ _______ _______ _____ _____    ______ ____
ROOT
ATOM      9  C   UNL     1      -4.429 -10.611  11.181  0.00  0.00    -0.027 C 
ATOM     10  C   UNL     1      -5.863 -10.027  11.407  0.00  0.00    +0.028 C 
ATOM     11  C   UNL     1      -6.505 -10.613  12.715  0.00  0.00    +0.012 C 
ATOM     12  C   UNL     1      -6.732 -10.150  10.123  0.00  0.00    +0.122 C 
ATOM     13  C   UNL     1      -3.783  -9.930   9.951  0.00  0.00    +0.007 C 
ATOM     14  C   UNL     1      -3.552 -10.289  12.412  0.00  0.00    +0.009 C 
ATOM     15  C   UNL     1      -6.036  -9.559   8.875  0.00  0.00    +0.029 C 
ATOM     16  C   UNL     1      -5.579 -10.349  13.935  0.00  0.00    +0.076 C 
ATOM     17  C   UNL     1      -4.612 -10.082   8.682  0.00  0.00    +0.007 C 
ATOM     18  C   UNL     1      -4.138 -10.810  13.716  0.00  0.00    +0.023 C 
ATOM     19  C   UNL     1      -4.442 -12.143  10.950  0.00  0.00    +0.011 C 
ATOM     21  C   UNL     1      -7.907 -10.058  13.016  0.00  0.00    +0.010 C 
ENDROOT
BRANCH  16   4
ATOM      3  O   UNL     1      -5.748  -9.166  16.547  0.00  0.00    -0.268 OA
ATOM      4  N   UNL     1      -6.083 -10.978  15.139  0.00  0.00    -0.307 N 
ATOM     24  C   UNL     1      -6.124 -10.320  16.356  0.00  0.00    +0.264 C 
ATOM     35  H   UNL     1      -6.363 -11.953  15.092  0.00  0.00    +0.149 HD
BRANCH  24  25
ATOM      6  N   UNL     1      -7.047 -12.370  17.230  0.00  0.00    -0.247 NA
ATOM      7  N   UNL     1      -7.187 -11.288  19.814  0.00  0.00    -0.259 NA
ATOM     25  C   UNL     1      -6.645 -11.112  17.500  0.00  0.00    +0.143 A 
ATOM     27  C   UNL     1      -6.715 -10.580  18.768  0.00  0.00    +0.143 A 
ATOM     29  C   UNL     1      -7.520 -13.077  18.275  0.00  0.00    +0.131 A 
ATOM     32  C   UNL     1      -7.589 -12.546  19.544  0.00  0.00    +0.130 A 
ENDBRANCH  24  25
ENDBRANCH  16   4
BRANCH  12   1
ATOM      1  O   UNL     1      -7.947  -9.418  10.297  0.00  0.00    -0.391 OA
ATOM     36  H   UNL     1      -8.062  -8.835   9.527  0.00  0.00    +0.210 HD
ENDBRANCH  12   1
BRANCH  15  20
ATOM     20  C   UNL     1      -6.849  -9.806   7.598  0.00  0.00    +0.077 C 
ATOM     22  C   UNL     1      -6.002 -10.552   6.573  0.00  0.00    +0.017 C 
BRANCH  20  23
ATOM      2  O   UNL     1      -7.508  -8.279   5.837  0.00  0.00    -0.276 OA
ATOM      5  N   UNL     1      -7.621  -7.551   8.037  0.00  0.00    -0.311 N 
ATOM     23  C   UNL     1      -7.358  -8.481   7.041  0.00  0.00    +0.216 C 
ATOM     37  H   UNL     1      -7.521  -7.812   9.012  0.00  0.00    +0.149 HD
BRANCH   5  26
ATOM     26  C   UNL     1      -8.111  -6.222   7.755  0.00  0.00    +0.141 C 
BRANCH  26  28
ATOM      8  N   UNL     1     -10.924  -4.276   9.368  0.00  0.00    -0.263 NA
ATOM     28  C   UNL     1      -9.379  -5.921   8.500  0.00  0.00    -0.012 A 
ATOM     30  C   UNL     1     -10.174  -6.944   9.006  0.00  0.00    +0.008 A 
ATOM     31  C   UNL     1      -9.795  -4.615   8.706  0.00  0.00    +0.115 A 
ATOM     33  C   UNL     1     -11.342  -6.634   9.693  0.00  0.00    +0.020 A 
ATOM     34  C   UNL     1     -11.670  -5.297   9.846  0.00  0.00    +0.111 A 
ENDBRANCH  26  28
ENDBRANCH   5  26
ENDBRANCH  20  23
ENDBRANCH  15  20
TORSDOF 7
ENDMDL
MODEL 8
REMARK VINA RESULT:      -6.4     31.870     34.964
REMARK  Name = 45361548
REMARK  10 active torsions:
REMARK  status: ('A' for Active; 'I' for Inactive)
REMARK    1  A    between atoms: O_1  and  C_12
REMARK    2  A    between atoms: N_4  and  C_16
REMARK    3  A    between atoms: N_5  and  C_26
REMARK    4  A    between atoms: C_9  and  C_19
REMARK    5  A    between atoms: C_11  and  C_21
REMARK    6  A    between atoms: C_15  and  C_20
REMARK    7  A    between atoms: C_20  and  C_22
REMARK    8  A    between atoms: C_20  and  C_23
REMARK    9  A    between atoms: C_24  and  C_25
REMARK   10  A    between atoms: C_26  and  C_28
REMARK                            x       y       z     vdW  Elec       q    Type
REMARK                         _______ _______ _______ _____ _____    ______ ____
ROOT
ATOM      9  C   UNL     1      20.586   7.683  22.052  0.00  0.00    -0.027 C 
ATOM     10  C   UNL     1      20.269   6.695  20.881  0.00  0.00    +0.028 C 
ATOM     11  C   UNL     1      18.739   6.344  20.844  0.00  0.00    +0.012 C 
ATOM     12  C   UNL     1      21.235   5.475  20.894  0.00  0.00    +0.122 C 
ATOM     13  C   UNL     1      22.076   8.095  21.990  0.00  0.00    +0.007 C 
ATOM     14  C   UNL     1      19.737   8.962  21.879  0.00  0.00    +0.009 C 
ATOM     15  C   UNL     1      22.723   5.894  20.937  0.00  0.00    +0.029 C 
ATOM     16  C   UNL     1      17.890   7.643  20.745  0.00  0.00    +0.076 C 
ATOM     17  C   UNL     1      23.026   6.906  22.044  0.00  0.00    +0.007 C 
ATOM     18  C   UNL     1      18.242   8.682  21.809  0.00  0.00    +0.023 C 
ATOM     19  C   UNL     1      20.299   7.065  23.444  0.00  0.00    +0.011 C 
ATOM     21  C   UNL     1      18.351   5.398  19.696  0.00  0.00    +0.010 C 
ENDROOT
BRANCH  16   4
ATOM      3  O   UNL     1      15.763   9.265  19.702  0.00  0.00    -0.268 OA
ATOM      4  N   UNL     1      16.472   7.365  20.826  0.00  0.00    -0.307 N 
ATOM     24  C   UNL     1      15.519   8.213  20.289  0.00  0.00    +0.264 C 
ATOM     35  H   UNL     1      16.170   6.546  21.346  0.00  0.00    +0.149 HD
BRANCH  24  25
ATOM      6  N   UNL     1      13.511   8.191  21.624  0.00  0.00    -0.247 NA
ATOM      7  N   UNL     1      12.160   6.667  19.694  0.00  0.00    -0.259 NA
ATOM     25  C   UNL     1      14.105   7.799  20.479  0.00  0.00    +0.143 A 
ATOM     27  C   UNL     1      13.443   7.051  19.532  0.00  0.00    +0.143 A 
ATOM     29  C   UNL     1      12.229   7.807  21.787  0.00  0.00    +0.131 A 
ATOM     32  C   UNL     1      11.565   7.059  20.839  0.00  0.00    +0.130 A 
ENDBRANCH  24  25
ENDBRANCH  16   4
BRANCH  12   1
ATOM      1  O   UNL     1      21.059   4.715  19.698  0.00  0.00    -0.391 OA
ATOM     36  H   UNL     1      20.187   4.287  19.737  0.00  0.00    +0.210 HD
ENDBRANCH  12   1
BRANCH  15  20
ATOM     20  C   UNL     1      23.652   4.683  21.082  0.00  0.00    +0.077 C 
ATOM     22  C   UNL     1      23.448   4.026  22.442  0.00  0.00    +0.017 C 
BRANCH  20  23
ATOM      2  O   UNL     1      25.921   5.132  21.801  0.00  0.00    -0.276 OA
ATOM      5  N   UNL     1      25.375   5.475  19.573  0.00  0.00    -0.311 N 
ATOM     23  C   UNL     1      25.102   5.113  20.884  0.00  0.00    +0.216 C 
ATOM     37  H   UNL     1      24.657   5.382  18.862  0.00  0.00    +0.149 HD
BRANCH   5  26
ATOM     26  C   UNL     1      26.679   5.919  19.140  0.00  0.00    +0.141 C 
BRANCH  26  28
ATOM      8  N   UNL     1      27.045   7.428  15.692  0.00  0.00    -0.263 NA
ATOM     28  C   UNL     1      26.591   6.901  18.007  0.00  0.00    -0.012 A 
ATOM     30  C   UNL     1      26.006   8.150  18.185  0.00  0.00    +0.008 A 
ATOM     31  C   UNL     1      27.091   6.591  16.752  0.00  0.00    +0.115 A 
ATOM     33  C   UNL     1      25.941   9.039  17.117  0.00  0.00    +0.020 A 
ATOM     34  C   UNL     1      26.469   8.633  15.902  0.00  0.00    +0.111 A 
ENDBRANCH  26  28
ENDBRANCH   5  26
ENDBRANCH  20  23
ENDBRANCH  15  20
TORSDOF 7
ENDMDL
MODEL 9
REMARK VINA RESULT:      -6.2     16.516     18.837
REMARK  Name = 45361548
REMARK  10 active torsions:
REMARK  status: ('A' for Active; 'I' for Inactive)
REMARK    1  A    between atoms: O_1  and  C_12
REMARK    2  A    between atoms: N_4  and  C_16
REMARK    3  A    between atoms: N_5  and  C_26
REMARK    4  A    between atoms: C_9  and  C_19
REMARK    5  A    between atoms: C_11  and  C_21
REMARK    6  A    between atoms: C_15  and  C_20
REMARK    7  A    between atoms: C_20  and  C_22
REMARK    8  A    between atoms: C_20  and  C_23
REMARK    9  A    between atoms: C_24  and  C_25
REMARK   10  A    between atoms: C_26  and  C_28
REMARK                            x       y       z     vdW  Elec       q    Type
REMARK                         _______ _______ _______ _____ _____    ______ ____
ROOT
ATOM      9  C   UNL     1     -10.881 -11.068  18.725  0.00  0.00    -0.027 C 
ATOM     10  C   UNL     1      -9.823  -9.994  18.306  0.00  0.00    +0.028 C 
ATOM     11  C   UNL     1     -10.319  -9.180  17.057  0.00  0.00    +0.012 C 
ATOM     12  C   UNL     1      -8.405 -10.619  18.176  0.00  0.00    +0.122 C 
ATOM     13  C   UNL     1     -10.414 -11.771  20.022  0.00  0.00    +0.007 C 
ATOM     14  C   UNL     1     -12.223 -10.364  19.029  0.00  0.00    +0.009 C 
ATOM     15  C   UNL     1      -7.986 -11.409  19.437  0.00  0.00    +0.029 C 
ATOM     16  C   UNL     1     -11.704  -8.538  17.347  0.00  0.00    +0.076 C 
ATOM     17  C   UNL     1      -9.043 -12.419  19.887  0.00  0.00    +0.007 C 
ATOM     18  C   UNL     1     -12.741  -9.536  17.861  0.00  0.00    +0.023 C 
ATOM     19  C   UNL     1     -11.104 -12.141  17.630  0.00  0.00    +0.011 C 
ATOM     21  C   UNL     1      -9.338  -8.084  16.607  0.00  0.00    +0.010 C 
ENDROOT
BRANCH  16   4
ATOM      3  O   UNL     1     -11.596  -5.729  16.760  0.00  0.00    -0.268 OA
ATOM      4  N   UNL     1     -12.246  -7.877  16.178  0.00  0.00    -0.307 N 
ATOM     24  C   UNL     1     -12.141  -6.511  15.985  0.00  0.00    +0.264 C 
ATOM     35  H   UNL     1     -12.767  -8.435  15.507  0.00  0.00    +0.149 HD
BRANCH  24  25
ATOM      6  N   UNL     1     -14.074  -6.278  14.560  0.00  0.00    -0.247 NA
ATOM      7  N   UNL     1     -12.615  -4.753  12.712  0.00  0.00    -0.259 NA
ATOM     25  C   UNL     1     -12.771  -5.983  14.747  0.00  0.00    +0.143 A 
ATOM     27  C   UNL     1     -12.055  -5.236  13.839  0.00  0.00    +0.143 A 
ATOM     29  C   UNL     1     -14.633  -5.797  13.433  0.00  0.00    +0.131 A 
ATOM     32  C   UNL     1     -13.918  -5.048  12.525  0.00  0.00    +0.130 A 
ENDBRANCH  24  25
ENDBRANCH  16   4
BRANCH  12   1
ATOM      1  O   UNL     1      -7.439  -9.579  18.007  0.00  0.00    -0.391 OA
ATOM     36  H   UNL     1      -7.905  -8.780  17.706  0.00  0.00    +0.210 HD
ENDBRANCH  12   1
BRANCH  15  20
ATOM     20  C   UNL     1      -6.644 -12.125  19.241  0.00  0.00    +0.077 C 
ATOM     22  C   UNL     1      -5.503 -11.248  19.748  0.00  0.00    +0.017 C 
BRANCH  20  23
ATOM      2  O   UNL     1      -7.015 -13.447  17.246  0.00  0.00    -0.276 OA
ATOM      5  N   UNL     1      -5.594 -11.618  17.117  0.00  0.00    -0.311 N 
ATOM     23  C   UNL     1      -6.456 -12.486  17.771  0.00  0.00    +0.216 C 
ATOM     37  H   UNL     1      -5.212 -10.817  17.608  0.00  0.00    +0.149 HD
BRANCH   5  26
ATOM     26  C   UNL     1      -5.258 -11.757  15.719  0.00  0.00    +0.141 C 
BRANCH  26  28
ATOM      8  N   UNL     1      -2.336 -10.357  13.769  0.00  0.00    -0.263 NA
ATOM     28  C   UNL     1      -3.897 -11.201  15.410  0.00  0.00    -0.012 A 
ATOM     30  C   UNL     1      -2.955 -11.013  16.414  0.00  0.00    +0.008 A 
ATOM     31  C   UNL     1      -3.542 -10.860  14.114  0.00  0.00    +0.115 A 
ATOM     33  C   UNL     1      -1.703 -10.499  16.097  0.00  0.00    +0.020 A 
ATOM     34  C   UNL     1      -1.445 -10.188  14.772  0.00  0.00    +0.111 A 
ENDBRANCH  26  28
ENDBRANCH   5  26
ENDBRANCH  20  23
ENDBRANCH  15  20
TORSDOF 7
ENDMDL
MODEL 10
REMARK VINA RESULT:      -6.2     25.760     30.381
REMARK  Name = 45361548
REMARK  10 active torsions:
REMARK  status: ('A' for Active; 'I' for Inactive)
REMARK    1  A    between atoms: O_1  and  C_12
REMARK    2  A    between atoms: N_4  and  C_16
REMARK    3  A    between atoms: N_5  and  C_26
REMARK    4  A    between atoms: C_9  and  C_19
REMARK    5  A    between atoms: C_11  and  C_21
REMARK    6  A    between atoms: C_15  and  C_20
REMARK    7  A    between atoms: C_20  and  C_22
REMARK    8  A    between atoms: C_20  and  C_23
REMARK    9  A    between atoms: C_24  and  C_25
REMARK   10  A    between atoms: C_26  and  C_28
REMARK                            x       y       z     vdW  Elec       q    Type
REMARK                         _______ _______ _______ _____ _____    ______ ____
ROOT
ATOM      9  C   UNL     1       9.421   6.039   6.076  0.00  0.00    -0.027 C 
ATOM     10  C   UNL     1      10.465   7.076   5.544  0.00  0.00    +0.028 C 
ATOM     11  C   UNL     1      10.047   8.539   5.931  0.00  0.00    +0.012 C 
ATOM     12  C   UNL     1      10.771   6.844   4.036  0.00  0.00    +0.122 C 
ATOM     13  C   UNL     1       9.920   4.606   5.778  0.00  0.00    +0.007 C 
ATOM     14  C   UNL     1       9.301   6.186   7.610  0.00  0.00    +0.009 C 
ATOM     15  C   UNL     1      11.169   5.383   3.727  0.00  0.00    +0.029 C 
ATOM     16  C   UNL     1       9.855   8.656   7.469  0.00  0.00    +0.076 C 
ATOM     17  C   UNL     1      10.183   4.363   4.298  0.00  0.00    +0.007 C 
ATOM     18  C   UNL     1       8.923   7.594   8.049  0.00  0.00    +0.023 C 
ATOM     19  C   UNL     1       8.022   6.222   5.435  0.00  0.00    +0.011 C 
ATOM     21  C   UNL     1      11.046   9.610   5.463  0.00  0.00    +0.010 C 
ENDROOT
BRANCH  16   4
ATOM      3  O   UNL     1      11.203  10.599   9.099  0.00  0.00    -0.268 OA
ATOM      4  N   UNL     1       9.357   9.961   7.851  0.00  0.00    -0.307 N 
ATOM     24  C   UNL     1      10.086  10.830   8.643  0.00  0.00    +0.264 C 
ATOM     35  H   UNL     1       8.415  10.218   7.569  0.00  0.00    +0.149 HD
BRANCH  24  25
ATOM      6  N   UNL     1       8.413  12.072   9.858  0.00  0.00    -0.247 NA
ATOM      7  N   UNL     1       9.228  14.475   8.664  0.00  0.00    -0.259 NA
ATOM     25  C   UNL     1       9.423  12.119   8.967  0.00  0.00    +0.143 A 
ATOM     27  C   UNL     1       9.823  13.299   8.380  0.00  0.00    +0.143 A 
ATOM     29  C   UNL     1       7.818  13.247  10.142  0.00  0.00    +0.131 A 
ATOM     32  C   UNL     1       8.218  14.428   9.555  0.00  0.00    +0.130 A 
ENDBRANCH  24  25
ENDBRANCH  16   4
BRANCH  12   1
ATOM      1  O   UNL     1      11.877   7.660   3.643  0.00  0.00    -0.391 OA
ATOM     36  H   UNL     1      11.832   8.492   4.146  0.00  0.00    +0.210 HD
ENDBRANCH  12   1
BRANCH  15  20
ATOM     20  C   UNL     1      11.340   5.144   2.222  0.00  0.00    +0.077 C 
ATOM     22  C   UNL     1      10.170   4.326   1.685  0.00  0.00    +0.017 C 
BRANCH  20  23
ATOM      2  O   UNL     1      12.758   3.256   1.683  0.00  0.00    -0.276 OA
ATOM      5  N   UNL     1      13.750   5.321   2.048  0.00  0.00    -0.311 N 
ATOM     23  C   UNL     1      12.672   4.453   1.952  0.00  0.00    +0.216 C 
ATOM     37  H   UNL     1      13.592   6.308   2.223  0.00  0.00    +0.149 HD
BRANCH   5  26
ATOM     26  C   UNL     1      15.115   4.898   1.836  0.00  0.00    +0.141 C 
BRANCH  26  28
ATOM      8  N   UNL     1      16.316   6.909  -1.133  0.00  0.00    -0.263 NA
ATOM     28  C   UNL     1      15.599   5.233   0.454  0.00  0.00    -0.012 A 
ATOM     30  C   UNL     1      15.778   4.240  -0.502  0.00  0.00    +0.008 A 
ATOM     31  C   UNL     1      15.879   6.541   0.092  0.00  0.00    +0.115 A 
ATOM     33  C   UNL     1      16.224   4.580  -1.774  0.00  0.00    +0.020 A 
ATOM     34  C   UNL     1      16.478   5.917  -2.037  0.00  0.00    +0.111 A 
ENDBRANCH  26  28
ENDBRANCH   5  26
ENDBRANCH  20  23
ENDBRANCH  15  20
TORSDOF 7
ENDMDL
