MODEL 1
REMARK VINA RESULT:      -7.0      0.000      0.000
REMARK  Name = 40780416
REMARK  8 active torsions:
REMARK  status: ('A' for Active; 'I' for Inactive)
REMARK    1  A    between atoms: N_4  and  C_10
REMARK    2  A    between atoms: N_4  and  C_16
REMARK    3  A    between atoms: N_5  and  C_19
REMARK    4  A    between atoms: N_7  and  C_21
REMARK    5  A    between atoms: C_8  and  C_11
REMARK    6  A    between atoms: C_14  and  C_17
REMARK    7  A    between atoms: C_15  and  C_18
REMARK    8  A    between atoms: C_16  and  C_20
REMARK                            x       y       z     vdW  Elec       q    Type
REMARK                         _______ _______ _______ _____ _____    ______ ____
ROOT
ATOM      5  N   UNL     1      11.963  12.763  23.099  0.00  0.00    -0.234 N 
ATOM      6  N   UNL     1      12.531  13.256  21.986  0.00  0.00    -0.171 NA
ATOM     11  C   UNL     1      12.001  11.046  21.750  0.00  0.00    +0.003 A 
ATOM     14  C   UNL     1      11.627  11.444  23.011  0.00  0.00    +0.046 A 
ATOM     15  C   UNL     1      12.551  12.202  21.164  0.00  0.00    +0.064 A 
ATOM     17  C   UNL     1      10.992  10.694  24.112  0.00  0.00    +0.066 C 
ATOM     18  C   UNL     1      13.116  12.349  19.811  0.00  0.00    +0.068 C 
ENDROOT
BRANCH   5  19
ATOM     19  C   UNL     1      11.771  13.595  24.204  0.00  0.00    +0.096 A 
ATOM     21  C   UNL     1      12.660  13.586  25.279  0.00  0.00    +0.151 A 
ATOM     22  C   UNL     1      10.666  14.446  24.219  0.00  0.00    +0.030 A 
ATOM     25  C   UNL     1      12.444  14.429  26.369  0.00  0.00    +0.035 A 
ATOM     26  C   UNL     1      10.450  15.289  25.308  0.00  0.00    +0.002 A 
ATOM     27  C   UNL     1      11.339  15.281  26.383  0.00  0.00    +0.002 A 
BRANCH  21   7
ATOM      2  O   UNL     1      13.755  11.682  25.981  0.00  0.00    -0.126 OA
ATOM      3  O   UNL     1      14.804  13.050  24.622  0.00  0.00    -0.126 OA
ATOM      7  N   UNL     1      13.797  12.729  25.295  0.00  0.00    +0.059 N 
ENDBRANCH  21   7
ENDBRANCH   5  19
BRANCH  11   8
ATOM      8  C   UNL     1      11.853   9.674  21.134  0.00  0.00    +0.047 C 
ATOM      9  C   UNL     1      13.000   8.714  21.506  0.00  0.00    +0.035 C 
ATOM     10  C   UNL     1      12.372   7.313  21.598  0.00  0.00    +0.078 C 
ATOM     12  C   UNL     1      10.642   8.911  21.583  0.00  0.00    -0.021 C 
ATOM     13  C   UNL     1      10.926   7.627  21.826  0.00  0.00    -0.012 C 
BRANCH  10   4
ATOM      4  N   UNL     1      12.564   6.545  20.373  0.00  0.00    -0.306 NA
ATOM     31  H   UNL     1      11.778   6.712  19.744  0.00  0.00    +0.123 HD
BRANCH   4  16
ATOM     16  C   UNL     1      13.798   6.934  19.701  0.00  0.00    +0.117 C 
BRANCH  16  20
ATOM      1 CL   UNL     1      10.564   8.811  16.071  0.00  0.00    -0.084 Cl
ATOM     20  C   UNL     1      13.544   7.910  18.583  0.00  0.00    -0.032 A 
ATOM     23  C   UNL     1      12.315   7.909  17.923  0.00  0.00    +0.025 A 
ATOM     24  C   UNL     1      14.536   8.815  18.208  0.00  0.00    +0.005 A 
ATOM     28  C   UNL     1      12.079   8.814  16.888  0.00  0.00    +0.041 A 
ATOM     29  C   UNL     1      14.301   9.719  17.171  0.00  0.00    +0.002 A 
ATOM     30  C   UNL     1      13.072   9.719  16.511  0.00  0.00    +0.020 A 
ENDBRANCH  16  20
ENDBRANCH   4  16
ENDBRANCH  10   4
ENDBRANCH  11   8
TORSDOF 6
ENDMDL
MODEL 2
REMARK VINA RESULT:      -6.7     27.188     29.901
REMARK  Name = 40780416
REMARK  8 active torsions:
REMARK  status: ('A' for Active; 'I' for Inactive)
REMARK    1  A    between atoms: N_4  and  C_10
REMARK    2  A    between atoms: N_4  and  C_16
REMARK    3  A    between atoms: N_5  and  C_19
REMARK    4  A    between atoms: N_7  and  C_21
REMARK    5  A    between atoms: C_8  and  C_11
REMARK    6  A    between atoms: C_14  and  C_17
REMARK    7  A    between atoms: C_15  and  C_18
REMARK    8  A    between atoms: C_16  and  C_20
REMARK                            x       y       z     vdW  Elec       q    Type
REMARK                         _______ _______ _______ _____ _____    ______ ____
ROOT
ATOM      5  N   UNL     1      -4.162 -10.191   9.534  0.00  0.00    -0.234 N 
ATOM      6  N   UNL     1      -3.105  -9.363   9.573  0.00  0.00    -0.171 NA
ATOM     11  C   UNL     1      -3.204 -10.687  11.432  0.00  0.00    +0.003 A 
ATOM     14  C   UNL     1      -4.268 -11.005  10.624  0.00  0.00    +0.046 A 
ATOM     15  C   UNL     1      -2.522  -9.671  10.736  0.00  0.00    +0.064 A 
ATOM     17  C   UNL     1      -5.351 -11.993  10.796  0.00  0.00    +0.066 C 
ATOM     18  C   UNL     1      -1.300  -8.957  11.145  0.00  0.00    +0.068 C 
ENDROOT
BRANCH   5  19
ATOM     19  C   UNL     1      -5.028 -10.156   8.439  0.00  0.00    +0.096 A 
ATOM     21  C   UNL     1      -6.155  -9.334   8.434  0.00  0.00    +0.151 A 
ATOM     22  C   UNL     1      -4.747 -10.963   7.336  0.00  0.00    +0.030 A 
ATOM     25  C   UNL     1      -7.002  -9.319   7.325  0.00  0.00    +0.035 A 
ATOM     26  C   UNL     1      -5.593 -10.947   6.228  0.00  0.00    +0.002 A 
ATOM     27  C   UNL     1      -6.720 -10.126   6.222  0.00  0.00    +0.002 A 
BRANCH  21   7
ATOM      2  O   UNL     1      -7.282  -8.916  10.402  0.00  0.00    -0.126 OA
ATOM      3  O   UNL     1      -5.926  -7.375   9.626  0.00  0.00    -0.126 OA
ATOM      7  N   UNL     1      -6.470  -8.499   9.543  0.00  0.00    +0.059 N 
ENDBRANCH  21   7
ENDBRANCH   5  19
BRANCH  11   8
ATOM      8  C   UNL     1      -2.847 -11.294  12.769  0.00  0.00    +0.047 C 
ATOM      9  C   UNL     1      -3.993 -11.216  13.797  0.00  0.00    +0.035 C 
ATOM     10  C   UNL     1      -3.885 -12.489  14.655  0.00  0.00    +0.078 C 
ATOM     12  C   UNL     1      -2.553 -12.765  12.733  0.00  0.00    -0.021 C 
ATOM     13  C   UNL     1      -3.112 -13.409  13.763  0.00  0.00    -0.012 C 
BRANCH  10   4
ATOM      4  N   UNL     1      -3.182 -12.245  15.909  0.00  0.00    -0.306 NA
ATOM     31  H   UNL     1      -2.181 -12.383  15.767  0.00  0.00    +0.123 HD
BRANCH   4  16
ATOM     16  C   UNL     1      -3.409 -10.884  16.380  0.00  0.00    +0.117 C 
BRANCH  16  20
ATOM      1 CL   UNL     1      -8.201  -9.125  17.433  0.00  0.00    -0.084 Cl
ATOM     20  C   UNL     1      -4.574 -10.808  17.332  0.00  0.00    -0.032 A 
ATOM     23  C   UNL     1      -5.715 -10.087  16.982  0.00  0.00    +0.025 A 
ATOM     24  C   UNL     1      -4.511 -11.460  18.563  0.00  0.00    +0.005 A 
ATOM     28  C   UNL     1      -6.793 -10.017  17.863  0.00  0.00    +0.041 A 
ATOM     29  C   UNL     1      -5.589 -11.389  19.446  0.00  0.00    +0.002 A 
ATOM     30  C   UNL     1      -6.731 -10.669  19.096  0.00  0.00    +0.020 A 
ENDBRANCH  16  20
ENDBRANCH   4  16
ENDBRANCH  10   4
ENDBRANCH  11   8
TORSDOF 6
ENDMDL
MODEL 3
REMARK VINA RESULT:      -6.7     27.085     29.344
REMARK  Name = 40780416
REMARK  8 active torsions:
REMARK  status: ('A' for Active; 'I' for Inactive)
REMARK    1  A    between atoms: N_4  and  C_10
REMARK    2  A    between atoms: N_4  and  C_16
REMARK    3  A    between atoms: N_5  and  C_19
REMARK    4  A    between atoms: N_7  and  C_21
REMARK    5  A    between atoms: C_8  and  C_11
REMARK    6  A    between atoms: C_14  and  C_17
REMARK    7  A    between atoms: C_15  and  C_18
REMARK    8  A    between atoms: C_16  and  C_20
REMARK                            x       y       z     vdW  Elec       q    Type
REMARK                         _______ _______ _______ _____ _____    ______ ____
ROOT
ATOM      5  N   UNL     1     -15.144   3.513  32.089  0.00  0.00    -0.234 N 
ATOM      6  N   UNL     1     -16.226   4.114  32.610  0.00  0.00    -0.171 NA
ATOM     11  C   UNL     1     -14.403   5.490  32.647  0.00  0.00    +0.003 A 
ATOM     14  C   UNL     1     -14.025   4.294  32.088  0.00  0.00    +0.046 A 
ATOM     15  C   UNL     1     -15.768   5.323  32.948  0.00  0.00    +0.064 A 
ATOM     17  C   UNL     1     -12.720   3.840  31.566  0.00  0.00    +0.066 C 
ATOM     18  C   UNL     1     -16.683   6.297  33.567  0.00  0.00    +0.068 C 
ENDROOT
BRANCH   5  19
ATOM     19  C   UNL     1     -15.241   2.204  31.615  0.00  0.00    +0.096 A 
ATOM     21  C   UNL     1     -15.714   1.932  30.331  0.00  0.00    +0.151 A 
ATOM     22  C   UNL     1     -14.852   1.157  32.452  0.00  0.00    +0.030 A 
ATOM     25  C   UNL     1     -15.799   0.613  29.884  0.00  0.00    +0.035 A 
ATOM     26  C   UNL     1     -14.936  -0.161  32.005  0.00  0.00    +0.002 A 
ATOM     27  C   UNL     1     -15.410  -0.433  30.721  0.00  0.00    +0.002 A 
BRANCH  21   7
ATOM      2  O   UNL     1     -17.327   3.307  29.422  0.00  0.00    -0.126 OA
ATOM      3  O   UNL     1     -15.254   3.533  28.738  0.00  0.00    -0.126 OA
ATOM      7  N   UNL     1     -16.118   2.976  29.452  0.00  0.00    +0.059 N 
ENDBRANCH  21   7
ENDBRANCH   5  19
BRANCH  11   8
ATOM      8  C   UNL     1     -13.544   6.711  32.883  0.00  0.00    +0.047 C 
ATOM      9  C   UNL     1     -13.991   7.936  32.062  0.00  0.00    +0.035 C 
ATOM     10  C   UNL     1     -13.701   9.167  32.939  0.00  0.00    +0.078 C 
ATOM     12  C   UNL     1     -13.577   7.240  34.287  0.00  0.00    -0.021 C 
ATOM     13  C   UNL     1     -13.654   8.575  34.312  0.00  0.00    -0.012 C 
BRANCH  10   4
ATOM      4  N   UNL     1     -12.436   9.803  32.588  0.00  0.00    -0.306 NA
ATOM     31  H   UNL     1     -11.756   9.630  33.328  0.00  0.00    +0.123 HD
BRANCH   4  16
ATOM     16  C   UNL     1     -11.915   9.273  31.333  0.00  0.00    +0.117 C 
BRANCH  16  20
ATOM      1 CL   UNL     1     -10.833  10.568  26.402  0.00  0.00    -0.084 Cl
ATOM     20  C   UNL     1     -11.824  10.336  30.271  0.00  0.00    -0.032 A 
ATOM     23  C   UNL     1     -11.419   9.999  28.979  0.00  0.00    +0.025 A 
ATOM     24  C   UNL     1     -12.144  11.658  30.578  0.00  0.00    +0.005 A 
ATOM     28  C   UNL     1     -11.335  10.984  27.996  0.00  0.00    +0.041 A 
ATOM     29  C   UNL     1     -12.059  12.644  29.594  0.00  0.00    +0.002 A 
ATOM     30  C   UNL     1     -11.655  12.306  28.302  0.00  0.00    +0.020 A 
ENDBRANCH  16  20
ENDBRANCH   4  16
ENDBRANCH  10   4
ENDBRANCH  11   8
TORSDOF 6
ENDMDL
MODEL 4
REMARK VINA RESULT:      -6.6     27.774     30.092
REMARK  Name = 40780416
REMARK  8 active torsions:
REMARK  status: ('A' for Active; 'I' for Inactive)
REMARK    1  A    between atoms: N_4  and  C_10
REMARK    2  A    between atoms: N_4  and  C_16
REMARK    3  A    between atoms: N_5  and  C_19
REMARK    4  A    between atoms: N_7  and  C_21
REMARK    5  A    between atoms: C_8  and  C_11
REMARK    6  A    between atoms: C_14  and  C_17
REMARK    7  A    between atoms: C_15  and  C_18
REMARK    8  A    between atoms: C_16  and  C_20
REMARK                            x       y       z     vdW  Elec       q    Type
REMARK                         _______ _______ _______ _____ _____    ______ ____
ROOT
ATOM      5  N   UNL     1      -4.094 -10.563  12.602  0.00  0.00    -0.234 N 
ATOM      6  N   UNL     1      -2.870 -10.636  13.152  0.00  0.00    -0.171 NA
ATOM     11  C   UNL     1      -4.511 -10.939  14.713  0.00  0.00    +0.003 A 
ATOM     14  C   UNL     1      -5.111 -10.737  13.494  0.00  0.00    +0.046 A 
ATOM     15  C   UNL     1      -3.131 -10.868  14.442  0.00  0.00    +0.064 A 
ATOM     17  C   UNL     1      -6.538 -10.695  13.115  0.00  0.00    +0.066 C 
ATOM     18  C   UNL     1      -2.014 -11.012  15.393  0.00  0.00    +0.068 C 
ENDROOT
BRANCH   5  19
ATOM     19  C   UNL     1      -4.224 -10.325  11.234  0.00  0.00    +0.096 A 
ATOM     21  C   UNL     1      -4.367 -11.375  10.327  0.00  0.00    +0.151 A 
ATOM     22  C   UNL     1      -4.211  -9.006  10.778  0.00  0.00    +0.030 A 
ATOM     25  C   UNL     1      -4.496 -11.107   8.963  0.00  0.00    +0.035 A 
ATOM     26  C   UNL     1      -4.340  -8.738   9.415  0.00  0.00    +0.002 A 
ATOM     27  C   UNL     1      -4.483  -9.788   8.508  0.00  0.00    +0.002 A 
BRANCH  21   7
ATOM      2  O   UNL     1      -5.489 -13.302  10.915  0.00  0.00    -0.126 OA
ATOM      3  O   UNL     1      -3.295 -13.312  10.969  0.00  0.00    -0.126 OA
ATOM      7  N   UNL     1      -4.385 -12.732  10.759  0.00  0.00    +0.059 N 
ENDBRANCH  21   7
ENDBRANCH   5  19
BRANCH  11   8
ATOM      8  C   UNL     1      -5.183 -11.184  16.044  0.00  0.00    +0.047 C 
ATOM      9  C   UNL     1      -5.149 -12.662  16.479  0.00  0.00    +0.035 C 
ATOM     10  C   UNL     1      -5.028 -12.655  18.012  0.00  0.00    +0.078 C 
ATOM     12  C   UNL     1      -4.538 -10.495  17.210  0.00  0.00    -0.021 C 
ATOM     13  C   UNL     1      -4.463 -11.295  18.280  0.00  0.00    -0.012 C 
BRANCH  10   4
ATOM      4  N   UNL     1      -6.321 -12.833  18.664  0.00  0.00    -0.306 NA
ATOM     31  H   UNL     1      -6.291 -13.667  19.249  0.00  0.00    +0.123 HD
BRANCH   4  16
ATOM     16  C   UNL     1      -6.649 -11.682  19.497  0.00  0.00    +0.117 C 
BRANCH  16  20
ATOM      1 CL   UNL     1      -9.291  -8.343  16.491  0.00  0.00    -0.084 Cl
ATOM     20  C   UNL     1      -7.966 -11.065  19.106  0.00  0.00    -0.032 A 
ATOM     23  C   UNL     1      -8.013 -10.103  18.097  0.00  0.00    +0.025 A 
ATOM     24  C   UNL     1      -9.138 -11.455  19.752  0.00  0.00    +0.005 A 
ATOM     28  C   UNL     1      -9.232  -9.532  17.734  0.00  0.00    +0.041 A 
ATOM     29  C   UNL     1     -10.358 -10.883  19.390  0.00  0.00    +0.002 A 
ATOM     30  C   UNL     1     -10.406  -9.922  18.380  0.00  0.00    +0.020 A 
ENDBRANCH  16  20
ENDBRANCH   4  16
ENDBRANCH  10   4
ENDBRANCH  11   8
TORSDOF 6
ENDMDL
MODEL 5
REMARK VINA RESULT:      -6.5     28.210     29.564
REMARK  Name = 40780416
REMARK  8 active torsions:
REMARK  status: ('A' for Active; 'I' for Inactive)
REMARK    1  A    between atoms: N_4  and  C_10
REMARK    2  A    between atoms: N_4  and  C_16
REMARK    3  A    between atoms: N_5  and  C_19
REMARK    4  A    between atoms: N_7  and  C_21
REMARK    5  A    between atoms: C_8  and  C_11
REMARK    6  A    between atoms: C_14  and  C_17
REMARK    7  A    between atoms: C_15  and  C_18
REMARK    8  A    between atoms: C_16  and  C_20
REMARK                            x       y       z     vdW  Elec       q    Type
REMARK                         _______ _______ _______ _____ _____    ______ ____
ROOT
ATOM      5  N   UNL     1      -7.051 -10.481  16.714  0.00  0.00    -0.234 N 
ATOM      6  N   UNL     1      -6.084 -10.617  17.636  0.00  0.00    -0.171 NA
ATOM     11  C   UNL     1      -5.350 -11.214  15.557  0.00  0.00    +0.003 A 
ATOM     14  C   UNL     1      -6.664 -10.825  15.452  0.00  0.00    +0.046 A 
ATOM     15  C   UNL     1      -5.046 -11.065  16.924  0.00  0.00    +0.064 A 
ATOM     17  C   UNL     1      -7.560 -10.757  14.281  0.00  0.00    +0.066 C 
ATOM     18  C   UNL     1      -3.768 -11.342  17.601  0.00  0.00    +0.068 C 
ENDROOT
BRANCH   5  19
ATOM     19  C   UNL     1      -8.313 -10.023  17.096  0.00  0.00    +0.096 A 
ATOM     21  C   UNL     1      -9.285 -10.898  17.580  0.00  0.00    +0.151 A 
ATOM     22  C   UNL     1      -8.593  -8.660  16.989  0.00  0.00    +0.030 A 
ATOM     25  C   UNL     1     -10.537 -10.412  17.957  0.00  0.00    +0.035 A 
ATOM     26  C   UNL     1      -9.844  -8.173  17.366  0.00  0.00    +0.002 A 
ATOM     27  C   UNL     1     -10.816  -9.049  17.849  0.00  0.00    +0.002 A 
BRANCH  21   7
ATOM      2  O   UNL     1      -8.613 -12.739  18.796  0.00  0.00    -0.126 OA
ATOM      3  O   UNL     1      -9.236 -13.034  16.712  0.00  0.00    -0.126 OA
ATOM      7  N   UNL     1      -9.032 -12.294  17.702  0.00  0.00    +0.059 N 
ENDBRANCH  21   7
ENDBRANCH   5  19
BRANCH  11   8
ATOM      8  C   UNL     1      -4.438 -11.692  14.451  0.00  0.00    +0.047 C 
ATOM      9  C   UNL     1      -3.090 -10.947  14.410  0.00  0.00    +0.035 C 
ATOM     10  C   UNL     1      -2.045 -11.977  13.947  0.00  0.00    +0.078 C 
ATOM     12  C   UNL     1      -4.006 -13.124  14.570  0.00  0.00    -0.021 C 
ATOM     13  C   UNL     1      -2.707 -13.275  14.287  0.00  0.00    -0.012 C 
BRANCH  10   4
ATOM      4  N   UNL     1      -1.773 -11.875  12.517  0.00  0.00    -0.306 NA
ATOM     31  H   UNL     1      -2.433 -12.462  12.006  0.00  0.00    +0.123 HD
BRANCH   4  16
ATOM     16  C   UNL     1      -1.910 -10.498  12.056  0.00  0.00    +0.117 C 
BRANCH  16  20
ATOM      1 CL   UNL     1      -5.233 -12.821   8.781  0.00  0.00    -0.084 Cl
ATOM     20  C   UNL     1      -2.877 -10.386  10.907  0.00  0.00    -0.032 A 
ATOM     23  C   UNL     1      -3.531 -11.523  10.433  0.00  0.00    +0.025 A 
ATOM     24  C   UNL     1      -3.118  -9.145  10.318  0.00  0.00    +0.005 A 
ATOM     28  C   UNL     1      -4.427 -11.418   9.369  0.00  0.00    +0.041 A 
ATOM     29  C   UNL     1      -4.014  -9.041   9.253  0.00  0.00    +0.002 A 
ATOM     30  C   UNL     1      -4.669 -10.177   8.779  0.00  0.00    +0.020 A 
ENDBRANCH  16  20
ENDBRANCH   4  16
ENDBRANCH  10   4
ENDBRANCH  11   8
TORSDOF 6
ENDMDL
MODEL 6
REMARK VINA RESULT:      -6.5     27.696     30.471
REMARK  Name = 40780416
REMARK  8 active torsions:
REMARK  status: ('A' for Active; 'I' for Inactive)
REMARK    1  A    between atoms: N_4  and  C_10
REMARK    2  A    between atoms: N_4  and  C_16
REMARK    3  A    between atoms: N_5  and  C_19
REMARK    4  A    between atoms: N_7  and  C_21
REMARK    5  A    between atoms: C_8  and  C_11
REMARK    6  A    between atoms: C_14  and  C_17
REMARK    7  A    between atoms: C_15  and  C_18
REMARK    8  A    between atoms: C_16  and  C_20
REMARK                            x       y       z     vdW  Elec       q    Type
REMARK                         _______ _______ _______ _____ _____    ______ ____
ROOT
ATOM      5  N   UNL     1      -5.796 -10.412   8.830  0.00  0.00    -0.234 N 
ATOM      6  N   UNL     1      -5.566 -11.728   8.967  0.00  0.00    -0.171 NA
ATOM     11  C   UNL     1      -4.557 -10.525  10.625  0.00  0.00    +0.003 A 
ATOM     14  C   UNL     1      -5.213  -9.646   9.797  0.00  0.00    +0.046 A 
ATOM     15  C   UNL     1      -4.809 -11.792  10.066  0.00  0.00    +0.064 A 
ATOM     17  C   UNL     1      -5.329  -8.175   9.847  0.00  0.00    +0.066 C 
ATOM     18  C   UNL     1      -4.342 -13.103  10.549  0.00  0.00    +0.068 C 
ENDROOT
BRANCH   5  19
ATOM     19  C   UNL     1      -6.571  -9.951   7.765  0.00  0.00    +0.096 A 
ATOM     21  C   UNL     1      -7.934  -9.696   7.918  0.00  0.00    +0.151 A 
ATOM     22  C   UNL     1      -5.958  -9.746   6.528  0.00  0.00    +0.030 A 
ATOM     25  C   UNL     1      -8.684  -9.235   6.836  0.00  0.00    +0.035 A 
ATOM     26  C   UNL     1      -6.707  -9.285   5.446  0.00  0.00    +0.002 A 
ATOM     27  C   UNL     1      -8.070  -9.030   5.600  0.00  0.00    +0.002 A 
BRANCH  21   7
ATOM      2  O   UNL     1      -8.978 -11.048   9.468  0.00  0.00    -0.126 OA
ATOM      3  O   UNL     1      -8.758  -8.912   9.924  0.00  0.00    -0.126 OA
ATOM      7  N   UNL     1      -8.590  -9.895   9.166  0.00  0.00    +0.059 N 
ENDBRANCH  21   7
ENDBRANCH   5  19
BRANCH  11   8
ATOM      8  C   UNL     1      -3.746 -10.200  11.858  0.00  0.00    +0.047 C 
ATOM      9  C   UNL     1      -4.245 -10.929  13.121  0.00  0.00    +0.035 C 
ATOM     10  C   UNL     1      -2.994 -11.227  13.965  0.00  0.00    +0.078 C 
ATOM     12  C   UNL     1      -2.308 -10.624  11.794  0.00  0.00    -0.021 C 
ATOM     13  C   UNL     1      -1.901 -11.173  12.944  0.00  0.00    -0.012 C 
BRANCH  10   4
ATOM      4  N   UNL     1      -2.792 -10.235  15.015  0.00  0.00    -0.306 NA
ATOM     31  H   UNL     1      -3.607  -9.622  15.061  0.00  0.00    +0.123 HD
BRANCH   4  16
ATOM     16  C   UNL     1      -2.608 -10.875  16.312  0.00  0.00    +0.117 C 
BRANCH  16  20
ATOM      1 CL   UNL     1      -7.502  -9.194  16.934  0.00  0.00    -0.084 Cl
ATOM     20  C   UNL     1      -3.880 -10.882  17.118  0.00  0.00    -0.032 A 
ATOM     23  C   UNL     1      -4.975 -10.124  16.701  0.00  0.00    +0.025 A 
ATOM     24  C   UNL     1      -3.964 -11.646  18.282  0.00  0.00    +0.005 A 
ATOM     28  C   UNL     1      -6.153 -10.131  17.447  0.00  0.00    +0.041 A 
ATOM     29  C   UNL     1      -5.142 -11.652  19.029  0.00  0.00    +0.002 A 
ATOM     30  C   UNL     1      -6.237 -10.895  18.612  0.00  0.00    +0.020 A 
ENDBRANCH  16  20
ENDBRANCH   4  16
ENDBRANCH  10   4
ENDBRANCH  11   8
TORSDOF 6
ENDMDL
MODEL 7
REMARK VINA RESULT:      -6.5     28.609     31.058
REMARK  Name = 40780416
REMARK  8 active torsions:
REMARK  status: ('A' for Active; 'I' for Inactive)
REMARK    1  A    between atoms: N_4  and  C_10
REMARK    2  A    between atoms: N_4  and  C_16
REMARK    3  A    between atoms: N_5  and  C_19
REMARK    4  A    between atoms: N_7  and  C_21
REMARK    5  A    between atoms: C_8  and  C_11
REMARK    6  A    between atoms: C_14  and  C_17
REMARK    7  A    between atoms: C_15  and  C_18
REMARK    8  A    between atoms: C_16  and  C_20
REMARK                            x       y       z     vdW  Elec       q    Type
REMARK                         _______ _______ _______ _____ _____    ______ ____
ROOT
ATOM      5  N   UNL     1     -12.502  -6.687  13.115  0.00  0.00    -0.234 N 
ATOM      6  N   UNL     1     -12.400  -7.753  12.303  0.00  0.00    -0.171 NA
ATOM     11  C   UNL     1     -11.482  -8.169  14.353  0.00  0.00    +0.003 A 
ATOM     14  C   UNL     1     -11.967  -6.884  14.354  0.00  0.00    +0.046 A 
ATOM     15  C   UNL     1     -11.777  -8.656  13.065  0.00  0.00    +0.064 A 
ATOM     17  C   UNL     1     -11.963  -5.851  15.409  0.00  0.00    +0.066 C 
ATOM     18  C   UNL     1     -11.478  -9.989  12.512  0.00  0.00    +0.068 C 
ENDROOT
BRANCH   5  19
ATOM     19  C   UNL     1     -13.113  -5.521  12.652  0.00  0.00    +0.096 A 
ATOM     21  C   UNL     1     -14.482  -5.307  12.816  0.00  0.00    +0.151 A 
ATOM     22  C   UNL     1     -12.328  -4.559  12.017  0.00  0.00    +0.030 A 
ATOM     25  C   UNL     1     -15.065  -4.131  12.344  0.00  0.00    +0.035 A 
ATOM     26  C   UNL     1     -12.911  -3.383  11.545  0.00  0.00    +0.002 A 
ATOM     27  C   UNL     1     -14.279  -3.169  11.709  0.00  0.00    +0.002 A 
BRANCH  21   7
ATOM      2  O   UNL     1     -15.480  -6.188  14.699  0.00  0.00    -0.126 OA
ATOM      3  O   UNL     1     -15.846  -7.165  12.768  0.00  0.00    -0.126 OA
ATOM      7  N   UNL     1     -15.311  -6.269  13.460  0.00  0.00    +0.059 N 
ENDBRANCH  21   7
ENDBRANCH   5  19
BRANCH  11   8
ATOM      8  C   UNL     1     -10.789  -8.895  15.483  0.00  0.00    +0.047 C 
ATOM      9  C   UNL     1      -9.584  -8.123  16.052  0.00  0.00    +0.035 C 
ATOM     10  C   UNL     1      -9.544  -8.440  17.557  0.00  0.00    +0.078 C 
ATOM     12  C   UNL     1     -11.634  -9.110  16.703  0.00  0.00    -0.021 C 
ATOM     13  C   UNL     1     -10.951  -8.870  17.828  0.00  0.00    -0.012 C 
BRANCH  10   4
ATOM      4  N   UNL     1      -8.593  -9.502  17.867  0.00  0.00    -0.306 NA
ATOM     31  H   UNL     1      -9.062 -10.406  17.799  0.00  0.00    +0.123 HD
BRANCH   4  16
ATOM     16  C   UNL     1      -7.468  -9.484  16.939  0.00  0.00    +0.117 C 
BRANCH  16  20
ATOM      1 CL   UNL     1      -2.478 -10.900  16.437  0.00  0.00    -0.084 Cl
ATOM     20  C   UNL     1      -6.281 -10.234  17.482  0.00  0.00    -0.032 A 
ATOM     23  C   UNL     1      -5.071 -10.220  16.789  0.00  0.00    +0.025 A 
ATOM     24  C   UNL     1      -6.392 -10.943  18.678  0.00  0.00    +0.005 A 
ATOM     28  C   UNL     1      -3.971 -10.915  17.293  0.00  0.00    +0.041 A 
ATOM     29  C   UNL     1      -5.292 -11.638  19.181  0.00  0.00    +0.002 A 
ATOM     30  C   UNL     1      -4.081 -11.624  18.490  0.00  0.00    +0.020 A 
ENDBRANCH  16  20
ENDBRANCH   4  16
ENDBRANCH  10   4
ENDBRANCH  11   8
TORSDOF 6
ENDMDL
MODEL 8
REMARK VINA RESULT:      -6.4     28.084     30.036
REMARK  Name = 40780416
REMARK  8 active torsions:
REMARK  status: ('A' for Active; 'I' for Inactive)
REMARK    1  A    between atoms: N_4  and  C_10
REMARK    2  A    between atoms: N_4  and  C_16
REMARK    3  A    between atoms: N_5  and  C_19
REMARK    4  A    between atoms: N_7  and  C_21
REMARK    5  A    between atoms: C_8  and  C_11
REMARK    6  A    between atoms: C_14  and  C_17
REMARK    7  A    between atoms: C_15  and  C_18
REMARK    8  A    between atoms: C_16  and  C_20
REMARK                            x       y       z     vdW  Elec       q    Type
REMARK                         _______ _______ _______ _____ _____    ______ ____
ROOT
ATOM      5  N   UNL     1      -8.524 -11.197  19.080  0.00  0.00    -0.234 N 
ATOM      6  N   UNL     1      -7.495 -11.351  19.930  0.00  0.00    -0.171 NA
ATOM     11  C   UNL     1      -6.773 -11.103  17.777  0.00  0.00    +0.003 A 
ATOM     14  C   UNL     1      -8.146 -11.046  17.778  0.00  0.00    +0.046 A 
ATOM     15  C   UNL     1      -6.427 -11.291  19.129  0.00  0.00    +0.064 A 
ATOM     17  C   UNL     1      -9.106 -10.864  16.671  0.00  0.00    +0.066 C 
ATOM     18  C   UNL     1      -5.079 -11.423  19.707  0.00  0.00    +0.068 C 
ENDROOT
BRANCH   5  19
ATOM     19  C   UNL     1      -9.831 -11.207  19.567  0.00  0.00    +0.096 A 
ATOM     21  C   UNL     1     -10.467 -12.400  19.913  0.00  0.00    +0.151 A 
ATOM     22  C   UNL     1     -10.504  -9.992  19.707  0.00  0.00    +0.030 A 
ATOM     25  C   UNL     1     -11.774 -12.378  20.399  0.00  0.00    +0.035 A 
ATOM     26  C   UNL     1     -11.811  -9.970  20.193  0.00  0.00    +0.002 A 
ATOM     27  C   UNL     1     -12.446 -11.163  20.539  0.00  0.00    +0.002 A 
BRANCH  21   7
ATOM      2  O   UNL     1      -9.277 -14.167  20.795  0.00  0.00    -0.126 OA
ATOM      3  O   UNL     1      -9.782 -14.210  18.660  0.00  0.00    -0.126 OA
ATOM      7  N   UNL     1      -9.809 -13.656  19.783  0.00  0.00    +0.059 N 
ENDBRANCH  21   7
ENDBRANCH   5  19
BRANCH  11   8
ATOM      8  C   UNL     1      -5.845 -10.988  16.590  0.00  0.00    +0.047 C 
ATOM      9  C   UNL     1      -4.484 -10.358  16.942  0.00  0.00    +0.035 C 
ATOM     10  C   UNL     1      -3.447 -11.045  16.036  0.00  0.00    +0.078 C 
ATOM     12  C   UNL     1      -5.441 -12.298  15.980  0.00  0.00    -0.021 C 
ATOM     13  C   UNL     1      -4.139 -12.321  15.673  0.00  0.00    -0.012 C 
BRANCH  10   4
ATOM      4  N   UNL     1      -3.142 -10.249  14.853  0.00  0.00    -0.306 NA
ATOM     31  H   UNL     1      -2.253  -9.767  14.991  0.00  0.00    +0.123 HD
BRANCH   4  16
ATOM     16  C   UNL     1      -3.043 -11.092  13.667  0.00  0.00    +0.117 C 
BRANCH  16  20
ATOM      1 CL   UNL     1      -7.012  -8.982  11.029  0.00  0.00    -0.084 Cl
ATOM     20  C   UNL     1      -3.539 -10.383  12.434  0.00  0.00    -0.032 A 
ATOM     23  C   UNL     1      -4.888 -10.049  12.317  0.00  0.00    +0.025 A 
ATOM     24  C   UNL     1      -2.649 -10.061  11.410  0.00  0.00    +0.005 A 
ATOM     28  C   UNL     1      -5.347  -9.392  11.175  0.00  0.00    +0.041 A 
ATOM     29  C   UNL     1      -3.108  -9.405  10.267  0.00  0.00    +0.002 A 
ATOM     30  C   UNL     1      -4.457  -9.070  10.150  0.00  0.00    +0.020 A 
ENDBRANCH  16  20
ENDBRANCH   4  16
ENDBRANCH  10   4
ENDBRANCH  11   8
TORSDOF 6
ENDMDL
MODEL 9
REMARK VINA RESULT:      -6.3      7.125      9.468
REMARK  Name = 40780416
REMARK  8 active torsions:
REMARK  status: ('A' for Active; 'I' for Inactive)
REMARK    1  A    between atoms: N_4  and  C_10
REMARK    2  A    between atoms: N_4  and  C_16
REMARK    3  A    between atoms: N_5  and  C_19
REMARK    4  A    between atoms: N_7  and  C_21
REMARK    5  A    between atoms: C_8  and  C_11
REMARK    6  A    between atoms: C_14  and  C_17
REMARK    7  A    between atoms: C_15  and  C_18
REMARK    8  A    between atoms: C_16  and  C_20
REMARK                            x       y       z     vdW  Elec       q    Type
REMARK                         _______ _______ _______ _____ _____    ______ ____
ROOT
ATOM      5  N   UNL     1      15.349   8.749  19.843  0.00  0.00    -0.234 N 
ATOM      6  N   UNL     1      15.810   9.912  20.333  0.00  0.00    -0.171 NA
ATOM     11  C   UNL     1      17.195   8.173  20.858  0.00  0.00    +0.003 A 
ATOM     14  C   UNL     1      16.142   7.676  20.130  0.00  0.00    +0.046 A 
ATOM     15  C   UNL     1      16.939   9.554  20.952  0.00  0.00    +0.064 A 
ATOM     17  C   UNL     1      15.832   6.300  19.695  0.00  0.00    +0.066 C 
ATOM     18  C   UNL     1      17.750  10.581  21.630  0.00  0.00    +0.068 C 
ENDROOT
BRANCH   5  19
ATOM     19  C   UNL     1      14.157   8.727  19.118  0.00  0.00    +0.096 A 
ATOM     21  C   UNL     1      12.926   8.571  19.754  0.00  0.00    +0.151 A 
ATOM     22  C   UNL     1      14.213   8.867  17.731  0.00  0.00    +0.030 A 
ATOM     25  C   UNL     1      11.750   8.555  19.004  0.00  0.00    +0.035 A 
ATOM     26  C   UNL     1      13.038   8.851  16.980  0.00  0.00    +0.002 A 
ATOM     27  C   UNL     1      11.807   8.695  17.617  0.00  0.00    +0.002 A 
BRANCH  21   7
ATOM      2  O   UNL     1      12.715   9.455  21.874  0.00  0.00    -0.126 OA
ATOM      3  O   UNL     1      12.873   7.276  21.661  0.00  0.00    -0.126 OA
ATOM      7  N   UNL     1      12.834   8.427  21.168  0.00  0.00    +0.059 N 
ENDBRANCH  21   7
ENDBRANCH   5  19
BRANCH  11   8
ATOM      8  C   UNL     1      18.366   7.407  21.429  0.00  0.00    +0.047 C 
ATOM      9  C   UNL     1      19.006   6.434  20.419  0.00  0.00    +0.035 C 
ATOM     10  C   UNL     1      20.511   6.415  20.737  0.00  0.00    +0.078 C 
ATOM     12  C   UNL     1      19.535   8.256  21.835  0.00  0.00    -0.021 C 
ATOM     13  C   UNL     1      20.698   7.709  21.465  0.00  0.00    -0.012 C 
BRANCH  10   4
ATOM      4  N   UNL     1      20.879   5.276  21.570  0.00  0.00    -0.306 NA
ATOM     31  H   UNL     1      20.039   4.751  21.814  0.00  0.00    +0.123 HD
BRANCH   4  16
ATOM     16  C   UNL     1      21.803   4.393  20.869  0.00  0.00    +0.117 C 
BRANCH  16  20
ATOM      1 CL   UNL     1      25.105   0.424  21.583  0.00  0.00    -0.084 Cl
ATOM     20  C   UNL     1      22.533   3.479  21.817  0.00  0.00    -0.032 A 
ATOM     23  C   UNL     1      23.382   2.491  21.319  0.00  0.00    +0.025 A 
ATOM     24  C   UNL     1      22.362   3.622  23.194  0.00  0.00    +0.005 A 
ATOM     28  C   UNL     1      24.060   1.646  22.197  0.00  0.00    +0.041 A 
ATOM     29  C   UNL     1      23.039   2.775  24.073  0.00  0.00    +0.002 A 
ATOM     30  C   UNL     1      23.888   1.787  23.575  0.00  0.00    +0.020 A 
ENDBRANCH  16  20
ENDBRANCH   4  16
ENDBRANCH  10   4
ENDBRANCH  11   8
TORSDOF 6
ENDMDL
MODEL 10
REMARK VINA RESULT:      -6.3     29.312     32.427
REMARK  Name = 40780416
REMARK  8 active torsions:
REMARK  status: ('A' for Active; 'I' for Inactive)
REMARK    1  A    between atoms: N_4  and  C_10
REMARK    2  A    between atoms: N_4  and  C_16
REMARK    3  A    between atoms: N_5  and  C_19
REMARK    4  A    between atoms: N_7  and  C_21
REMARK    5  A    between atoms: C_8  and  C_11
REMARK    6  A    between atoms: C_14  and  C_17
REMARK    7  A    between atoms: C_15  and  C_18
REMARK    8  A    between atoms: C_16  and  C_20
REMARK                            x       y       z     vdW  Elec       q    Type
REMARK                         _______ _______ _______ _____ _____    ______ ____
ROOT
ATOM      5  N   UNL     1      -8.444 -10.408  18.279  0.00  0.00    -0.234 N 
ATOM      6  N   UNL     1      -8.513  -9.306  17.513  0.00  0.00    -0.171 NA
ATOM     11  C   UNL     1     -10.500  -9.725  18.559  0.00  0.00    +0.003 A 
ATOM     14  C   UNL     1      -9.608 -10.703  18.927  0.00  0.00    +0.046 A 
ATOM     15  C   UNL     1      -9.771  -8.892  17.689  0.00  0.00    +0.064 A 
ATOM     17  C   UNL     1      -9.765 -11.868  19.820  0.00  0.00    +0.066 C 
ATOM     18  C   UNL     1     -10.240  -7.681  16.993  0.00  0.00    +0.068 C 
ENDROOT
BRANCH   5  19
ATOM     19  C   UNL     1      -7.251 -11.129  18.349  0.00  0.00    +0.096 A 
ATOM     21  C   UNL     1      -6.977 -12.162  17.453  0.00  0.00    +0.151 A 
ATOM     22  C   UNL     1      -6.324 -10.798  19.337  0.00  0.00    +0.030 A 
ATOM     25  C   UNL     1      -5.775 -12.865  17.545  0.00  0.00    +0.035 A 
ATOM     26  C   UNL     1      -5.123 -11.500  19.430  0.00  0.00    +0.002 A 
ATOM     27  C   UNL     1      -4.849 -12.533  18.534  0.00  0.00    +0.002 A 
BRANCH  21   7
ATOM      2  O   UNL     1      -7.804 -11.981  15.308  0.00  0.00    -0.126 OA
ATOM      3  O   UNL     1      -8.783 -13.376  16.691  0.00  0.00    -0.126 OA
ATOM      7  N   UNL     1      -7.902 -12.525  16.432  0.00  0.00    +0.059 N 
ENDBRANCH  21   7
ENDBRANCH   5  19
BRANCH  11   8
ATOM      8  C   UNL     1     -11.940  -9.579  18.994  0.00  0.00    +0.047 C 
ATOM      9  C   UNL     1     -12.864 -10.664  18.409  0.00  0.00    +0.035 C 
ATOM     10  C   UNL     1     -13.928 -10.945  19.484  0.00  0.00    +0.078 C 
ATOM     12  C   UNL     1     -12.169  -9.728  20.469  0.00  0.00    -0.021 C 
ATOM     13  C   UNL     1     -13.255 -10.463  20.731  0.00  0.00    -0.012 C 
BRANCH  10   4
ATOM      4  N   UNL     1     -15.166 -10.216  19.232  0.00  0.00    -0.306 NA
ATOM     31  H   UNL     1     -15.821 -10.824  18.739  0.00  0.00    +0.123 HD
BRANCH   4  16
ATOM     16  C   UNL     1     -15.778  -9.777  20.480  0.00  0.00    +0.117 C 
BRANCH  16  20
ATOM      1 CL   UNL     1     -16.250  -5.225  22.975  0.00  0.00    -0.084 Cl
ATOM     20  C   UNL     1     -16.148  -8.317  20.440  0.00  0.00    -0.032 A 
ATOM     23  C   UNL     1     -16.039  -7.538  21.592  0.00  0.00    +0.025 A 
ATOM     24  C   UNL     1     -16.597  -7.745  19.250  0.00  0.00    +0.005 A 
ATOM     28  C   UNL     1     -16.381  -6.187  21.553  0.00  0.00    +0.041 A 
ATOM     29  C   UNL     1     -16.940  -6.393  19.212  0.00  0.00    +0.002 A 
ATOM     30  C   UNL     1     -16.831  -5.613  20.364  0.00  0.00    +0.020 A 
ENDBRANCH  16  20
ENDBRANCH   4  16
ENDBRANCH  10   4
ENDBRANCH  11   8
TORSDOF 6
ENDMDL
