MODEL 1
REMARK VINA RESULT:      -7.5      0.000      0.000
REMARK  Name = 51137139
REMARK  6 active torsions:
REMARK  status: ('A' for Active; 'I' for Inactive)
REMARK    1  A    between atoms: S_1  and  C_23
REMARK    2  A    between atoms: S_1  and  C_25
REMARK    3  A    between atoms: N_5  and  C_8
REMARK    4  A    between atoms: N_6  and  C_18
REMARK    5  A    between atoms: C_9  and  C_17
REMARK    6  A    between atoms: C_25  and  C_26
REMARK                            x       y       z     vdW  Elec       q    Type
REMARK                         _______ _______ _______ _____ _____    ______ ____
ROOT
ATOM      2  O   UNL     1      14.823   6.568  19.314  0.00  0.00    -0.439 OA
ATOM      7  N   UNL     1      15.198   7.580  21.307  0.00  0.00    -0.213 NA
ATOM     17  C   UNL     1      14.331   7.284  20.363  0.00  0.00    +0.201 A 
ATOM     19  C   UNL     1      16.365   7.016  20.852  0.00  0.00    +0.111 A 
ATOM     20  C   UNL     1      16.140   6.396  19.633  0.00  0.00    +0.155 A 
ATOM     21  C   UNL     1      17.654   6.981  21.402  0.00  0.00    +0.058 A 
ATOM     22  C   UNL     1      17.108   5.726  18.894  0.00  0.00    +0.050 A 
ATOM     23  C   UNL     1      18.659   6.314  20.686  0.00  0.00    +0.090 A 
ATOM     24  C   UNL     1      18.389   5.700  19.457  0.00  0.00    +0.030 A 
ENDROOT
BRANCH  17   9
ATOM      5  N   UNL     1      11.236   9.053  21.207  0.00  0.00    -0.299 NA
ATOM      9  C   UNL     1      12.863   7.634  20.293  0.00  0.00    +0.090 C 
ATOM     10  C   UNL     1      12.581   9.104  20.631  0.00  0.00    +0.097 C 
ATOM     11  C   UNL     1      11.246   7.885  22.087  0.00  0.00    +0.085 C 
ATOM     12  C   UNL     1      11.961   6.833  21.248  0.00  0.00    +0.029 C 
BRANCH   5   8
ATOM      6  N   UNL     1      11.689  12.532  23.607  0.00  0.00    -0.305 NA
ATOM      8  C   UNL     1      10.886  10.281  21.917  0.00  0.00    +0.059 C 
ATOM     13  C   UNL     1      11.703  11.458  21.377  0.00  0.00    +0.034 C 
ATOM     14  C   UNL     1      11.123  10.130  23.424  0.00  0.00    +0.034 C 
ATOM     15  C   UNL     1      11.422  12.733  22.176  0.00  0.00    +0.085 C 
ATOM     16  C   UNL     1      10.862  11.449  24.155  0.00  0.00    +0.085 C 
ATOM     18  C   UNL     1      11.465  13.773  24.349  0.00  0.00    +0.104 C 
ENDBRANCH   5   8
ENDBRANCH  17   9
BRANCH  23   1
ATOM      1  S   UNL     1      20.280   6.252  21.341  0.00  0.00    -0.003 S 
ATOM      3  O   UNL     1      21.029   7.398  20.848  0.00  0.00    -0.169 OA
ATOM      4  O   UNL     1      20.172   6.016  22.773  0.00  0.00    -0.169 OA
BRANCH   1  25
ATOM     25  C   UNL     1      20.997   4.804  20.600  0.00  0.00    +0.168 C 
ATOM     26  C   UNL     1      21.688   3.939  21.628  0.00  0.00    +0.028 C 
ENDBRANCH   1  25
ENDBRANCH  23   1
TORSDOF 4
ENDMDL
MODEL 2
REMARK VINA RESULT:      -6.8      4.029     10.157
REMARK  Name = 51137139
REMARK  6 active torsions:
REMARK  status: ('A' for Active; 'I' for Inactive)
REMARK    1  A    between atoms: S_1  and  C_23
REMARK    2  A    between atoms: S_1  and  C_25
REMARK    3  A    between atoms: N_5  and  C_8
REMARK    4  A    between atoms: N_6  and  C_18
REMARK    5  A    between atoms: C_9  and  C_17
REMARK    6  A    between atoms: C_25  and  C_26
REMARK                            x       y       z     vdW  Elec       q    Type
REMARK                         _______ _______ _______ _____ _____    ______ ____
ROOT
ATOM      2  O   UNL     1      17.971   7.208  21.527  0.00  0.00    -0.439 OA
ATOM      7  N   UNL     1      17.869   6.382  19.419  0.00  0.00    -0.213 NA
ATOM     17  C   UNL     1      18.622   6.668  20.459  0.00  0.00    +0.201 A 
ATOM     19  C   UNL     1      16.613   6.763  19.824  0.00  0.00    +0.111 A 
ATOM     20  C   UNL     1      16.671   7.270  21.113  0.00  0.00    +0.155 A 
ATOM     21  C   UNL     1      15.374   6.718  19.169  0.00  0.00    +0.058 A 
ATOM     22  C   UNL     1      15.579   7.746  21.827  0.00  0.00    +0.050 A 
ATOM     23  C   UNL     1      14.247   7.189  19.858  0.00  0.00    +0.090 A 
ATOM     24  C   UNL     1      14.350   7.693  21.160  0.00  0.00    +0.030 A 
ENDROOT
BRANCH  17   9
ATOM      5  N   UNL     1      21.717   4.988  21.470  0.00  0.00    -0.299 NA
ATOM      9  C   UNL     1      20.111   6.472  20.623  0.00  0.00    +0.090 C 
ATOM     10  C   UNL     1      20.524   4.994  20.621  0.00  0.00    +0.097 C 
ATOM     11  C   UNL     1      21.380   5.855  22.599  0.00  0.00    +0.085 C 
ATOM     12  C   UNL     1      20.698   7.040  21.927  0.00  0.00    +0.029 C 
BRANCH   5   8
ATOM      6  N   UNL     1      24.074   1.824  23.050  0.00  0.00    -0.305 NA
ATOM      8  C   UNL     1      22.092   3.642  21.895  0.00  0.00    +0.059 C 
ATOM     13  C   UNL     1      22.415   3.629  23.392  0.00  0.00    +0.034 C 
ATOM     14  C   UNL     1      23.296   3.131  21.098  0.00  0.00    +0.034 C 
ATOM     15  C   UNL     1      22.906   2.248  23.835  0.00  0.00    +0.085 C 
ATOM     16  C   UNL     1      23.759   1.767  21.616  0.00  0.00    +0.085 C 
ATOM     18  C   UNL     1      24.562   0.527  23.519  0.00  0.00    +0.104 C 
ENDBRANCH   5   8
ENDBRANCH  17   9
BRANCH  23   1
ATOM      1  S   UNL     1      12.684   7.150  19.072  0.00  0.00    -0.003 S 
ATOM      3  O   UNL     1      12.883   6.983  17.640  0.00  0.00    -0.169 OA
ATOM      4  O   UNL     1      11.844   6.213  19.802  0.00  0.00    -0.169 OA
BRANCH   1  25
ATOM     25  C   UNL     1      12.027   8.783  19.319  0.00  0.00    +0.168 C 
ATOM     26  C   UNL     1      12.841   9.825  18.586  0.00  0.00    +0.028 C 
ENDBRANCH   1  25
ENDBRANCH  23   1
TORSDOF 4
ENDMDL
MODEL 3
REMARK VINA RESULT:      -6.6     28.162     31.460
REMARK  Name = 51137139
REMARK  6 active torsions:
REMARK  status: ('A' for Active; 'I' for Inactive)
REMARK    1  A    between atoms: S_1  and  C_23
REMARK    2  A    between atoms: S_1  and  C_25
REMARK    3  A    between atoms: N_5  and  C_8
REMARK    4  A    between atoms: N_6  and  C_18
REMARK    5  A    between atoms: C_9  and  C_17
REMARK    6  A    between atoms: C_25  and  C_26
REMARK                            x       y       z     vdW  Elec       q    Type
REMARK                         _______ _______ _______ _____ _____    ______ ____
ROOT
ATOM      2  O   UNL     1     -12.172  -8.112  16.784  0.00  0.00    -0.439 OA
ATOM      7  N   UNL     1     -10.508  -6.774  16.027  0.00  0.00    -0.213 NA
ATOM     17  C   UNL     1     -10.861  -7.748  16.836  0.00  0.00    +0.201 A 
ATOM     19  C   UNL     1     -11.678  -6.460  15.381  0.00  0.00    +0.111 A 
ATOM     20  C   UNL     1     -12.700  -7.276  15.842  0.00  0.00    +0.155 A 
ATOM     21  C   UNL     1     -11.967  -5.503  14.398  0.00  0.00    +0.058 A 
ATOM     22  C   UNL     1     -14.016  -7.224  15.400  0.00  0.00    +0.050 A 
ATOM     23  C   UNL     1     -13.286  -5.420  13.925  0.00  0.00    +0.090 A 
ATOM     24  C   UNL     1     -14.288  -6.265  14.418  0.00  0.00    +0.030 A 
ENDROOT
BRANCH  17   9
ATOM      5  N   UNL     1      -8.171  -9.978  17.940  0.00  0.00    -0.299 NA
ATOM      9  C   UNL     1     -10.001  -8.517  17.813  0.00  0.00    +0.090 C 
ATOM     10  C   UNL     1      -8.561  -8.712  17.317  0.00  0.00    +0.097 C 
ATOM     11  C   UNL     1      -9.334 -10.852  17.780  0.00  0.00    +0.085 C 
ATOM     12  C   UNL     1     -10.499  -9.936  18.134  0.00  0.00    +0.029 C 
BRANCH   5   8
ATOM      6  N   UNL     1      -4.122 -10.298  16.690  0.00  0.00    -0.305 NA
ATOM      8  C   UNL     1      -6.964 -10.544  17.345  0.00  0.00    +0.059 C 
ATOM     13  C   UNL     1      -5.866 -10.685  18.403  0.00  0.00    +0.034 C 
ATOM     14  C   UNL     1      -6.463  -9.675  16.187  0.00  0.00    +0.034 C 
ATOM     15  C   UNL     1      -4.561 -11.184  17.777  0.00  0.00    +0.085 C 
ATOM     16  C   UNL     1      -5.139 -10.207  15.634  0.00  0.00    +0.085 C 
ATOM     18  C   UNL     1      -2.849 -10.759  16.136  0.00  0.00    +0.104 C 
ENDBRANCH   5   8
ENDBRANCH  17   9
BRANCH  23   1
ATOM      1  S   UNL     1     -13.684  -4.238  12.699  0.00  0.00    -0.003 S 
ATOM      3  O   UNL     1     -14.228  -4.929  11.539  0.00  0.00    -0.169 OA
ATOM      4  O   UNL     1     -14.449  -3.177  13.337  0.00  0.00    -0.169 OA
BRANCH   1  25
ATOM     25  C   UNL     1     -12.113  -3.564  12.212  0.00  0.00    +0.168 C 
ATOM     26  C   UNL     1     -11.958  -3.547  10.709  0.00  0.00    +0.028 C 
ENDBRANCH   1  25
ENDBRANCH  23   1
TORSDOF 4
ENDMDL
MODEL 4
REMARK VINA RESULT:      -6.5      3.730      9.862
REMARK  Name = 51137139
REMARK  6 active torsions:
REMARK  status: ('A' for Active; 'I' for Inactive)
REMARK    1  A    between atoms: S_1  and  C_23
REMARK    2  A    between atoms: S_1  and  C_25
REMARK    3  A    between atoms: N_5  and  C_8
REMARK    4  A    between atoms: N_6  and  C_18
REMARK    5  A    between atoms: C_9  and  C_17
REMARK    6  A    between atoms: C_25  and  C_26
REMARK                            x       y       z     vdW  Elec       q    Type
REMARK                         _______ _______ _______ _____ _____    ______ ____
ROOT
ATOM      2  O   UNL     1      17.512   9.223  20.795  0.00  0.00    -0.439 OA
ATOM      7  N   UNL     1      17.121   6.998  20.978  0.00  0.00    -0.213 NA
ATOM     17  C   UNL     1      17.993   7.978  21.070  0.00  0.00    +0.201 A 
ATOM     19  C   UNL     1      15.963   7.639  20.611  0.00  0.00    +0.111 A 
ATOM     20  C   UNL     1      16.198   9.001  20.497  0.00  0.00    +0.155 A 
ATOM     21  C   UNL     1      14.674   7.150  20.353  0.00  0.00    +0.058 A 
ATOM     22  C   UNL     1      15.241   9.943  20.142  0.00  0.00    +0.050 A 
ATOM     23  C   UNL     1      13.680   8.071  19.992  0.00  0.00    +0.090 A 
ATOM     24  C   UNL     1      13.960   9.439  19.889  0.00  0.00    +0.030 A 
ENDROOT
BRANCH  17   9
ATOM      5  N   UNL     1      21.318   6.479  21.413  0.00  0.00    -0.299 NA
ATOM      9  C   UNL     1      19.455   7.903  21.442  0.00  0.00    +0.090 C 
ATOM     10  C   UNL     1      20.258   6.966  20.529  0.00  0.00    +0.097 C 
ATOM     11  C   UNL     1      20.649   6.188  22.681  0.00  0.00    +0.085 C 
ATOM     12  C   UNL     1      19.735   7.393  22.867  0.00  0.00    +0.029 C 
BRANCH   5   8
ATOM      6  N   UNL     1      24.049   3.234  21.143  0.00  0.00    -0.305 NA
ATOM      8  C   UNL     1      22.007   5.312  20.868  0.00  0.00    +0.059 C 
ATOM     13  C   UNL     1      21.828   4.108  21.797  0.00  0.00    +0.034 C 
ATOM     14  C   UNL     1      23.499   5.599  20.669  0.00  0.00    +0.034 C 
ATOM     15  C   UNL     1      22.625   2.902  21.292  0.00  0.00    +0.085 C 
ATOM     16  C   UNL     1      24.242   4.345  20.201  0.00  0.00    +0.085 C 
ATOM     18  C   UNL     1      24.806   2.059  20.709  0.00  0.00    +0.104 C 
ENDBRANCH   5   8
ENDBRANCH  17   9
BRANCH  23   1
ATOM      1  S   UNL     1      12.060   7.498  19.661  0.00  0.00    -0.003 S 
ATOM      3  O   UNL     1      11.712   7.843  18.290  0.00  0.00    -0.169 OA
ATOM      4  O   UNL     1      11.980   6.114  20.104  0.00  0.00    -0.169 OA
BRANCH   1  25
ATOM     25  C   UNL     1      11.023   8.475  20.723  0.00  0.00    +0.168 C 
ATOM     26  C   UNL     1      10.601   7.702  21.951  0.00  0.00    +0.028 C 
ENDBRANCH   1  25
ENDBRANCH  23   1
TORSDOF 4
ENDMDL
MODEL 5
REMARK VINA RESULT:      -6.5      1.772      2.440
REMARK  Name = 51137139
REMARK  6 active torsions:
REMARK  status: ('A' for Active; 'I' for Inactive)
REMARK    1  A    between atoms: S_1  and  C_23
REMARK    2  A    between atoms: S_1  and  C_25
REMARK    3  A    between atoms: N_5  and  C_8
REMARK    4  A    between atoms: N_6  and  C_18
REMARK    5  A    between atoms: C_9  and  C_17
REMARK    6  A    between atoms: C_25  and  C_26
REMARK                            x       y       z     vdW  Elec       q    Type
REMARK                         _______ _______ _______ _____ _____    ______ ____
ROOT
ATOM      2  O   UNL     1      16.571   8.291  20.706  0.00  0.00    -0.439 OA
ATOM      7  N   UNL     1      16.880   6.449  19.424  0.00  0.00    -0.213 NA
ATOM     17  C   UNL     1      16.089   7.446  19.752  0.00  0.00    +0.201 A 
ATOM     19  C   UNL     1      17.980   6.641  20.223  0.00  0.00    +0.111 A 
ATOM     20  C   UNL     1      17.795   7.767  21.010  0.00  0.00    +0.155 A 
ATOM     21  C   UNL     1      19.174   5.916  20.349  0.00  0.00    +0.058 A 
ATOM     22  C   UNL     1      18.714   8.249  21.934  0.00  0.00    +0.050 A 
ATOM     23  C   UNL     1      20.128   6.371  21.272  0.00  0.00    +0.090 A 
ATOM     24  C   UNL     1      19.900   7.515  22.047  0.00  0.00    +0.030 A 
ENDROOT
BRANCH  17   9
ATOM      5  N   UNL     1      12.690   8.813  19.765  0.00  0.00    -0.299 NA
ATOM      9  C   UNL     1      14.719   7.778  19.208  0.00  0.00    +0.090 C 
ATOM     10  C   UNL     1      14.132   9.063  19.808  0.00  0.00    +0.097 C 
ATOM     11  C   UNL     1      12.533   7.427  20.207  0.00  0.00    +0.085 C 
ATOM     12  C   UNL     1      13.646   6.704  19.460  0.00  0.00    +0.029 C 
BRANCH   5   8
ATOM      6  N   UNL     1      11.596  11.155  23.138  0.00  0.00    -0.305 NA
ATOM      8  C   UNL     1      11.936   9.750  20.593  0.00  0.00    +0.059 C 
ATOM     13  C   UNL     1      12.822  10.931  20.999  0.00  0.00    +0.034 C 
ATOM     14  C   UNL     1      11.386   9.056  21.844  0.00  0.00    +0.034 C 
ATOM     15  C   UNL     1      12.078  11.873  21.951  0.00  0.00    +0.085 C 
ATOM     16  C   UNL     1      10.690  10.059  22.767  0.00  0.00    +0.085 C 
ATOM     18  C   UNL     1      10.932  12.077  24.060  0.00  0.00    +0.104 C 
ENDBRANCH   5   8
ENDBRANCH  17   9
BRANCH  23   1
ATOM      1  S   UNL     1      21.628   5.491  21.457  0.00  0.00    -0.003 S 
ATOM      3  O   UNL     1      21.437   4.442  22.449  0.00  0.00    -0.169 OA
ATOM      4  O   UNL     1      22.112   5.153  20.127  0.00  0.00    -0.169 OA
BRANCH   1  25
ATOM     25  C   UNL     1      22.748   6.677  22.164  0.00  0.00    +0.168 C 
ATOM     26  C   UNL     1      23.071   6.346  23.603  0.00  0.00    +0.028 C 
ENDBRANCH   1  25
ENDBRANCH  23   1
TORSDOF 4
ENDMDL
MODEL 6
REMARK VINA RESULT:      -6.4     27.673     29.801
REMARK  Name = 51137139
REMARK  6 active torsions:
REMARK  status: ('A' for Active; 'I' for Inactive)
REMARK    1  A    between atoms: S_1  and  C_23
REMARK    2  A    between atoms: S_1  and  C_25
REMARK    3  A    between atoms: N_5  and  C_8
REMARK    4  A    between atoms: N_6  and  C_18
REMARK    5  A    between atoms: C_9  and  C_17
REMARK    6  A    between atoms: C_25  and  C_26
REMARK                            x       y       z     vdW  Elec       q    Type
REMARK                         _______ _______ _______ _____ _____    ______ ____
ROOT
ATOM      2  O   UNL     1      -3.597 -11.142  17.104  0.00  0.00    -0.439 OA
ATOM      7  N   UNL     1      -5.195 -11.215  15.500  0.00  0.00    -0.213 NA
ATOM     17  C   UNL     1      -3.912 -11.138  15.779  0.00  0.00    +0.201 A 
ATOM     19  C   UNL     1      -5.785 -11.274  16.738  0.00  0.00    +0.111 A 
ATOM     20  C   UNL     1      -4.811 -11.229  17.724  0.00  0.00    +0.155 A 
ATOM     21  C   UNL     1      -7.131 -11.365  17.121  0.00  0.00    +0.058 A 
ATOM     22  C   UNL     1      -5.062 -11.269  19.090  0.00  0.00    +0.050 A 
ATOM     23  C   UNL     1      -7.425 -11.409  18.492  0.00  0.00    +0.090 A 
ATOM     24  C   UNL     1      -6.410 -11.361  19.455  0.00  0.00    +0.030 A 
ENDROOT
BRANCH  17   9
ATOM      5  N   UNL     1      -2.200 -11.014  12.543  0.00  0.00    -0.299 NA
ATOM      9  C   UNL     1      -2.746 -11.049  14.823  0.00  0.00    +0.090 C 
ATOM     10  C   UNL     1      -3.113 -10.376  13.493  0.00  0.00    +0.097 C 
ATOM     11  C   UNL     1      -2.215 -12.433  12.900  0.00  0.00    +0.085 C 
ATOM     12  C   UNL     1      -2.135 -12.402  14.421  0.00  0.00    +0.029 C 
BRANCH   5   8
ATOM      6  N   UNL     1      -4.678 -10.207   9.186  0.00  0.00    -0.305 NA
ATOM      8  C   UNL     1      -2.591 -10.787  11.154  0.00  0.00    +0.059 C 
ATOM     13  C   UNL     1      -3.201  -9.391  10.997  0.00  0.00    +0.034 C 
ATOM     14  C   UNL     1      -3.591 -11.848  10.684  0.00  0.00    +0.034 C 
ATOM     15  C   UNL     1      -3.707  -9.172   9.568  0.00  0.00    +0.085 C 
ATOM     16  C   UNL     1      -4.085 -11.549   9.267  0.00  0.00    +0.085 C 
ATOM     18  C   UNL     1      -5.190  -9.955   7.838  0.00  0.00    +0.104 C 
ENDBRANCH   5   8
ENDBRANCH  17   9
BRANCH  23   1
ATOM      1  S   UNL     1      -9.094 -11.521  19.007  0.00  0.00    -0.003 S 
ATOM      3  O   UNL     1      -9.472 -12.925  19.071  0.00  0.00    -0.169 OA
ATOM      4  O   UNL     1      -9.255 -10.672  20.178  0.00  0.00    -0.169 OA
BRANCH   1  25
ATOM     25  C   UNL     1     -10.015 -10.795  17.672  0.00  0.00    +0.168 C 
ATOM     26  C   UNL     1     -10.453  -9.386  18.001  0.00  0.00    +0.028 C 
ENDBRANCH   1  25
ENDBRANCH  23   1
TORSDOF 4
ENDMDL
MODEL 7
REMARK VINA RESULT:      -6.2      1.919      2.804
REMARK  Name = 51137139
REMARK  6 active torsions:
REMARK  status: ('A' for Active; 'I' for Inactive)
REMARK    1  A    between atoms: S_1  and  C_23
REMARK    2  A    between atoms: S_1  and  C_25
REMARK    3  A    between atoms: N_5  and  C_8
REMARK    4  A    between atoms: N_6  and  C_18
REMARK    5  A    between atoms: C_9  and  C_17
REMARK    6  A    between atoms: C_25  and  C_26
REMARK                            x       y       z     vdW  Elec       q    Type
REMARK                         _______ _______ _______ _____ _____    ______ ____
ROOT
ATOM      2  O   UNL     1      17.832   6.178  19.572  0.00  0.00    -0.439 OA
ATOM      7  N   UNL     1      17.738   7.505  21.407  0.00  0.00    -0.213 NA
ATOM     17  C   UNL     1      17.174   7.140  20.277  0.00  0.00    +0.201 A 
ATOM     19  C   UNL     1      18.866   6.724  21.463  0.00  0.00    +0.111 A 
ATOM     20  C   UNL     1      18.928   5.910  20.342  0.00  0.00    +0.155 A 
ATOM     21  C   UNL     1      19.889   6.638  22.419  0.00  0.00    +0.058 A 
ATOM     22  C   UNL     1      19.942   4.996  20.081  0.00  0.00    +0.050 A 
ATOM     23  C   UNL     1      20.930   5.726  22.191  0.00  0.00    +0.090 A 
ATOM     24  C   UNL     1      20.953   4.922  21.045  0.00  0.00    +0.030 A 
ENDROOT
BRANCH  17   9
ATOM      5  N   UNL     1      13.988   8.942  20.111  0.00  0.00    -0.299 NA
ATOM      9  C   UNL     1      15.891   7.647  19.661  0.00  0.00    +0.090 C 
ATOM     10  C   UNL     1      15.446   9.000  20.234  0.00  0.00    +0.097 C 
ATOM     11  C   UNL     1      13.627   7.590  20.538  0.00  0.00    +0.085 C 
ATOM     12  C   UNL     1      14.674   6.724  19.849  0.00  0.00    +0.029 C 
BRANCH   5   8
ATOM      6  N   UNL     1      11.840  10.739  23.307  0.00  0.00    -0.305 NA
ATOM      8  C   UNL     1      13.320   9.972  20.902  0.00  0.00    +0.059 C 
ATOM     13  C   UNL     1      13.997  10.115  22.268  0.00  0.00    +0.034 C 
ATOM     14  C   UNL     1      11.835   9.643  21.089  0.00  0.00    +0.034 C 
ATOM     15  C   UNL     1      13.249  11.120  23.148  0.00  0.00    +0.085 C 
ATOM     16  C   UNL     1      11.158  10.663  22.008  0.00  0.00    +0.085 C 
ATOM     18  C   UNL     1      11.151  11.680  24.192  0.00  0.00    +0.104 C 
ENDBRANCH   5   8
ENDBRANCH  17   9
BRANCH  23   1
ATOM      1  S   UNL     1      22.223   5.592  23.362  0.00  0.00    -0.003 S 
ATOM      3  O   UNL     1      23.331   6.434  22.934  0.00  0.00    -0.169 OA
ATOM      4  O   UNL     1      21.645   5.771  24.685  0.00  0.00    -0.169 OA
BRANCH   1  25
ATOM     25  C   UNL     1      22.768   3.906  23.224  0.00  0.00    +0.168 C 
ATOM     26  C   UNL     1      22.960   3.272  24.582  0.00  0.00    +0.028 C 
ENDBRANCH   1  25
ENDBRANCH  23   1
TORSDOF 4
ENDMDL
MODEL 8
REMARK VINA RESULT:      -6.2     18.213     21.008
REMARK  Name = 51137139
REMARK  6 active torsions:
REMARK  status: ('A' for Active; 'I' for Inactive)
REMARK    1  A    between atoms: S_1  and  C_23
REMARK    2  A    between atoms: S_1  and  C_25
REMARK    3  A    between atoms: N_5  and  C_8
REMARK    4  A    between atoms: N_6  and  C_18
REMARK    5  A    between atoms: C_9  and  C_17
REMARK    6  A    between atoms: C_25  and  C_26
REMARK                            x       y       z     vdW  Elec       q    Type
REMARK                         _______ _______ _______ _____ _____    ______ ____
ROOT
ATOM      2  O   UNL     1       9.867   5.955   1.901  0.00  0.00    -0.439 OA
ATOM      7  N   UNL     1      10.975   4.522   3.263  0.00  0.00    -0.213 NA
ATOM     17  C   UNL     1      10.607   4.819   2.036  0.00  0.00    +0.201 A 
ATOM     19  C   UNL     1      10.437   5.541   4.010  0.00  0.00    +0.111 A 
ATOM     20  C   UNL     1       9.758   6.420   3.181  0.00  0.00    +0.155 A 
ATOM     21  C   UNL     1      10.473   5.800   5.387  0.00  0.00    +0.058 A 
ATOM     22  C   UNL     1       9.094   7.563   3.611  0.00  0.00    +0.050 A 
ATOM     23  C   UNL     1       9.815   6.945   5.861  0.00  0.00    +0.090 A 
ATOM     24  C   UNL     1       9.140   7.807   4.988  0.00  0.00    +0.030 A 
ENDROOT
BRANCH  17   9
ATOM      5  N   UNL     1      12.549   3.734  -0.875  0.00  0.00    -0.299 NA
ATOM      9  C   UNL     1      10.900   4.068   0.758  0.00  0.00    +0.090 C 
ATOM     10  C   UNL     1      12.391   3.749   0.580  0.00  0.00    +0.097 C 
ATOM     11  C   UNL     1      11.784   4.888  -1.350  0.00  0.00    +0.085 C 
ATOM     12  C   UNL     1      10.502   4.805  -0.532  0.00  0.00    +0.029 C 
BRANCH   5   8
ATOM      6  N   UNL     1      16.467   5.272  -1.467  0.00  0.00    -0.305 NA
ATOM      8  C   UNL     1      13.950   3.790  -1.285  0.00  0.00    +0.059 C 
ATOM     13  C   UNL     1      14.850   4.024  -0.069  0.00  0.00    +0.034 C 
ATOM     14  C   UNL     1      14.175   4.895  -2.321  0.00  0.00    +0.034 C 
ATOM     15  C   UNL     1      16.313   4.184  -0.491  0.00  0.00    +0.085 C 
ATOM     16  C   UNL     1      15.660   5.027  -2.670  0.00  0.00    +0.085 C 
ATOM     18  C   UNL     1      17.876   5.446  -1.822  0.00  0.00    +0.104 C 
ENDBRANCH   5   8
ENDBRANCH  17   9
BRANCH  23   1
ATOM      1  S   UNL     1       9.837   7.299   7.574  0.00  0.00    -0.003 S 
ATOM      3  O   UNL     1      10.771   8.389   7.816  0.00  0.00    -0.169 OA
ATOM      4  O   UNL     1       8.457   7.413   8.021  0.00  0.00    -0.169 OA
BRANCH   1  25
ATOM     25  C   UNL     1      10.535   5.842   8.314  0.00  0.00    +0.168 C 
ATOM     26  C   UNL     1       9.482   5.020   9.021  0.00  0.00    +0.028 C 
ENDBRANCH   1  25
ENDBRANCH  23   1
TORSDOF 4
ENDMDL
MODEL 9
REMARK VINA RESULT:      -6.2     27.911     31.248
REMARK  Name = 51137139
REMARK  6 active torsions:
REMARK  status: ('A' for Active; 'I' for Inactive)
REMARK    1  A    between atoms: S_1  and  C_23
REMARK    2  A    between atoms: S_1  and  C_25
REMARK    3  A    between atoms: N_5  and  C_8
REMARK    4  A    between atoms: N_6  and  C_18
REMARK    5  A    between atoms: C_9  and  C_17
REMARK    6  A    between atoms: C_25  and  C_26
REMARK                            x       y       z     vdW  Elec       q    Type
REMARK                         _______ _______ _______ _____ _____    ______ ____
ROOT
ATOM      2  O   UNL     1      -8.064 -10.116  18.203  0.00  0.00    -0.439 OA
ATOM      7  N   UNL     1      -8.270 -11.647  19.860  0.00  0.00    -0.213 NA
ATOM     17  C   UNL     1      -7.466 -11.010  19.038  0.00  0.00    +0.201 A 
ATOM     19  C   UNL     1      -9.507 -11.139  19.549  0.00  0.00    +0.111 A 
ATOM     20  C   UNL     1      -9.386 -10.202  18.534  0.00  0.00    +0.155 A 
ATOM     21  C   UNL     1     -10.780 -11.413  20.069  0.00  0.00    +0.058 A 
ATOM     22  C   UNL     1     -10.445  -9.494  17.978  0.00  0.00    +0.050 A 
ATOM     23  C   UNL     1     -11.875 -10.718  19.534  0.00  0.00    +0.090 A 
ATOM     24  C   UNL     1     -11.708  -9.778  18.509  0.00  0.00    +0.030 A 
ENDROOT
BRANCH  17   9
ATOM      5  N   UNL     1      -4.210 -10.972  17.357  0.00  0.00    -0.299 NA
ATOM      9  C   UNL     1      -5.966 -11.138  18.903  0.00  0.00    +0.090 C 
ATOM     10  C   UNL     1      -5.383 -10.225  17.815  0.00  0.00    +0.097 C 
ATOM     11  C   UNL     1      -4.662 -12.360  17.258  0.00  0.00    +0.085 C 
ATOM     12  C   UNL     1      -5.468 -12.547  18.537  0.00  0.00    +0.029 C 
BRANCH   5   8
ATOM      6  N   UNL     1      -2.382 -10.971  13.521  0.00  0.00    -0.305 NA
ATOM      8  C   UNL     1      -3.687 -10.466  16.091  0.00  0.00    +0.059 C 
ATOM     13  C   UNL     1      -4.422 -11.114  14.915  0.00  0.00    +0.034 C 
ATOM     14  C   UNL     1      -2.182 -10.730  15.975  0.00  0.00    +0.034 C 
ATOM     15  C   UNL     1      -3.819 -10.671  13.579  0.00  0.00    +0.085 C 
ATOM     16  C   UNL     1      -1.653 -10.299  14.605  0.00  0.00    +0.085 C 
ATOM     18  C   UNL     1      -1.832 -10.588  12.220  0.00  0.00    +0.104 C 
ENDBRANCH   5   8
ENDBRANCH  17   9
BRANCH  23   1
ATOM      1  S   UNL     1     -13.479 -11.034  20.158  0.00  0.00    -0.003 S 
ATOM      3  O   UNL     1     -14.042 -12.173  19.447  0.00  0.00    -0.169 OA
ATOM      4  O   UNL     1     -13.394 -11.055  21.610  0.00  0.00    -0.169 OA
BRANCH   1  25
ATOM     25  C   UNL     1     -14.424  -9.605  19.684  0.00  0.00    +0.168 C 
ATOM     26  C   UNL     1     -15.239  -9.072  20.839  0.00  0.00    +0.028 C 
ENDBRANCH   1  25
ENDBRANCH  23   1
TORSDOF 4
ENDMDL
MODEL 10
REMARK VINA RESULT:      -6.1     18.750     21.426
REMARK  Name = 51137139
REMARK  6 active torsions:
REMARK  status: ('A' for Active; 'I' for Inactive)
REMARK    1  A    between atoms: S_1  and  C_23
REMARK    2  A    between atoms: S_1  and  C_25
REMARK    3  A    between atoms: N_5  and  C_8
REMARK    4  A    between atoms: N_6  and  C_18
REMARK    5  A    between atoms: C_9  and  C_17
REMARK    6  A    between atoms: C_25  and  C_26
REMARK                            x       y       z     vdW  Elec       q    Type
REMARK                         _______ _______ _______ _____ _____    ______ ____
ROOT
ATOM      2  O   UNL     1      11.486   4.461   2.830  0.00  0.00    -0.439 OA
ATOM      7  N   UNL     1      12.383   6.507   3.213  0.00  0.00    -0.213 NA
ATOM     17  C   UNL     1      12.382   5.422   2.470  0.00  0.00    +0.201 A 
ATOM     19  C   UNL     1      11.408   6.252   4.146  0.00  0.00    +0.111 A 
ATOM     20  C   UNL     1      10.857   5.000   3.916  0.00  0.00    +0.155 A 
ATOM     21  C   UNL     1      10.927   7.016   5.218  0.00  0.00    +0.058 A 
ATOM     22  C   UNL     1       9.844   4.428   4.676  0.00  0.00    +0.050 A 
ATOM     23  C   UNL     1       9.904   6.473   6.009  0.00  0.00    +0.090 A 
ATOM     24  C   UNL     1       9.375   5.204   5.742  0.00  0.00    +0.030 A 
ENDROOT
BRANCH  17   9
ATOM      5  N   UNL     1      13.141   4.489  -0.991  0.00  0.00    -0.299 NA
ATOM      9  C   UNL     1      13.243   5.104   1.270  0.00  0.00    +0.090 C 
ATOM     10  C   UNL     1      12.570   5.466  -0.062  0.00  0.00    +0.097 C 
ATOM     11  C   UNL     1      13.129   3.221  -0.260  0.00  0.00    +0.085 C 
ATOM     12  C   UNL     1      13.627   3.622   1.123  0.00  0.00    +0.029 C 
BRANCH   5   8
ATOM      6  N   UNL     1      10.521   2.991  -3.983  0.00  0.00    -0.305 NA
ATOM      8  C   UNL     1      12.399   4.413  -2.246  0.00  0.00    +0.059 C 
ATOM     13  C   UNL     1      10.893   4.386  -1.972  0.00  0.00    +0.034 C 
ATOM     14  C   UNL     1      12.806   3.173  -3.050  0.00  0.00    +0.034 C 
ATOM     15  C   UNL     1      10.102   4.206  -3.271  0.00  0.00    +0.085 C 
ATOM     16  C   UNL     1      11.952   3.034  -4.313  0.00  0.00    +0.085 C 
ATOM     18  C   UNL     1       9.722   2.807  -5.195  0.00  0.00    +0.104 C 
ENDBRANCH   5   8
ENDBRANCH  17   9
BRANCH  23   1
ATOM      1  S   UNL     1       9.281   7.398   7.357  0.00  0.00    -0.003 S 
ATOM      3  O   UNL     1      10.323   8.297   7.831  0.00  0.00    -0.169 OA
ATOM      4  O   UNL     1       7.984   7.930   6.968  0.00  0.00    -0.169 OA
BRANCH   1  25
ATOM     25  C   UNL     1       9.017   6.190   8.634  0.00  0.00    +0.168 C 
ATOM     26  C   UNL     1      10.296   5.463   8.983  0.00  0.00    +0.028 C 
ENDBRANCH   1  25
ENDBRANCH  23   1
TORSDOF 4
ENDMDL
