MODEL 1
REMARK VINA RESULT:      -5.9      0.000      0.000
REMARK  Name = 75536965
REMARK  1 active torsions:
REMARK  status: ('A' for Active; 'I' for Inactive)
REMARK    1  A    between atoms: C_14  and  C_15
REMARK                            x       y       z     vdW  Elec       q    Type
REMARK                         _______ _______ _______ _____ _____    ______ ____
ROOT
ATOM      1  O   UNL     1      16.069  12.183  15.102  0.00  0.00    -0.253 OA
ATOM      2  O   UNL     1      11.414   7.355  17.080  0.00  0.00    -0.268 OA
ATOM      3  N   UNL     1      14.796  10.781  16.498  0.00  0.00    -0.278 N 
ATOM      4  N   UNL     1      12.586   9.352  17.389  0.00  0.00    -0.293 N 
ATOM      5  N   UNL     1      15.988  12.440  17.433  0.00  0.00    -0.297 N 
ATOM      8  C   UNL     1      14.633  10.591  17.929  0.00  0.00    +0.112 C 
ATOM      9  C   UNL     1      13.160  10.390  18.269  0.00  0.00    +0.132 C 
ATOM     10  C   UNL     1      15.264  11.843  18.530  0.00  0.00    +0.129 C 
ATOM     11  C   UNL     1      14.173   9.854  15.568  0.00  0.00    +0.128 C 
ATOM     12  C   UNL     1      12.710   9.633  15.952  0.00  0.00    +0.127 C 
ATOM     13  C   UNL     1      15.665  11.836  16.203  0.00  0.00    +0.303 C 
ATOM     14  C   UNL     1      11.925   8.199  17.814  0.00  0.00    +0.267 C 
ATOM     19  H   UNL     1      16.594  13.250  17.520  0.00  0.00    +0.150 HD
ENDROOT
BRANCH  14  15
ATOM      6  N   UNL     1      10.760   8.460  19.893  0.00  0.00    -0.247 NA
ATOM      7  N   UNL     1      12.725   6.986  21.248  0.00  0.00    -0.259 NA
ATOM     15  C   UNL     1      11.833   7.946  19.258  0.00  0.00    +0.144 A 
ATOM     16  C   UNL     1      12.797   7.222  19.923  0.00  0.00    +0.143 A 
ATOM     17  C   UNL     1      10.688   8.223  21.218  0.00  0.00    +0.131 A 
ATOM     18  C   UNL     1      11.653   7.499  21.883  0.00  0.00    +0.130 A 
ENDBRANCH  14  15
TORSDOF 1
ENDMDL
MODEL 2
REMARK VINA RESULT:      -5.4     27.323     29.165
REMARK  Name = 75536965
REMARK  1 active torsions:
REMARK  status: ('A' for Active; 'I' for Inactive)
REMARK    1  A    between atoms: C_14  and  C_15
REMARK                            x       y       z     vdW  Elec       q    Type
REMARK                         _______ _______ _______ _____ _____    ______ ____
ROOT
ATOM      1  O   UNL     1      -3.221 -12.261  19.804  0.00  0.00    -0.253 OA
ATOM      2  O   UNL     1      -9.966 -10.445  19.461  0.00  0.00    -0.268 OA
ATOM      3  N   UNL     1      -5.227 -11.353  18.974  0.00  0.00    -0.278 N 
ATOM      4  N   UNL     1      -7.955 -11.142  18.494  0.00  0.00    -0.293 N 
ATOM      5  N   UNL     1      -3.468 -11.533  17.587  0.00  0.00    -0.297 N 
ATOM      8  C   UNL     1      -5.661 -10.713  17.743  0.00  0.00    +0.112 C 
ATOM      9  C   UNL     1      -7.039 -11.226  17.340  0.00  0.00    +0.132 C 
ATOM     10  C   UNL     1      -4.542 -11.038  16.758  0.00  0.00    +0.129 C 
ATOM     11  C   UNL     1      -6.118 -11.395  20.121  0.00  0.00    +0.128 C 
ATOM     12  C   UNL     1      -7.504 -11.871  19.687  0.00  0.00    +0.127 C 
ATOM     13  C   UNL     1      -3.895 -11.773  18.906  0.00  0.00    +0.303 C 
ATOM     14  C   UNL     1      -9.185 -10.483  18.510  0.00  0.00    +0.267 C 
ATOM     19  H   UNL     1      -2.539 -11.760  17.245  0.00  0.00    +0.150 HD
ENDROOT
BRANCH  14  15
ATOM      6  N   UNL     1     -10.271 -10.458  16.373  0.00  0.00    -0.247 NA
ATOM      7  N   UNL     1      -9.670  -7.739  16.031  0.00  0.00    -0.259 NA
ATOM     15  C   UNL     1      -9.595  -9.753  17.303  0.00  0.00    +0.144 A 
ATOM     16  C   UNL     1      -9.301  -8.419  17.135  0.00  0.00    +0.143 A 
ATOM     17  C   UNL     1     -10.639  -9.778  15.269  0.00  0.00    +0.131 A 
ATOM     18  C   UNL     1     -10.345  -8.444  15.101  0.00  0.00    +0.130 A 
ENDBRANCH  14  15
TORSDOF 1
ENDMDL
MODEL 3
REMARK VINA RESULT:      -5.3      3.663      5.423
REMARK  Name = 75536965
REMARK  1 active torsions:
REMARK  status: ('A' for Active; 'I' for Inactive)
REMARK    1  A    between atoms: C_14  and  C_15
REMARK                            x       y       z     vdW  Elec       q    Type
REMARK                         _______ _______ _______ _____ _____    ______ ____
ROOT
ATOM      1  O   UNL     1      12.212  12.469  24.855  0.00  0.00    -0.253 OA
ATOM      2  O   UNL     1      10.397   8.346  19.506  0.00  0.00    -0.268 OA
ATOM      3  N   UNL     1      12.312  11.374  22.775  0.00  0.00    -0.278 N 
ATOM      4  N   UNL     1      11.975   9.335  20.918  0.00  0.00    -0.293 N 
ATOM      5  N   UNL     1      14.146  12.432  23.526  0.00  0.00    -0.297 N 
ATOM      8  C   UNL     1      13.269  11.271  21.686  0.00  0.00    +0.112 C 
ATOM      9  C   UNL     1      13.339   9.834  21.180  0.00  0.00    +0.132 C 
ATOM     10  C   UNL     1      14.563  11.800  22.297  0.00  0.00    +0.129 C 
ATOM     11  C   UNL     1      10.979  10.814  22.623  0.00  0.00    +0.128 C 
ATOM     12  C   UNL     1      11.071   9.390  22.075  0.00  0.00    +0.127 C 
ATOM     13  C   UNL     1      12.807  12.132  23.840  0.00  0.00    +0.303 C 
ATOM     14  C   UNL     1      11.523   8.797  19.712  0.00  0.00    +0.267 C 
ATOM     19  H   UNL     1      14.762  12.962  24.135  0.00  0.00    +0.150 HD
ENDROOT
BRANCH  14  15
ATOM      6  N   UNL     1      12.801   9.964  18.053  0.00  0.00    -0.247 NA
ATOM      7  N   UNL     1      13.787   7.547  17.025  0.00  0.00    -0.259 NA
ATOM     15  C   UNL     1      12.452   8.771  18.575  0.00  0.00    +0.144 A 
ATOM     16  C   UNL     1      12.936   7.585  18.070  0.00  0.00    +0.143 A 
ATOM     17  C   UNL     1      13.652   9.927  17.008  0.00  0.00    +0.131 A 
ATOM     18  C   UNL     1      14.136   8.741  16.504  0.00  0.00    +0.130 A 
ENDBRANCH  14  15
TORSDOF 1
ENDMDL
MODEL 4
REMARK VINA RESULT:      -5.3      4.881      6.314
REMARK  Name = 75536965
REMARK  1 active torsions:
REMARK  status: ('A' for Active; 'I' for Inactive)
REMARK    1  A    between atoms: C_14  and  C_15
REMARK                            x       y       z     vdW  Elec       q    Type
REMARK                         _______ _______ _______ _____ _____    ______ ____
ROOT
ATOM      1  O   UNL     1      11.709  15.113  25.120  0.00  0.00    -0.253 OA
ATOM      2  O   UNL     1      12.913  11.140  19.493  0.00  0.00    -0.268 OA
ATOM      3  N   UNL     1      11.967  13.195  23.782  0.00  0.00    -0.278 N 
ATOM      4  N   UNL     1      11.830  11.600  21.511  0.00  0.00    -0.293 N 
ATOM      5  N   UNL     1      11.073  12.970  25.832  0.00  0.00    -0.297 N 
ATOM      8  C   UNL     1      11.805  11.762  23.958  0.00  0.00    +0.112 C 
ATOM      9  C   UNL     1      11.131  11.153  22.733  0.00  0.00    +0.132 C 
ATOM     10  C   UNL     1      11.004  11.649  25.252  0.00  0.00    +0.129 C 
ATOM     11  C   UNL     1      12.556  13.712  22.559  0.00  0.00    +0.128 C 
ATOM     12  C   UNL     1      11.896  13.058  21.345  0.00  0.00    +0.127 C 
ATOM     13  C   UNL     1      11.602  13.910  24.928  0.00  0.00    +0.303 C 
ATOM     14  C   UNL     1      12.365  10.766  20.529  0.00  0.00    +0.267 C 
ATOM     19  H   UNL     1      10.710  13.212  26.748  0.00  0.00    +0.150 HD
ENDROOT
BRANCH  14  15
ATOM      6  N   UNL     1      13.373   8.728  21.287  0.00  0.00    -0.247 NA
ATOM      7  N   UNL     1      11.092   7.262  20.569  0.00  0.00    -0.259 NA
ATOM     15  C   UNL     1      12.291   9.314  20.738  0.00  0.00    +0.144 A 
ATOM     16  C   UNL     1      11.171   8.595  20.386  0.00  0.00    +0.143 A 
ATOM     17  C   UNL     1      13.294   7.395  21.471  0.00  0.00    +0.131 A 
ATOM     18  C   UNL     1      12.174   6.675  21.119  0.00  0.00    +0.130 A 
ENDBRANCH  14  15
TORSDOF 1
ENDMDL
MODEL 5
REMARK VINA RESULT:      -5.2     26.717     28.035
REMARK  Name = 75536965
REMARK  1 active torsions:
REMARK  status: ('A' for Active; 'I' for Inactive)
REMARK    1  A    between atoms: C_14  and  C_15
REMARK                            x       y       z     vdW  Elec       q    Type
REMARK                         _______ _______ _______ _____ _____    ______ ____
ROOT
ATOM      1  O   UNL     1      -6.332 -10.506  20.360  0.00  0.00    -0.253 OA
ATOM      2  O   UNL     1      -2.414 -12.163  14.810  0.00  0.00    -0.268 OA
ATOM      3  N   UNL     1      -5.692 -10.803  18.116  0.00  0.00    -0.278 N 
ATOM      4  N   UNL     1      -4.015 -10.856  15.901  0.00  0.00    -0.293 N 
ATOM      5  N   UNL     1      -7.557  -9.631  18.560  0.00  0.00    -0.297 N 
ATOM      8  C   UNL     1      -6.267 -10.518  16.812  0.00  0.00    +0.112 C 
ATOM      9  C   UNL     1      -5.197  -9.971  15.872  0.00  0.00    +0.132 C 
ATOM     10  C   UNL     1      -7.401  -9.547  17.127  0.00  0.00    +0.129 C 
ATOM     11  C   UNL     1      -4.470 -11.584  18.213  0.00  0.00    +0.128 C 
ATOM     12  C   UNL     1      -3.428 -11.047  17.233  0.00  0.00    +0.127 C 
ATOM     13  C   UNL     1      -6.500 -10.341  19.159  0.00  0.00    +0.303 C 
ATOM     14  C   UNL     1      -3.422 -11.456  14.790  0.00  0.00    +0.267 C 
ATOM     19  H   UNL     1      -8.292  -9.168  19.084  0.00  0.00    +0.150 HD
ENDROOT
BRANCH  14  15
ATOM      6  N   UNL     1      -3.507 -10.297  12.694  0.00  0.00    -0.247 NA
ATOM      7  N   UNL     1      -5.712 -11.823  11.870  0.00  0.00    -0.259 NA
ATOM     15  C   UNL     1      -4.047 -11.253  13.476  0.00  0.00    +0.144 A 
ATOM     16  C   UNL     1      -5.129 -12.002  13.071  0.00  0.00    +0.143 A 
ATOM     17  C   UNL     1      -4.091 -10.118  11.492  0.00  0.00    +0.131 A 
ATOM     18  C   UNL     1      -5.173 -10.867  11.087  0.00  0.00    +0.130 A 
ENDBRANCH  14  15
TORSDOF 1
ENDMDL
MODEL 6
REMARK VINA RESULT:      -5.1     30.250     32.073
REMARK  Name = 75536965
REMARK  1 active torsions:
REMARK  status: ('A' for Active; 'I' for Inactive)
REMARK    1  A    between atoms: C_14  and  C_15
REMARK                            x       y       z     vdW  Elec       q    Type
REMARK                         _______ _______ _______ _____ _____    ______ ____
ROOT
ATOM      1  O   UNL     1     -17.561   2.816  21.917  0.00  0.00    -0.253 OA
ATOM      2  O   UNL     1     -18.361   0.077  28.301  0.00  0.00    -0.268 OA
ATOM      3  N   UNL     1     -17.092   2.238  24.149  0.00  0.00    -0.278 N 
ATOM      4  N   UNL     1     -17.585   1.722  26.835  0.00  0.00    -0.293 N 
ATOM      5  N   UNL     1     -15.777   3.745  23.126  0.00  0.00    -0.297 N 
ATOM      8  C   UNL     1     -16.035   2.514  25.107  0.00  0.00    +0.112 C 
ATOM      9  C   UNL     1     -16.630   2.792  26.483  0.00  0.00    +0.132 C 
ATOM     10  C   UNL     1     -15.286   3.688  24.483  0.00  0.00    +0.129 C 
ATOM     11  C   UNL     1     -18.125   1.267  24.471  0.00  0.00    +0.128 C 
ATOM     12  C   UNL     1     -18.677   1.538  25.870  0.00  0.00    +0.127 C 
ATOM     13  C   UNL     1     -16.897   2.913  22.940  0.00  0.00    +0.303 C 
ATOM     14  C   UNL     1     -17.543   0.943  27.991  0.00  0.00    +0.267 C 
ATOM     19  H   UNL     1     -15.414   4.368  22.412  0.00  0.00    +0.150 HD
ENDROOT
BRANCH  14  15
ATOM      6  N   UNL     1     -15.410   0.266  28.852  0.00  0.00    -0.247 NA
ATOM      7  N   UNL     1     -15.412   2.385  30.690  0.00  0.00    -0.259 NA
ATOM     15  C   UNL     1     -16.428   1.148  28.925  0.00  0.00    +0.144 A 
ATOM     16  C   UNL     1     -16.428   2.188  29.827  0.00  0.00    +0.143 A 
ATOM     17  C   UNL     1     -14.394   0.463  29.715  0.00  0.00    +0.131 A 
ATOM     18  C   UNL     1     -14.395   1.503  30.617  0.00  0.00    +0.130 A 
ENDBRANCH  14  15
TORSDOF 1
ENDMDL
MODEL 7
REMARK VINA RESULT:      -5.0     12.356     14.996
REMARK  Name = 75536965
REMARK  1 active torsions:
REMARK  status: ('A' for Active; 'I' for Inactive)
REMARK    1  A    between atoms: C_14  and  C_15
REMARK                            x       y       z     vdW  Elec       q    Type
REMARK                         _______ _______ _______ _____ _____    ______ ____
ROOT
ATOM      1  O   UNL     1      10.053   4.230   9.027  0.00  0.00    -0.253 OA
ATOM      2  O   UNL     1       8.568  10.191   5.686  0.00  0.00    -0.268 OA
ATOM      3  N   UNL     1       9.759   5.764   7.268  0.00  0.00    -0.278 N 
ATOM      4  N   UNL     1       8.625   7.860   5.839  0.00  0.00    -0.293 N 
ATOM      5  N   UNL     1      10.054   3.593   6.769  0.00  0.00    -0.297 N 
ATOM      8  C   UNL     1       9.834   5.726   5.817  0.00  0.00    +0.112 C 
ATOM      9  C   UNL     1       8.686   6.526   5.209  0.00  0.00    +0.132 C 
ATOM     10  C   UNL     1       9.815   4.234   5.497  0.00  0.00    +0.129 C 
ATOM     11  C   UNL     1       9.598   7.036   7.951  0.00  0.00    +0.128 C 
ATOM     12  C   UNL     1       8.472   7.839   7.300  0.00  0.00    +0.127 C 
ATOM     13  C   UNL     1       9.967   4.504   7.838  0.00  0.00    +0.303 C 
ATOM     14  C   UNL     1       8.657   9.080   5.164  0.00  0.00    +0.267 C 
ATOM     19  H   UNL     1      10.187   2.594   6.890  0.00  0.00    +0.150 HD
ENDROOT
BRANCH  14  15
ATOM      6  N   UNL     1      10.089   8.973   3.243  0.00  0.00    -0.247 NA
ATOM      7  N   UNL     1       7.883   9.114   1.516  0.00  0.00    -0.259 NA
ATOM     15  C   UNL     1       8.825   9.060   3.704  0.00  0.00    +0.144 A 
ATOM     16  C   UNL     1       7.742   9.129   2.856  0.00  0.00    +0.143 A 
ATOM     17  C   UNL     1      10.229   8.958   1.903  0.00  0.00    +0.131 A 
ATOM     18  C   UNL     1       9.147   9.027   1.055  0.00  0.00    +0.130 A 
ENDBRANCH  14  15
TORSDOF 1
ENDMDL
MODEL 8
REMARK VINA RESULT:      -4.9     26.076     28.528
REMARK  Name = 75536965
REMARK  1 active torsions:
REMARK  status: ('A' for Active; 'I' for Inactive)
REMARK    1  A    between atoms: C_14  and  C_15
REMARK                            x       y       z     vdW  Elec       q    Type
REMARK                         _______ _______ _______ _____ _____    ______ ____
ROOT
ATOM      1  O   UNL     1     -10.439  -9.901  19.020  0.00  0.00    -0.253 OA
ATOM      2  O   UNL     1      -3.734 -11.883  18.921  0.00  0.00    -0.268 OA
ATOM      3  N   UNL     1      -8.313 -10.466  18.186  0.00  0.00    -0.278 N 
ATOM      4  N   UNL     1      -5.542 -10.647  18.105  0.00  0.00    -0.293 N 
ATOM      5  N   UNL     1      -9.796  -9.503  16.799  0.00  0.00    -0.297 N 
ATOM      8  C   UNL     1      -7.663 -10.476  16.887  0.00  0.00    +0.112 C 
ATOM      9  C   UNL     1      -6.237  -9.948  17.006  0.00  0.00    +0.132 C 
ATOM     10  C   UNL     1      -8.588  -9.630  16.017  0.00  0.00    +0.129 C 
ATOM     11  C   UNL     1      -7.642 -11.048  19.336  0.00  0.00    +0.128 C 
ATOM     12  C   UNL     1      -6.203 -10.540  19.413  0.00  0.00    +0.127 C 
ATOM     13  C   UNL     1      -9.613  -9.956  18.119  0.00  0.00    +0.303 C 
ATOM     14  C   UNL     1      -4.331 -11.333  17.996  0.00  0.00    +0.267 C 
ATOM     19  H   UNL     1     -10.649  -9.065  16.467  0.00  0.00    +0.150 HD
ENDROOT
BRANCH  14  15
ATOM      6  N   UNL     1      -4.200 -12.372  15.840  0.00  0.00    -0.247 NA
ATOM      7  N   UNL     1      -2.090 -10.683  15.087  0.00  0.00    -0.259 NA
ATOM     15  C   UNL     1      -3.708 -11.431  16.670  0.00  0.00    +0.144 A 
ATOM     16  C   UNL     1      -2.673 -10.601  16.300  0.00  0.00    +0.143 A 
ATOM     17  C   UNL     1      -3.618 -12.453  14.627  0.00  0.00    +0.131 A 
ATOM     18  C   UNL     1      -2.583 -11.624  14.257  0.00  0.00    +0.130 A 
ENDBRANCH  14  15
TORSDOF 1
ENDMDL
MODEL 9
REMARK VINA RESULT:      -4.9     25.643     27.815
REMARK  Name = 75536965
REMARK  1 active torsions:
REMARK  status: ('A' for Active; 'I' for Inactive)
REMARK    1  A    between atoms: C_14  and  C_15
REMARK                            x       y       z     vdW  Elec       q    Type
REMARK                         _______ _______ _______ _____ _____    ______ ____
ROOT
ATOM      1  O   UNL     1      -1.871 -10.220  12.606  0.00  0.00    -0.253 OA
ATOM      2  O   UNL     1      -8.325 -10.773  15.240  0.00  0.00    -0.268 OA
ATOM      3  N   UNL     1      -3.605 -10.659  14.135  0.00  0.00    -0.278 N 
ATOM      4  N   UNL     1      -6.039 -10.331  15.434  0.00  0.00    -0.293 N 
ATOM      5  N   UNL     1      -1.487 -10.627  14.884  0.00  0.00    -0.297 N 
ATOM      8  C   UNL     1      -3.700 -11.063  15.527  0.00  0.00    +0.112 C 
ATOM      9  C   UNL     1      -4.798 -10.273  16.232  0.00  0.00    +0.132 C 
ATOM     10  C   UNL     1      -2.293 -10.825  16.066  0.00  0.00    +0.129 C 
ATOM     11  C   UNL     1      -4.803 -10.596  13.315  0.00  0.00    +0.128 C 
ATOM     12  C   UNL     1      -5.903  -9.837  14.057  0.00  0.00    +0.127 C 
ATOM     13  C   UNL     1      -2.279 -10.473  13.731  0.00  0.00    +0.303 C 
ATOM     14  C   UNL     1      -7.283 -10.761  15.895  0.00  0.00    +0.267 C 
ATOM     19  H   UNL     1      -0.476 -10.528  14.891  0.00  0.00    +0.150 HD
ENDROOT
BRANCH  14  15
ATOM      6  N   UNL     1      -7.163 -12.579  17.453  0.00  0.00    -0.247 NA
ATOM      7  N   UNL     1      -7.758 -10.865  19.592  0.00  0.00    -0.259 NA
ATOM     15  C   UNL     1      -7.376 -11.260  17.274  0.00  0.00    +0.144 A 
ATOM     16  C   UNL     1      -7.668 -10.419  18.324  0.00  0.00    +0.143 A 
ATOM     17  C   UNL     1      -7.253 -13.025  18.722  0.00  0.00    +0.131 A 
ATOM     18  C   UNL     1      -7.545 -12.184  19.772  0.00  0.00    +0.130 A 
ENDBRANCH  14  15
TORSDOF 1
ENDMDL
MODEL 10
REMARK VINA RESULT:      -4.8      1.810      2.558
REMARK  Name = 75536965
REMARK  1 active torsions:
REMARK  status: ('A' for Active; 'I' for Inactive)
REMARK    1  A    between atoms: C_14  and  C_15
REMARK                            x       y       z     vdW  Elec       q    Type
REMARK                         _______ _______ _______ _____ _____    ______ ____
ROOT
ATOM      1  O   UNL     1      16.665  14.660  15.942  0.00  0.00    -0.253 OA
ATOM      2  O   UNL     1      13.663   8.396  15.136  0.00  0.00    -0.268 OA
ATOM      3  N   UNL     1      15.720  12.575  16.485  0.00  0.00    -0.278 N 
ATOM      4  N   UNL     1      14.009  10.394  16.297  0.00  0.00    -0.293 N 
ATOM      5  N   UNL     1      16.090  14.055  18.135  0.00  0.00    -0.297 N 
ATOM      8  C   UNL     1      15.381  11.860  17.704  0.00  0.00    +0.112 C 
ATOM      9  C   UNL     1      14.030  11.170  17.553  0.00  0.00    +0.132 C 
ATOM     10  C   UNL     1      15.431  12.943  18.779  0.00  0.00    +0.129 C 
ATOM     11  C   UNL     1      15.626  11.901  15.202  0.00  0.00    +0.128 C 
ATOM     12  C   UNL     1      14.283  11.181  15.087  0.00  0.00    +0.127 C 
ATOM     13  C   UNL     1      16.215  13.856  16.747  0.00  0.00    +0.303 C 
ATOM     14  C   UNL     1      13.717   9.034  16.187  0.00  0.00    +0.267 C 
ATOM     19  H   UNL     1      16.358  14.913  18.607  0.00  0.00    +0.150 HD
ENDROOT
BRANCH  14  15
ATOM      6  N   UNL     1      14.545   7.863  18.107  0.00  0.00    -0.247 NA
ATOM      7  N   UNL     1      11.934   7.314  18.974  0.00  0.00    -0.259 NA
ATOM     15  C   UNL     1      13.463   8.278  17.420  0.00  0.00    +0.144 A 
ATOM     16  C   UNL     1      12.181   8.009  17.846  0.00  0.00    +0.143 A 
ATOM     17  C   UNL     1      14.299   7.168  19.236  0.00  0.00    +0.131 A 
ATOM     18  C   UNL     1      13.017   6.899  19.662  0.00  0.00    +0.130 A 
ENDBRANCH  14  15
TORSDOF 1
ENDMDL
