MODEL 1
REMARK VINA RESULT:      -6.7      0.000      0.000
REMARK  Name = 51138115
REMARK  9 active torsions:
REMARK  status: ('A' for Active; 'I' for Inactive)
REMARK    1  A    between atoms: N_3  and  C_21
REMARK    2  A    between atoms: N_4  and  C_23
REMARK    3  A    between atoms: C_5  and  C_9
REMARK    4  A    between atoms: C_8  and  C_16
REMARK    5  A    between atoms: C_9  and  C_13
REMARK    6  A    between atoms: C_13  and  C_19
REMARK    7  A    between atoms: C_13  and  C_20
REMARK    8  A    between atoms: C_21  and  C_22
REMARK    9  A    between atoms: C_23  and  C_25
REMARK                            x       y       z     vdW  Elec       q    Type
REMARK                         _______ _______ _______ _____ _____    ______ ____
ROOT
ATOM      2  N   UNL     1      -6.644 -10.937  16.170  0.00  0.00    -0.299 NA
ATOM      3  N   UNL     1      -3.785 -10.340  12.050  0.00  0.00    -0.343 N 
ATOM      5  C   UNL     1      -5.267 -10.789  16.660  0.00  0.00    +0.085 C 
ATOM      6  C   UNL     1      -4.173 -10.775  15.586  0.00  0.00    -0.021 A 
ATOM      7  C   UNL     1      -4.391 -10.556  14.196  0.00  0.00    +0.008 A 
ATOM      8  C   UNL     1      -7.115  -9.839  15.337  0.00  0.00    +0.145 C 
ATOM     10  C   UNL     1      -5.555 -10.289  13.395  0.00  0.00    -0.020 A 
ATOM     11  C   UNL     1      -6.971 -10.160  13.852  0.00  0.00    +0.065 C 
ATOM     12  C   UNL     1      -3.300 -10.555  13.318  0.00  0.00    +0.050 A 
ATOM     14  C   UNL     1      -5.137 -10.173  12.085  0.00  0.00    +0.090 A 
ATOM     15  C   UNL     1      -2.822 -10.914  15.994  0.00  0.00    +0.006 A 
ATOM     17  C   UNL     1      -1.981 -10.740  13.733  0.00  0.00    +0.026 A 
ATOM     18  C   UNL     1      -1.757 -10.907  15.094  0.00  0.00    +0.002 A 
ATOM     27  H   UNL     1      -6.770 -11.834  15.702  0.00  0.00    +0.123 HD
ENDROOT
BRANCH   8  16
ATOM      1  O   UNL     1      -9.180 -10.548  16.302  0.00  0.00    -0.274 OA
ATOM      4  N   UNL     1      -9.105  -8.520  15.161  0.00  0.00    -0.310 N 
ATOM     16  C   UNL     1      -8.569  -9.692  15.668  0.00  0.00    +0.231 C 
ATOM     28  H   UNL     1      -8.503  -7.868  14.668  0.00  0.00    +0.149 HD
BRANCH   4  23
ATOM     23  C   UNL     1     -10.494  -8.150  15.323  0.00  0.00    +0.131 C 
BRANCH  23  25
ATOM     25  C   UNL     1     -10.588  -7.026  16.300  0.00  0.00    -0.016 C 
ATOM     26  C   UNL     1     -11.478  -6.031  16.208  0.00  0.00    +0.005 C 
ENDBRANCH  23  25
ENDBRANCH   4  23
ENDBRANCH   8  16
BRANCH   5   9
ATOM      9  C   UNL     1      -5.088 -11.935  17.671  0.00  0.00    +0.026 C 
BRANCH   9  13
ATOM     13  C   UNL     1      -4.702 -11.444  19.069  0.00  0.00    -0.015 C 
ATOM     19  C   UNL     1      -3.570 -12.317  19.617  0.00  0.00    +0.007 C 
ATOM     20  C   UNL     1      -5.880 -11.455  20.044  0.00  0.00    +0.007 C 
ENDBRANCH   9  13
ENDBRANCH   5   9
BRANCH   3  21
ATOM     21  C   UNL     1      -2.989 -10.277  10.843  0.00  0.00    +0.148 C 
BRANCH  21  22
ATOM     22  C   UNL     1      -3.264  -9.041  10.038  0.00  0.00    -0.013 C 
ATOM     24  C   UNL     1      -4.109  -8.998   9.002  0.00  0.00    +0.005 C 
ENDBRANCH  21  22
ENDBRANCH   3  21
TORSDOF 7
ENDMDL
MODEL 2
REMARK VINA RESULT:      -6.5     27.376     29.296
REMARK  Name = 51138115
REMARK  9 active torsions:
REMARK  status: ('A' for Active; 'I' for Inactive)
REMARK    1  A    between atoms: N_3  and  C_21
REMARK    2  A    between atoms: N_4  and  C_23
REMARK    3  A    between atoms: C_5  and  C_9
REMARK    4  A    between atoms: C_8  and  C_16
REMARK    5  A    between atoms: C_9  and  C_13
REMARK    6  A    between atoms: C_13  and  C_19
REMARK    7  A    between atoms: C_13  and  C_20
REMARK    8  A    between atoms: C_21  and  C_22
REMARK    9  A    between atoms: C_23  and  C_25
REMARK                            x       y       z     vdW  Elec       q    Type
REMARK                         _______ _______ _______ _____ _____    ______ ____
ROOT
ATOM      2  N   UNL     1      14.626   8.342  21.535  0.00  0.00    -0.299 NA
ATOM      3  N   UNL     1      19.382   6.812  20.794  0.00  0.00    -0.343 N 
ATOM      5  C   UNL     1      15.441   9.563  21.531  0.00  0.00    +0.085 C 
ATOM      6  C   UNL     1      16.959   9.356  21.503  0.00  0.00    -0.021 A 
ATOM      7  C   UNL     1      17.615   8.142  21.150  0.00  0.00    +0.008 A 
ATOM      8  C   UNL     1      14.752   7.521  20.338  0.00  0.00    +0.145 C 
ATOM     10  C   UNL     1      17.159   6.844  20.730  0.00  0.00    -0.020 A 
ATOM     11  C   UNL     1      15.751   6.385  20.539  0.00  0.00    +0.065 C 
ATOM     12  C   UNL     1      19.014   8.087  21.152  0.00  0.00    +0.050 A 
ATOM     14  C   UNL     1      18.276   6.058  20.533  0.00  0.00    +0.090 A 
ATOM     15  C   UNL     1      17.801  10.465  21.775  0.00  0.00    +0.006 A 
ATOM     17  C   UNL     1      19.824   9.178  21.468  0.00  0.00    +0.026 A 
ATOM     18  C   UNL     1      19.192  10.377  21.767  0.00  0.00    +0.002 A 
ATOM     27  H   UNL     1      14.798   7.792  22.377  0.00  0.00    +0.123 HD
ENDROOT
BRANCH   8  16
ATOM      1  O   UNL     1      12.923   6.796  18.987  0.00  0.00    -0.274 OA
ATOM      4  N   UNL     1      12.750   6.631  21.303  0.00  0.00    -0.310 N 
ATOM     16  C   UNL     1      13.388   6.942  20.114  0.00  0.00    +0.231 C 
ATOM     28  H   UNL     1      13.238   6.771  22.183  0.00  0.00    +0.149 HD
BRANCH   4  23
ATOM     23  C   UNL     1      11.415   6.079  21.363  0.00  0.00    +0.131 C 
BRANCH  23  25
ATOM     25  C   UNL     1      10.498   7.087  21.972  0.00  0.00    -0.016 C 
ATOM     26  C   UNL     1      10.716   8.407  21.942  0.00  0.00    +0.005 C 
ENDBRANCH  23  25
ENDBRANCH   4  23
ENDBRANCH   8  16
BRANCH   5   9
ATOM      9  C   UNL     1      14.974  10.348  22.770  0.00  0.00    +0.026 C 
BRANCH   9  13
ATOM     13  C   UNL     1      14.144  11.585  22.416  0.00  0.00    -0.015 C 
ATOM     19  C   UNL     1      12.712  11.393  22.922  0.00  0.00    +0.007 C 
ATOM     20  C   UNL     1      14.127  11.874  20.915  0.00  0.00    +0.007 C 
ENDBRANCH   9  13
ENDBRANCH   5   9
BRANCH   3  21
ATOM     21  C   UNL     1      20.741   6.326  20.684  0.00  0.00    +0.148 C 
BRANCH  21  22
ATOM     22  C   UNL     1      20.804   4.849  20.436  0.00  0.00    -0.013 C 
ATOM     24  C   UNL     1      21.478   3.990  21.210  0.00  0.00    +0.005 C 
ENDBRANCH  21  22
ENDBRANCH   3  21
TORSDOF 7
ENDMDL
MODEL 3
REMARK VINA RESULT:      -6.4     19.188     23.346
REMARK  Name = 51138115
REMARK  9 active torsions:
REMARK  status: ('A' for Active; 'I' for Inactive)
REMARK    1  A    between atoms: N_3  and  C_21
REMARK    2  A    between atoms: N_4  and  C_23
REMARK    3  A    between atoms: C_5  and  C_9
REMARK    4  A    between atoms: C_8  and  C_16
REMARK    5  A    between atoms: C_9  and  C_13
REMARK    6  A    between atoms: C_13  and  C_19
REMARK    7  A    between atoms: C_13  and  C_20
REMARK    8  A    between atoms: C_21  and  C_22
REMARK    9  A    between atoms: C_23  and  C_25
REMARK                            x       y       z     vdW  Elec       q    Type
REMARK                         _______ _______ _______ _____ _____    ______ ____
ROOT
ATOM      2  N   UNL     1     -15.169   2.729  28.852  0.00  0.00    -0.299 NA
ATOM      3  N   UNL     1     -15.998   6.476  32.136  0.00  0.00    -0.343 N 
ATOM      5  C   UNL     1     -15.003   2.134  30.185  0.00  0.00    +0.085 C 
ATOM      6  C   UNL     1     -15.024   3.114  31.363  0.00  0.00    -0.021 A 
ATOM      7  C   UNL     1     -15.514   4.451  31.310  0.00  0.00    +0.008 A 
ATOM      8  C   UNL     1     -16.457   3.371  28.629  0.00  0.00    +0.145 C 
ATOM     10  C   UNL     1     -16.103   5.260  30.276  0.00  0.00    -0.020 A 
ATOM     11  C   UNL     1     -16.380   4.878  28.860  0.00  0.00    +0.065 C 
ATOM     12  C   UNL     1     -15.490   5.242  32.464  0.00  0.00    +0.050 A 
ATOM     14  C   UNL     1     -16.375   6.496  30.826  0.00  0.00    +0.090 A 
ATOM     15  C   UNL     1     -14.597   2.655  32.635  0.00  0.00    +0.006 A 
ATOM     17  C   UNL     1     -15.022   4.785  33.697  0.00  0.00    +0.026 A 
ATOM     18  C   UNL     1     -14.587   3.468  33.767  0.00  0.00    +0.002 A 
ATOM     27  H   UNL     1     -14.400   3.363  28.638  0.00  0.00    +0.123 HD
ENDROOT
BRANCH   8  16
ATOM      1  O   UNL     1     -17.856   2.631  26.842  0.00  0.00    -0.274 OA
ATOM      4  N   UNL     1     -15.734   3.453  26.347  0.00  0.00    -0.310 N 
ATOM     16  C   UNL     1     -16.780   3.112  27.189  0.00  0.00    +0.231 C 
ATOM     28  H   UNL     1     -14.893   3.866  26.739  0.00  0.00    +0.149 HD
BRANCH   4  23
ATOM     23  C   UNL     1     -15.784   3.279  24.913  0.00  0.00    +0.131 C 
BRANCH  23  25
ATOM     25  C   UNL     1     -15.548   4.598  24.254  0.00  0.00    -0.016 C 
ATOM     26  C   UNL     1     -14.503   4.858  23.460  0.00  0.00    +0.005 C 
ENDBRANCH  23  25
ENDBRANCH   4  23
ENDBRANCH   8  16
BRANCH   5   9
ATOM      9  C   UNL     1     -13.684   1.344  30.098  0.00  0.00    +0.026 C 
BRANCH   9  13
ATOM     13  C   UNL     1     -13.851  -0.137  30.448  0.00  0.00    -0.015 C 
ATOM     19  C   UNL     1     -13.360  -0.991  29.276  0.00  0.00    +0.007 C 
ATOM     20  C   UNL     1     -15.296  -0.504  30.785  0.00  0.00    +0.007 C 
ENDBRANCH   9  13
ENDBRANCH   5   9
BRANCH   3  21
ATOM     21  C   UNL     1     -16.140   7.597  33.040  0.00  0.00    +0.148 C 
BRANCH  21  22
ATOM     22  C   UNL     1     -15.057   8.618  32.861  0.00  0.00    -0.013 C 
ATOM     24  C   UNL     1     -13.751   8.353  32.986  0.00  0.00    +0.005 C 
ENDBRANCH  21  22
ENDBRANCH   3  21
TORSDOF 7
ENDMDL
MODEL 4
REMARK VINA RESULT:      -6.3     26.694     28.683
REMARK  Name = 51138115
REMARK  9 active torsions:
REMARK  status: ('A' for Active; 'I' for Inactive)
REMARK    1  A    between atoms: N_3  and  C_21
REMARK    2  A    between atoms: N_4  and  C_23
REMARK    3  A    between atoms: C_5  and  C_9
REMARK    4  A    between atoms: C_8  and  C_16
REMARK    5  A    between atoms: C_9  and  C_13
REMARK    6  A    between atoms: C_13  and  C_19
REMARK    7  A    between atoms: C_13  and  C_20
REMARK    8  A    between atoms: C_21  and  C_22
REMARK    9  A    between atoms: C_23  and  C_25
REMARK                            x       y       z     vdW  Elec       q    Type
REMARK                         _______ _______ _______ _____ _____    ______ ____
ROOT
ATOM      2  N   UNL     1      13.855   9.471  18.675  0.00  0.00    -0.299 NA
ATOM      3  N   UNL     1      11.191  11.057  22.662  0.00  0.00    -0.343 N 
ATOM      5  C   UNL     1      12.933   8.374  18.999  0.00  0.00    +0.085 C 
ATOM      6  C   UNL     1      12.131   8.535  20.295  0.00  0.00    -0.021 A 
ATOM      7  C   UNL     1      11.955   9.757  21.005  0.00  0.00    +0.008 A 
ATOM      8  C   UNL     1      13.212  10.753  18.423  0.00  0.00    +0.145 C 
ATOM     10  C   UNL     1      12.391  11.111  20.790  0.00  0.00    -0.020 A 
ATOM     11  C   UNL     1      13.219  11.639  19.666  0.00  0.00    +0.065 C 
ATOM     12  C   UNL     1      11.186   9.772  22.175  0.00  0.00    +0.050 A 
ATOM     14  C   UNL     1      11.908  11.870  21.835  0.00  0.00    +0.090 A 
ATOM     15  C   UNL     1      11.439   7.408  20.809  0.00  0.00    +0.006 A 
ATOM     17  C   UNL     1      10.550   8.641  22.689  0.00  0.00    +0.026 A 
ATOM     18  C   UNL     1      10.679   7.456  21.976  0.00  0.00    +0.002 A 
ATOM     27  H   UNL     1      14.582   9.558  19.385  0.00  0.00    +0.123 HD
ENDROOT
BRANCH   8  16
ATOM      1  O   UNL     1      14.962  12.163  17.620  0.00  0.00    -0.274 OA
ATOM      4  N   UNL     1      13.610  11.056  16.081  0.00  0.00    -0.310 N 
ATOM     16  C   UNL     1      14.036  11.402  17.353  0.00  0.00    +0.231 C 
ATOM     28  H   UNL     1      12.845  10.397  15.973  0.00  0.00    +0.149 HD
BRANCH   4  23
ATOM     23  C   UNL     1      14.225  11.565  14.875  0.00  0.00    +0.131 C 
BRANCH  23  25
ATOM     25  C   UNL     1      15.507  10.838  14.638  0.00  0.00    -0.016 C 
ATOM     26  C   UNL     1      16.702  11.436  14.577  0.00  0.00    +0.005 C 
ENDBRANCH  23  25
ENDBRANCH   4  23
ENDBRANCH   8  16
BRANCH   5   9
ATOM      9  C   UNL     1      13.813   7.112  19.001  0.00  0.00    +0.026 C 
BRANCH   9  13
ATOM     13  C   UNL     1      15.174   7.334  19.667  0.00  0.00    -0.015 C 
ATOM     19  C   UNL     1      16.211   6.417  19.014  0.00  0.00    +0.007 C 
ATOM     20  C   UNL     1      15.140   7.082  21.175  0.00  0.00    +0.007 C 
ENDBRANCH   9  13
ENDBRANCH   5   9
BRANCH   3  21
ATOM     21  C   UNL     1      10.524  11.505  23.865  0.00  0.00    +0.148 C 
BRANCH  21  22
ATOM     22  C   UNL     1      11.434  12.277  24.773  0.00  0.00    -0.013 C 
ATOM     24  C   UNL     1      11.023  13.261  25.581  0.00  0.00    +0.005 C 
ENDBRANCH  21  22
ENDBRANCH   3  21
TORSDOF 7
ENDMDL
MODEL 5
REMARK VINA RESULT:      -6.2     22.141     25.994
REMARK  Name = 51138115
REMARK  9 active torsions:
REMARK  status: ('A' for Active; 'I' for Inactive)
REMARK    1  A    between atoms: N_3  and  C_21
REMARK    2  A    between atoms: N_4  and  C_23
REMARK    3  A    between atoms: C_5  and  C_9
REMARK    4  A    between atoms: C_8  and  C_16
REMARK    5  A    between atoms: C_9  and  C_13
REMARK    6  A    between atoms: C_13  and  C_19
REMARK    7  A    between atoms: C_13  and  C_20
REMARK    8  A    between atoms: C_21  and  C_22
REMARK    9  A    between atoms: C_23  and  C_25
REMARK                            x       y       z     vdW  Elec       q    Type
REMARK                         _______ _______ _______ _____ _____    ______ ____
ROOT
ATOM      2  N   UNL     1      10.152   5.713   4.071  0.00  0.00    -0.299 NA
ATOM      3  N   UNL     1       7.154   9.607   2.906  0.00  0.00    -0.343 N 
ATOM      5  C   UNL     1      10.534   6.116   2.711  0.00  0.00    +0.085 C 
ATOM      6  C   UNL     1       9.641   7.172   2.051  0.00  0.00    -0.021 A 
ATOM      7  C   UNL     1       8.717   8.012   2.737  0.00  0.00    +0.008 A 
ATOM      8  C   UNL     1      10.229   6.774   5.065  0.00  0.00    +0.145 C 
ATOM     10  C   UNL     1       8.342   8.169   4.116  0.00  0.00    -0.020 A 
ATOM     11  C   UNL     1       8.868   7.425   5.299  0.00  0.00    +0.065 C 
ATOM     12  C   UNL     1       7.968   8.949   2.015  0.00  0.00    +0.050 A 
ATOM     14  C   UNL     1       7.375   9.151   4.171  0.00  0.00    +0.090 A 
ATOM     15  C   UNL     1       9.781   7.403   0.658  0.00  0.00    +0.006 A 
ATOM     17  C   UNL     1       8.087   9.129   0.636  0.00  0.00    +0.026 A 
ATOM     18  C   UNL     1       9.020   8.346  -0.031  0.00  0.00    +0.002 A 
ATOM     27  H   UNL     1       9.232   5.272   4.075  0.00  0.00    +0.123 HD
ENDROOT
BRANCH   8  16
ATOM      1  O   UNL     1      11.772   6.319   6.828  0.00  0.00    -0.274 OA
ATOM      4  N   UNL     1       9.722   5.215   6.810  0.00  0.00    -0.310 N 
ATOM     16  C   UNL     1      10.673   6.098   6.327  0.00  0.00    +0.231 C 
ATOM     28  H   UNL     1       8.833   5.125   6.327  0.00  0.00    +0.149 HD
BRANCH   4  23
ATOM     23  C   UNL     1       9.914   4.419   8.002  0.00  0.00    +0.131 C 
BRANCH  23  25
ATOM     25  C   UNL     1       9.374   5.165   9.177  0.00  0.00    -0.016 C 
ATOM     26  C   UNL     1       8.948   4.577  10.301  0.00  0.00    +0.005 C 
ENDBRANCH  23  25
ENDBRANCH   4  23
ENDBRANCH   8  16
BRANCH   5   9
ATOM      9  C   UNL     1      10.582   4.801   1.914  0.00  0.00    +0.026 C 
BRANCH   9  13
ATOM     13  C   UNL     1      11.943   4.550   1.257  0.00  0.00    -0.015 C 
ATOM     19  C   UNL     1      11.754   4.410  -0.256  0.00  0.00    +0.007 C 
ATOM     20  C   UNL     1      12.642   3.307   1.807  0.00  0.00    +0.007 C 
ENDBRANCH   9  13
ENDBRANCH   5   9
BRANCH   3  21
ATOM     21  C   UNL     1       6.209  10.650   2.571  0.00  0.00    +0.148 C 
BRANCH  21  22
ATOM     22  C   UNL     1       4.786  10.187   2.666  0.00  0.00    -0.013 C 
ATOM     24  C   UNL     1       3.991   9.992   1.608  0.00  0.00    +0.005 C 
ENDBRANCH  21  22
ENDBRANCH   3  21
TORSDOF 7
ENDMDL
MODEL 6
REMARK VINA RESULT:      -6.2     27.095     28.903
REMARK  Name = 51138115
REMARK  9 active torsions:
REMARK  status: ('A' for Active; 'I' for Inactive)
REMARK    1  A    between atoms: N_3  and  C_21
REMARK    2  A    between atoms: N_4  and  C_23
REMARK    3  A    between atoms: C_5  and  C_9
REMARK    4  A    between atoms: C_8  and  C_16
REMARK    5  A    between atoms: C_9  and  C_13
REMARK    6  A    between atoms: C_13  and  C_19
REMARK    7  A    between atoms: C_13  and  C_20
REMARK    8  A    between atoms: C_21  and  C_22
REMARK    9  A    between atoms: C_23  and  C_25
REMARK                            x       y       z     vdW  Elec       q    Type
REMARK                         _______ _______ _______ _____ _____    ______ ____
ROOT
ATOM      2  N   UNL     1      12.822   8.653  20.626  0.00  0.00    -0.299 NA
ATOM      3  N   UNL     1      17.748   9.258  21.564  0.00  0.00    -0.343 N 
ATOM      5  C   UNL     1      13.464   7.399  20.208  0.00  0.00    +0.085 C 
ATOM      6  C   UNL     1      14.996   7.394  20.222  0.00  0.00    -0.021 A 
ATOM      7  C   UNL     1      15.814   8.342  20.902  0.00  0.00    +0.008 A 
ATOM      8  C   UNL     1      13.068   9.031  22.010  0.00  0.00    +0.145 C 
ATOM     10  C   UNL     1      15.542   9.488  21.727  0.00  0.00    -0.020 A 
ATOM     11  C   UNL     1      14.211  10.038  22.122  0.00  0.00    +0.065 C 
ATOM     12  C   UNL     1      17.207   8.218  20.845  0.00  0.00    +0.050 A 
ATOM     14  C   UNL     1      16.757  10.024  22.102  0.00  0.00    +0.090 A 
ATOM     15  C   UNL     1      15.676   6.330  19.576  0.00  0.00    +0.006 A 
ATOM     17  C   UNL     1      17.859   7.189  20.165  0.00  0.00    +0.026 A 
ATOM     18  C   UNL     1      17.066   6.234  19.540  0.00  0.00    +0.002 A 
ATOM     27  H   UNL     1      13.060   9.413  19.989  0.00  0.00    +0.123 HD
ENDROOT
BRANCH   8  16
ATOM      1  O   UNL     1      10.713   9.411  21.964  0.00  0.00    -0.274 OA
ATOM      4  N   UNL     1      12.016  10.593  23.489  0.00  0.00    -0.310 N 
ATOM     16  C   UNL     1      11.798   9.678  22.472  0.00  0.00    +0.231 C 
ATOM     28  H   UNL     1      12.956  10.721  23.852  0.00  0.00    +0.149 HD
BRANCH   4  23
ATOM     23  C   UNL     1      10.957  11.369  24.095  0.00  0.00    +0.131 C 
BRANCH  23  25
ATOM     25  C   UNL     1      11.118  12.801  23.705  0.00  0.00    -0.016 C 
ATOM     26  C   UNL     1      10.227  13.756  23.991  0.00  0.00    +0.005 C 
ENDBRANCH  23  25
ENDBRANCH   4  23
ENDBRANCH   8  16
BRANCH   5   9
ATOM      9  C   UNL     1      12.884   7.111  18.812  0.00  0.00    +0.026 C 
BRANCH   9  13
ATOM     13  C   UNL     1      12.908   8.334  17.891  0.00  0.00    -0.015 C 
ATOM     19  C   UNL     1      11.528   8.510  17.251  0.00  0.00    +0.007 C 
ATOM     20  C   UNL     1      13.973   8.229  16.800  0.00  0.00    +0.007 C 
ENDBRANCH   9  13
ENDBRANCH   5   9
BRANCH   3  21
ATOM     21  C   UNL     1      19.161   9.508  21.749  0.00  0.00    +0.148 C 
BRANCH  21  22
ATOM     22  C   UNL     1      19.689   8.905  23.017  0.00  0.00    -0.013 C 
ATOM     24  C   UNL     1      20.283   7.708  23.083  0.00  0.00    +0.005 C 
ENDBRANCH  21  22
ENDBRANCH   3  21
TORSDOF 7
ENDMDL
MODEL 7
REMARK VINA RESULT:      -6.1     19.211     21.851
REMARK  Name = 51138115
REMARK  9 active torsions:
REMARK  status: ('A' for Active; 'I' for Inactive)
REMARK    1  A    between atoms: N_3  and  C_21
REMARK    2  A    between atoms: N_4  and  C_23
REMARK    3  A    between atoms: C_5  and  C_9
REMARK    4  A    between atoms: C_8  and  C_16
REMARK    5  A    between atoms: C_9  and  C_13
REMARK    6  A    between atoms: C_13  and  C_19
REMARK    7  A    between atoms: C_13  and  C_20
REMARK    8  A    between atoms: C_21  and  C_22
REMARK    9  A    between atoms: C_23  and  C_25
REMARK                            x       y       z     vdW  Elec       q    Type
REMARK                         _______ _______ _______ _____ _____    ______ ____
ROOT
ATOM      2  N   UNL     1     -13.392   9.207  21.637  0.00  0.00    -0.299 NA
ATOM      3  N   UNL     1     -10.513  11.049  17.919  0.00  0.00    -0.343 N 
ATOM      5  C   UNL     1     -12.725   8.044  21.037  0.00  0.00    +0.085 C 
ATOM      6  C   UNL     1     -11.926   8.317  19.758  0.00  0.00    -0.021 A 
ATOM      7  C   UNL     1     -11.508   9.603  19.310  0.00  0.00    +0.008 A 
ATOM      8  C   UNL     1     -12.491  10.247  22.114  0.00  0.00    +0.145 C 
ATOM     10  C   UNL     1     -11.648  10.937  19.829  0.00  0.00    -0.020 A 
ATOM     11  C   UNL     1     -12.331  11.365  21.086  0.00  0.00    +0.065 C 
ATOM     12  C   UNL     1     -10.770   9.715  18.126  0.00  0.00    +0.050 A 
ATOM     14  C   UNL     1     -11.031  11.792  18.939  0.00  0.00    +0.090 A 
ATOM     15  C   UNL     1     -11.493   7.212  18.981  0.00  0.00    +0.006 A 
ATOM     17  C   UNL     1     -10.393   8.618  17.350  0.00  0.00    +0.026 A 
ATOM     18  C   UNL     1     -10.756   7.358  17.806  0.00  0.00    +0.002 A 
ATOM     27  H   UNL     1     -14.095   9.590  21.005  0.00  0.00    +0.123 HD
ENDROOT
BRANCH   8  16
ATOM      1  O   UNL     1     -14.265  11.307  23.308  0.00  0.00    -0.274 OA
ATOM      4  N   UNL     1     -12.339  10.688  24.462  0.00  0.00    -0.310 N 
ATOM     16  C   UNL     1     -13.146  10.801  23.342  0.00  0.00    +0.231 C 
ATOM     28  H   UNL     1     -11.436  10.230  24.382  0.00  0.00    +0.149 HD
BRANCH   4  23
ATOM     23  C   UNL     1     -12.729  11.166  25.770  0.00  0.00    +0.131 C 
BRANCH  23  25
ATOM     25  C   UNL     1     -12.073  10.324  26.812  0.00  0.00    -0.016 C 
ATOM     26  C   UNL     1     -10.763  10.050  26.834  0.00  0.00    +0.005 C 
ENDBRANCH  23  25
ENDBRANCH   4  23
ENDBRANCH   8  16
BRANCH   5   9
ATOM      9  C   UNL     1     -13.850   7.016  20.823  0.00  0.00    +0.026 C 
BRANCH   9  13
ATOM     13  C   UNL     1     -14.156   6.195  22.079  0.00  0.00    -0.015 C 
ATOM     19  C   UNL     1     -13.038   5.173  22.299  0.00  0.00    +0.007 C 
ATOM     20  C   UNL     1     -15.503   5.477  22.000  0.00  0.00    +0.007 C 
ENDBRANCH   9  13
ENDBRANCH   5   9
BRANCH   3  21
ATOM     21  C   UNL     1      -9.784  11.604  16.799  0.00  0.00    +0.148 C 
BRANCH  21  22
ATOM     22  C   UNL     1      -9.278  12.989  17.072  0.00  0.00    -0.013 C 
ATOM     24  C   UNL     1      -8.045  13.408  16.764  0.00  0.00    +0.005 C 
ENDBRANCH  21  22
ENDBRANCH   3  21
TORSDOF 7
ENDMDL
MODEL 8
REMARK VINA RESULT:      -6.1     27.133     29.028
REMARK  Name = 51138115
REMARK  9 active torsions:
REMARK  status: ('A' for Active; 'I' for Inactive)
REMARK    1  A    between atoms: N_3  and  C_21
REMARK    2  A    between atoms: N_4  and  C_23
REMARK    3  A    between atoms: C_5  and  C_9
REMARK    4  A    between atoms: C_8  and  C_16
REMARK    5  A    between atoms: C_9  and  C_13
REMARK    6  A    between atoms: C_13  and  C_19
REMARK    7  A    between atoms: C_13  and  C_20
REMARK    8  A    between atoms: C_21  and  C_22
REMARK    9  A    between atoms: C_23  and  C_25
REMARK                            x       y       z     vdW  Elec       q    Type
REMARK                         _______ _______ _______ _____ _____    ______ ____
ROOT
ATOM      2  N   UNL     1      13.733   9.265  20.098  0.00  0.00    -0.299 NA
ATOM      3  N   UNL     1      18.160   7.141  21.280  0.00  0.00    -0.343 N 
ATOM      5  C   UNL     1      14.720  10.352  20.059  0.00  0.00    +0.085 C 
ATOM      6  C   UNL     1      16.124  10.001  20.561  0.00  0.00    -0.021 A 
ATOM      7  C   UNL     1      16.628   8.680  20.733  0.00  0.00    +0.008 A 
ATOM      8  C   UNL     1      14.040   8.133  19.234  0.00  0.00    +0.145 C 
ATOM     10  C   UNL     1      16.084   7.366  20.514  0.00  0.00    -0.020 A 
ATOM     11  C   UNL     1      14.727   7.008  20.005  0.00  0.00    +0.065 C 
ATOM     12  C   UNL     1      17.938   8.494  21.189  0.00  0.00    +0.050 A 
ATOM     14  C   UNL     1      17.056   6.454  20.872  0.00  0.00    +0.090 A 
ATOM     15  C   UNL     1      17.038  11.056  20.811  0.00  0.00    +0.006 A 
ATOM     17  C   UNL     1      18.808   9.548  21.474  0.00  0.00    +0.026 A 
ATOM     18  C   UNL     1      18.338  10.838  21.263  0.00  0.00    +0.002 A 
ATOM     27  H   UNL     1      13.564   8.960  21.056  0.00  0.00    +0.123 HD
ENDROOT
BRANCH   8  16
ATOM      1  O   UNL     1      12.275   6.539  19.036  0.00  0.00    -0.274 OA
ATOM      4  N   UNL     1      12.091   8.571  17.915  0.00  0.00    -0.310 N 
ATOM     16  C   UNL     1      12.712   7.647  18.737  0.00  0.00    +0.231 C 
ATOM     28  H   UNL     1      12.533   9.471  17.751  0.00  0.00    +0.149 HD
BRANCH   4  23
ATOM     23  C   UNL     1      10.809   8.336  17.288  0.00  0.00    +0.131 C 
BRANCH  23  25
ATOM     25  C   UNL     1      10.786   9.014  15.957  0.00  0.00    -0.016 C 
ATOM     26  C   UNL     1      11.870   9.528  15.364  0.00  0.00    +0.005 C 
ENDBRANCH  23  25
ENDBRANCH   4  23
ENDBRANCH   8  16
BRANCH   5   9
ATOM      9  C   UNL     1      14.072  11.494  20.862  0.00  0.00    +0.026 C 
BRANCH   9  13
ATOM     13  C   UNL     1      13.334  11.003  22.111  0.00  0.00    -0.015 C 
ATOM     19  C   UNL     1      11.940  11.634  22.154  0.00  0.00    +0.007 C 
ATOM     20  C   UNL     1      14.085  11.322  23.403  0.00  0.00    +0.007 C 
ENDBRANCH   9  13
ENDBRANCH   5   9
BRANCH   3  21
ATOM     21  C   UNL     1      19.388   6.517  21.724  0.00  0.00    +0.148 C 
BRANCH  21  22
ATOM     22  C   UNL     1      20.136   5.860  20.601  0.00  0.00    -0.013 C 
ATOM     24  C   UNL     1      20.936   4.799  20.757  0.00  0.00    +0.005 C 
ENDBRANCH  21  22
ENDBRANCH   3  21
TORSDOF 7
ENDMDL
MODEL 9
REMARK VINA RESULT:      -6.0      2.468      4.434
REMARK  Name = 51138115
REMARK  9 active torsions:
REMARK  status: ('A' for Active; 'I' for Inactive)
REMARK    1  A    between atoms: N_3  and  C_21
REMARK    2  A    between atoms: N_4  and  C_23
REMARK    3  A    between atoms: C_5  and  C_9
REMARK    4  A    between atoms: C_8  and  C_16
REMARK    5  A    between atoms: C_9  and  C_13
REMARK    6  A    between atoms: C_13  and  C_19
REMARK    7  A    between atoms: C_13  and  C_20
REMARK    8  A    between atoms: C_21  and  C_22
REMARK    9  A    between atoms: C_23  and  C_25
REMARK                            x       y       z     vdW  Elec       q    Type
REMARK                         _______ _______ _______ _____ _____    ______ ____
ROOT
ATOM      2  N   UNL     1      -4.811 -11.321  14.937  0.00  0.00    -0.299 NA
ATOM      3  N   UNL     1      -5.776  -8.927  10.596  0.00  0.00    -0.343 N 
ATOM      5  C   UNL     1      -3.499 -10.989  14.366  0.00  0.00    +0.085 C 
ATOM      6  C   UNL     1      -3.514 -10.413  12.946  0.00  0.00    -0.021 A 
ATOM      7  C   UNL     1      -4.658  -9.873  12.291  0.00  0.00    +0.008 A 
ATOM      8  C   UNL     1      -5.697 -10.181  15.131  0.00  0.00    +0.145 C 
ATOM     10  C   UNL     1      -6.032  -9.681  12.672  0.00  0.00    -0.020 A 
ATOM     11  C   UNL     1      -6.679 -10.030  13.972  0.00  0.00    +0.065 C 
ATOM     12  C   UNL     1      -4.535  -9.364  10.992  0.00  0.00    +0.050 A 
ATOM     14  C   UNL     1      -6.681  -9.108  11.599  0.00  0.00    +0.090 A 
ATOM     15  C   UNL     1      -2.290 -10.330  12.235  0.00  0.00    +0.006 A 
ATOM     17  C   UNL     1      -3.329  -9.335  10.291  0.00  0.00    +0.026 A 
ATOM     18  C   UNL     1      -2.200  -9.816  10.942  0.00  0.00    +0.002 A 
ATOM     27  H   UNL     1      -5.269 -12.055  14.396  0.00  0.00    +0.123 HD
ENDROOT
BRANCH   8  16
ATOM      1  O   UNL     1      -7.663 -10.735  16.365  0.00  0.00    -0.274 OA
ATOM      4  N   UNL     1      -5.660 -10.429  17.512  0.00  0.00    -0.310 N 
ATOM     16  C   UNL     1      -6.461 -10.487  16.384  0.00  0.00    +0.231 C 
ATOM     28  H   UNL     1      -4.668 -10.236  17.411  0.00  0.00    +0.149 HD
BRANCH   4  23
ATOM     23  C   UNL     1      -6.159 -10.662  18.849  0.00  0.00    +0.131 C 
BRANCH  23  25
ATOM     25  C   UNL     1      -5.139 -11.427  19.624  0.00  0.00    -0.016 C 
ATOM     26  C   UNL     1      -4.096 -12.053  19.067  0.00  0.00    +0.005 C 
ENDBRANCH  23  25
ENDBRANCH   4  23
ENDBRANCH   8  16
BRANCH   5   9
ATOM      9  C   UNL     1      -2.689 -12.293  14.466  0.00  0.00    +0.026 C 
BRANCH   9  13
ATOM     13  C   UNL     1      -3.361 -13.470  13.753  0.00  0.00    -0.015 C 
ATOM     19  C   UNL     1      -3.534 -14.627  14.742  0.00  0.00    +0.007 C 
ATOM     20  C   UNL     1      -2.573 -13.948  12.533  0.00  0.00    +0.007 C 
ENDBRANCH   9  13
ENDBRANCH   5   9
BRANCH   3  21
ATOM     21  C   UNL     1      -6.092  -8.339   9.311  0.00  0.00    +0.148 C 
BRANCH  21  22
ATOM     22  C   UNL     1      -6.464  -9.368   8.286  0.00  0.00    -0.013 C 
ATOM     24  C   UNL     1      -5.620  -9.842   7.362  0.00  0.00    +0.005 C 
ENDBRANCH  21  22
ENDBRANCH   3  21
TORSDOF 7
ENDMDL
MODEL 10
REMARK VINA RESULT:      -5.9      2.063      6.681
REMARK  Name = 51138115
REMARK  9 active torsions:
REMARK  status: ('A' for Active; 'I' for Inactive)
REMARK    1  A    between atoms: N_3  and  C_21
REMARK    2  A    between atoms: N_4  and  C_23
REMARK    3  A    between atoms: C_5  and  C_9
REMARK    4  A    between atoms: C_8  and  C_16
REMARK    5  A    between atoms: C_9  and  C_13
REMARK    6  A    between atoms: C_13  and  C_19
REMARK    7  A    between atoms: C_13  and  C_20
REMARK    8  A    between atoms: C_21  and  C_22
REMARK    9  A    between atoms: C_23  and  C_25
REMARK                            x       y       z     vdW  Elec       q    Type
REMARK                         _______ _______ _______ _____ _____    ______ ____
ROOT
ATOM      2  N   UNL     1      -4.984 -10.017  14.988  0.00  0.00    -0.299 NA
ATOM      3  N   UNL     1      -8.832 -10.406  18.236  0.00  0.00    -0.343 N 
ATOM      5  C   UNL     1      -4.539 -10.962  16.021  0.00  0.00    +0.085 C 
ATOM      6  C   UNL     1      -5.466 -11.115  17.232  0.00  0.00    -0.021 A 
ATOM      7  C   UNL     1      -6.827 -10.699  17.282  0.00  0.00    +0.008 A 
ATOM      8  C   UNL     1      -6.224 -10.385  14.319  0.00  0.00    +0.145 C 
ATOM     10  C   UNL     1      -7.719 -10.080  16.338  0.00  0.00    -0.020 A 
ATOM     11  C   UNL     1      -7.426  -9.672  14.932  0.00  0.00    +0.065 C 
ATOM     12  C   UNL     1      -7.571 -10.909  18.449  0.00  0.00    +0.050 A 
ATOM     14  C   UNL     1      -8.934  -9.911  16.970  0.00  0.00    +0.090 A 
ATOM     15  C   UNL     1      -4.975 -11.788  18.380  0.00  0.00    +0.006 A 
ATOM     17  C   UNL     1      -7.055 -11.532  19.586  0.00  0.00    +0.026 A 
ATOM     18  C   UNL     1      -5.743 -11.983  19.527  0.00  0.00    +0.002 A 
ATOM     27  H   UNL     1      -5.035  -9.068  15.360  0.00  0.00    +0.123 HD
ENDROOT
BRANCH   8  16
ATOM      1  O   UNL     1      -6.821  -9.122  12.384  0.00  0.00    -0.274 OA
ATOM      4  N   UNL     1      -4.977 -10.539  12.281  0.00  0.00    -0.310 N 
ATOM     16  C   UNL     1      -6.055  -9.930  12.901  0.00  0.00    +0.231 C 
ATOM     28  H   UNL     1      -4.392 -11.179  12.811  0.00  0.00    +0.149 HD
BRANCH   4  23
ATOM     23  C   UNL     1      -4.612 -10.289  10.905  0.00  0.00    +0.131 C 
BRANCH  23  25
ATOM     25  C   UNL     1      -3.264  -9.649  10.867  0.00  0.00    -0.016 C 
ATOM     26  C   UNL     1      -2.178 -10.163  11.456  0.00  0.00    +0.005 C 
ENDBRANCH  23  25
ENDBRANCH   4  23
ENDBRANCH   8  16
BRANCH   5   9
ATOM      9  C   UNL     1      -3.131 -10.479  16.411  0.00  0.00    +0.026 C 
BRANCH   9  13
ATOM     13  C   UNL     1      -2.132 -10.552  15.253  0.00  0.00    -0.015 C 
ATOM     19  C   UNL     1      -2.064 -11.991  14.736  0.00  0.00    +0.007 C 
ATOM     20  C   UNL     1      -0.733 -10.081  15.651  0.00  0.00    +0.007 C 
ENDBRANCH   9  13
ENDBRANCH   5   9
BRANCH   3  21
ATOM     21  C   UNL     1      -9.914 -10.410  19.197  0.00  0.00    +0.148 C 
BRANCH  21  22
ATOM     22  C   UNL     1     -11.261 -10.500  18.544  0.00  0.00    -0.013 C 
ATOM     24  C   UNL     1     -12.244  -9.612  18.733  0.00  0.00    +0.005 C 
ENDBRANCH  21  22
ENDBRANCH   3  21
TORSDOF 7
ENDMDL
