MODEL 1
REMARK VINA RESULT:      -7.0      0.000      0.000
REMARK  Name = 25389393
REMARK  10 active torsions:
REMARK  status: ('A' for Active; 'I' for Inactive)
REMARK    1  A    between atoms: S_1  and  N_7
REMARK    2  A    between atoms: S_1  and  C_24
REMARK    3  A    between atoms: O_4  and  C_34
REMARK    4  A    between atoms: O_4  and  C_35
REMARK    5  A    between atoms: N_6  and  C_15
REMARK    6  A    between atoms: N_7  and  C_16
REMARK    7  A    between atoms: C_9  and  C_15
REMARK    8  A    between atoms: C_10  and  C_16
REMARK    9  A    between atoms: C_19  and  C_22
REMARK   10  A    between atoms: C_22  and  C_23
REMARK                            x       y       z     vdW  Elec       q    Type
REMARK                         _______ _______ _______ _____ _____    ______ ____
ROOT
ATOM      5  N   UNL     1       9.075   8.062   6.990  0.00  0.00    -0.298 NA
ATOM      8  C   UNL     1      10.156   5.700   6.873  0.00  0.00    -0.003 C 
ATOM      9  C   UNL     1      11.216   6.803   6.651  0.00  0.00    +0.020 C 
ATOM     10  C   UNL     1       8.329   7.208   6.028  0.00  0.00    +0.072 C 
ATOM     11  C   UNL     1       9.037   5.849   5.826  0.00  0.00    +0.024 C 
ATOM     12  C   UNL     1      10.498   8.169   6.586  0.00  0.00    +0.089 C 
ATOM     13  C   UNL     1       9.526   5.957   8.255  0.00  0.00    +0.019 C 
ATOM     14  C   UNL     1       9.020   7.408   8.320  0.00  0.00    +0.085 C 
ENDROOT
BRANCH   9  15
ATOM     15  C   UNL     1      12.085   6.564   5.417  0.00  0.00    +0.089 C 
BRANCH  15   6
ATOM      6  N   UNL     1      13.226   7.478   5.445  0.00  0.00    -0.302 NA
ATOM     17  C   UNL     1      13.918   7.476   4.150  0.00  0.00    +0.084 C 
ATOM     18  C   UNL     1      14.143   7.122   6.537  0.00  0.00    +0.084 C 
ATOM     19  C   UNL     1      16.069   8.175   5.282  0.00  0.00    -0.004 C 
ATOM     20  C   UNL     1      15.084   8.467   4.146  0.00  0.00    +0.019 C 
ATOM     21  C   UNL     1      15.315   8.103   6.614  0.00  0.00    +0.019 C 
BRANCH  19  22
ATOM     22  C   UNL     1      17.174   9.227   5.334  0.00  0.00    +0.038 C 
BRANCH  22  23
ATOM     23  C   UNL     1      18.536   8.596   5.433  0.00  0.00    -0.047 A 
ATOM     25  C   UNL     1      19.261   8.685   6.622  0.00  0.00    +0.003 A 
ATOM     26  C   UNL     1      19.075   7.923   4.336  0.00  0.00    +0.003 A 
ATOM     29  C   UNL     1      20.524   8.100   6.714  0.00  0.00    +0.000 A 
ATOM     30  C   UNL     1      20.338   7.339   4.429  0.00  0.00    +0.000 A 
ATOM     31  C   UNL     1      21.062   7.426   5.617  0.00  0.00    +0.000 A 
ENDBRANCH  22  23
ENDBRANCH  19  22
ENDBRANCH  15   6
ENDBRANCH   9  15
BRANCH  10  16
ATOM     16  C   UNL     1       8.070   7.916   4.696  0.00  0.00    +0.124 C 
BRANCH  16   7
ATOM      7  N   UNL     1       8.628   7.106   3.601  0.00  0.00    -0.188 NA
ATOM     36  H   UNL     1       8.748   6.102   3.786  0.00  0.00    +0.148 HD
BRANCH   7   1
ATOM      1  S   UNL     1       9.697   7.807   2.476  0.00  0.00    +0.058 S 
ATOM      2  O   UNL     1      10.477   8.838   3.133  0.00  0.00    -0.153 OA
ATOM      3  O   UNL     1       8.974   8.106   1.255  0.00  0.00    -0.153 OA
BRANCH   1  24
ATOM     24  C   UNL     1      10.777   6.455   2.116  0.00  0.00    +0.105 A 
ATOM     27  C   UNL     1      10.498   5.185   2.621  0.00  0.00    +0.032 A 
ATOM     28  C   UNL     1      11.910   6.657   1.326  0.00  0.00    +0.032 A 
ATOM     32  C   UNL     1      11.350   4.118   2.337  0.00  0.00    +0.047 A 
ATOM     33  C   UNL     1      12.762   5.591   1.042  0.00  0.00    +0.047 A 
ATOM     34  C   UNL     1      12.482   4.321   1.548  0.00  0.00    +0.120 A 
BRANCH  34   4
ATOM      4  O   UNL     1      13.315   3.280   1.271  0.00  0.00    -0.495 OA
ATOM     35  C   UNL     1      14.690   3.440   1.618  0.00  0.00    +0.277 C 
ENDBRANCH  34   4
ENDBRANCH   1  24
ENDBRANCH   7   1
ENDBRANCH  16   7
ENDBRANCH  10  16
TORSDOF 9
ENDMDL
MODEL 2
REMARK VINA RESULT:      -6.7     24.636     29.047
REMARK  Name = 25389393
REMARK  10 active torsions:
REMARK  status: ('A' for Active; 'I' for Inactive)
REMARK    1  A    between atoms: S_1  and  N_7
REMARK    2  A    between atoms: S_1  and  C_24
REMARK    3  A    between atoms: O_4  and  C_34
REMARK    4  A    between atoms: O_4  and  C_35
REMARK    5  A    between atoms: N_6  and  C_15
REMARK    6  A    between atoms: N_7  and  C_16
REMARK    7  A    between atoms: C_9  and  C_15
REMARK    8  A    between atoms: C_10  and  C_16
REMARK    9  A    between atoms: C_19  and  C_22
REMARK   10  A    between atoms: C_22  and  C_23
REMARK                            x       y       z     vdW  Elec       q    Type
REMARK                         _______ _______ _______ _____ _____    ______ ____
ROOT
ATOM      5  N   UNL     1      -6.137 -12.657  17.518  0.00  0.00    -0.298 NA
ATOM      8  C   UNL     1      -6.625 -10.167  18.090  0.00  0.00    -0.003 C 
ATOM      9  C   UNL     1      -7.690 -10.729  17.122  0.00  0.00    +0.020 C 
ATOM     10  C   UNL     1      -4.924 -11.831  17.274  0.00  0.00    +0.072 C 
ATOM     11  C   UNL     1      -5.228 -10.328  17.462  0.00  0.00    +0.024 C 
ATOM     12  C   UNL     1      -7.271 -12.157  16.705  0.00  0.00    +0.089 C 
ATOM     13  C   UNL     1      -6.661 -11.048  19.354  0.00  0.00    +0.019 C 
ATOM     14  C   UNL     1      -6.500 -12.523  18.949  0.00  0.00    +0.085 C 
ENDROOT
BRANCH   9  15
ATOM     15  C   UNL     1      -7.931  -9.835  15.907  0.00  0.00    +0.089 C 
BRANCH  15   6
ATOM      6  N   UNL     1      -9.290  -9.298  15.964  0.00  0.00    -0.302 NA
ATOM     17  C   UNL     1      -9.800  -9.045  14.610  0.00  0.00    +0.084 C 
ATOM     18  C   UNL     1      -9.326  -8.078  16.782  0.00  0.00    +0.084 C 
ATOM     19  C   UNL     1     -11.361  -7.272  15.515  0.00  0.00    -0.004 C 
ATOM     20  C   UNL     1     -11.241  -8.532  14.651  0.00  0.00    +0.019 C 
ATOM     21  C   UNL     1     -10.752  -7.533  16.897  0.00  0.00    +0.019 C 
BRANCH  19  22
ATOM     22  C   UNL     1     -12.816  -6.824  15.633  0.00  0.00    +0.038 C 
BRANCH  22  23
ATOM     23  C   UNL     1     -13.193  -5.870  14.534  0.00  0.00    -0.047 A 
ATOM     25  C   UNL     1     -12.221  -5.054  13.953  0.00  0.00    +0.003 A 
ATOM     26  C   UNL     1     -14.515  -5.799  14.094  0.00  0.00    +0.003 A 
ATOM     29  C   UNL     1     -12.570  -4.169  12.934  0.00  0.00    +0.000 A 
ATOM     30  C   UNL     1     -14.864  -4.913  13.075  0.00  0.00    +0.000 A 
ATOM     31  C   UNL     1     -13.892  -4.099  12.494  0.00  0.00    +0.000 A 
ENDBRANCH  22  23
ENDBRANCH  19  22
ENDBRANCH  15   6
ENDBRANCH   9  15
BRANCH  10  16
ATOM     16  C   UNL     1      -4.288 -12.114  15.911  0.00  0.00    +0.124 C 
BRANCH  16   7
ATOM      7  N   UNL     1      -3.625 -10.895  15.423  0.00  0.00    -0.188 NA
ATOM     36  H   UNL     1      -4.229 -10.086  15.235  0.00  0.00    +0.148 HD
BRANCH   7   1
ATOM      1  S   UNL     1      -2.195 -11.007  14.504  0.00  0.00    +0.058 S 
ATOM      2  O   UNL     1      -1.837 -12.403  14.343  0.00  0.00    -0.153 OA
ATOM      3  O   UNL     1      -1.224 -10.060  15.018  0.00  0.00    -0.153 OA
BRANCH   1  24
ATOM     24  C   UNL     1      -2.728 -10.397  12.933  0.00  0.00    +0.105 A 
ATOM     27  C   UNL     1      -4.090 -10.285  12.654  0.00  0.00    +0.032 A 
ATOM     28  C   UNL     1      -1.786 -10.028  11.972  0.00  0.00    +0.032 A 
ATOM     32  C   UNL     1      -4.511  -9.803  11.414  0.00  0.00    +0.047 A 
ATOM     33  C   UNL     1      -2.207  -9.546  10.733  0.00  0.00    +0.047 A 
ATOM     34  C   UNL     1      -3.569  -9.434  10.454  0.00  0.00    +0.120 A 
BRANCH  34   4
ATOM      4  O   UNL     1      -3.980  -8.965   9.243  0.00  0.00    -0.495 OA
ATOM     35  C   UNL     1      -4.786  -9.836   8.450  0.00  0.00    +0.277 C 
ENDBRANCH  34   4
ENDBRANCH   1  24
ENDBRANCH   7   1
ENDBRANCH  16   7
ENDBRANCH  10  16
TORSDOF 9
ENDMDL
MODEL 3
REMARK VINA RESULT:      -6.4      2.583      3.480
REMARK  Name = 25389393
REMARK  10 active torsions:
REMARK  status: ('A' for Active; 'I' for Inactive)
REMARK    1  A    between atoms: S_1  and  N_7
REMARK    2  A    between atoms: S_1  and  C_24
REMARK    3  A    between atoms: O_4  and  C_34
REMARK    4  A    between atoms: O_4  and  C_35
REMARK    5  A    between atoms: N_6  and  C_15
REMARK    6  A    between atoms: N_7  and  C_16
REMARK    7  A    between atoms: C_9  and  C_15
REMARK    8  A    between atoms: C_10  and  C_16
REMARK    9  A    between atoms: C_19  and  C_22
REMARK   10  A    between atoms: C_22  and  C_23
REMARK                            x       y       z     vdW  Elec       q    Type
REMARK                         _______ _______ _______ _____ _____    ______ ____
ROOT
ATOM      5  N   UNL     1       9.928   7.265   3.915  0.00  0.00    -0.298 NA
ATOM      8  C   UNL     1       9.630   6.340   6.328  0.00  0.00    -0.003 C 
ATOM      9  C   UNL     1      10.451   7.649   6.337  0.00  0.00    +0.020 C 
ATOM     10  C   UNL     1      10.350   5.839   3.970  0.00  0.00    +0.072 C 
ATOM     11  C   UNL     1      10.326   5.308   5.421  0.00  0.00    +0.024 C 
ATOM     12  C   UNL     1      10.719   8.072   4.875  0.00  0.00    +0.089 C 
ATOM     13  C   UNL     1       8.269   6.670   5.685  0.00  0.00    +0.019 C 
ATOM     14  C   UNL     1       8.503   7.334   4.317  0.00  0.00    +0.085 C 
ENDROOT
BRANCH   9  15
ATOM     15  C   UNL     1      11.747   7.543   7.140  0.00  0.00    +0.089 C 
BRANCH  15   6
ATOM      6  N   UNL     1      12.861   8.023   6.324  0.00  0.00    -0.302 NA
ATOM     17  C   UNL     1      13.919   7.006   6.249  0.00  0.00    +0.084 C 
ATOM     18  C   UNL     1      13.380   9.290   6.857  0.00  0.00    +0.084 C 
ATOM     19  C   UNL     1      15.643   8.810   5.835  0.00  0.00    -0.004 C 
ATOM     20  C   UNL     1      15.070   7.472   5.355  0.00  0.00    +0.019 C 
ATOM     21  C   UNL     1      14.512   9.834   5.983  0.00  0.00    +0.019 C 
BRANCH  19  22
ATOM     22  C   UNL     1      16.722   9.318   4.883  0.00  0.00    +0.038 C 
BRANCH  22  23
ATOM     23  C   UNL     1      18.071   8.743   5.216  0.00  0.00    -0.047 A 
ATOM     25  C   UNL     1      18.625   8.950   6.481  0.00  0.00    +0.003 A 
ATOM     26  C   UNL     1      18.770   8.005   4.262  0.00  0.00    +0.003 A 
ATOM     29  C   UNL     1      19.876   8.417   6.790  0.00  0.00    +0.000 A 
ATOM     30  C   UNL     1      20.022   7.472   4.571  0.00  0.00    +0.000 A 
ATOM     31  C   UNL     1      20.575   7.677   5.835  0.00  0.00    +0.000 A 
ENDBRANCH  22  23
ENDBRANCH  19  22
ENDBRANCH  15   6
ENDBRANCH   9  15
BRANCH  10  16
ATOM     16  C   UNL     1      11.708   5.605   3.304  0.00  0.00    +0.124 C 
BRANCH  16   7
ATOM      7  N   UNL     1      11.559   4.600   2.241  0.00  0.00    -0.188 NA
ATOM     36  H   UNL     1      10.845   3.875   2.389  0.00  0.00    +0.148 HD
BRANCH   7   1
ATOM      1  S   UNL     1      12.896   4.166   1.278  0.00  0.00    +0.058 S 
ATOM      2  O   UNL     1      13.414   2.888   1.726  0.00  0.00    -0.153 OA
ATOM      3  O   UNL     1      13.781   5.308   1.152  0.00  0.00    -0.153 OA
BRANCH   1  24
ATOM     24  C   UNL     1      12.139   3.923  -0.301  0.00  0.00    +0.105 A 
ATOM     27  C   UNL     1      11.045   4.703  -0.677  0.00  0.00    +0.032 A 
ATOM     28  C   UNL     1      12.636   2.952  -1.171  0.00  0.00    +0.032 A 
ATOM     32  C   UNL     1      10.448   4.512  -1.923  0.00  0.00    +0.047 A 
ATOM     33  C   UNL     1      12.039   2.761  -2.416  0.00  0.00    +0.047 A 
ATOM     34  C   UNL     1      10.945   3.540  -2.792  0.00  0.00    +0.120 A 
BRANCH  34   4
ATOM      4  O   UNL     1      10.361   3.353  -4.009  0.00  0.00    -0.495 OA
ATOM     35  C   UNL     1       9.385   2.316  -4.106  0.00  0.00    +0.277 C 
ENDBRANCH  34   4
ENDBRANCH   1  24
ENDBRANCH   7   1
ENDBRANCH  16   7
ENDBRANCH  10  16
TORSDOF 9
ENDMDL
MODEL 4
REMARK VINA RESULT:      -6.2     25.035     27.933
REMARK  Name = 25389393
REMARK  10 active torsions:
REMARK  status: ('A' for Active; 'I' for Inactive)
REMARK    1  A    between atoms: S_1  and  N_7
REMARK    2  A    between atoms: S_1  and  C_24
REMARK    3  A    between atoms: O_4  and  C_34
REMARK    4  A    between atoms: O_4  and  C_35
REMARK    5  A    between atoms: N_6  and  C_15
REMARK    6  A    between atoms: N_7  and  C_16
REMARK    7  A    between atoms: C_9  and  C_15
REMARK    8  A    between atoms: C_10  and  C_16
REMARK    9  A    between atoms: C_19  and  C_22
REMARK   10  A    between atoms: C_22  and  C_23
REMARK                            x       y       z     vdW  Elec       q    Type
REMARK                         _______ _______ _______ _____ _____    ______ ____
ROOT
ATOM      5  N   UNL     1      -5.670 -12.895  17.053  0.00  0.00    -0.298 NA
ATOM      8  C   UNL     1      -5.332 -10.489  17.984  0.00  0.00    -0.003 C 
ATOM      9  C   UNL     1      -6.728 -10.639  17.337  0.00  0.00    +0.020 C 
ATOM     10  C   UNL     1      -4.401 -12.320  16.531  0.00  0.00    +0.072 C 
ATOM     11  C   UNL     1      -4.249 -10.839  16.947  0.00  0.00    +0.024 C 
ATOM     12  C   UNL     1      -6.817 -12.033  16.677  0.00  0.00    +0.089 C 
ATOM     13  C   UNL     1      -5.244 -11.540  19.108  0.00  0.00    +0.019 C 
ATOM     14  C   UNL     1      -5.581 -12.927  18.533  0.00  0.00    +0.085 C 
ENDROOT
BRANCH   9  15
ATOM     15  C   UNL     1      -7.055  -9.524  16.346  0.00  0.00    +0.089 C 
BRANCH  15   6
ATOM      6  N   UNL     1      -7.157 -10.087  15.000  0.00  0.00    -0.302 NA
ATOM     17  C   UNL     1      -6.021  -9.656  14.175  0.00  0.00    +0.084 C 
ATOM     18  C   UNL     1      -8.435  -9.713  14.382  0.00  0.00    +0.084 C 
ATOM     19  C   UNL     1      -7.410  -9.955  12.083  0.00  0.00    -0.004 C 
ATOM     20  C   UNL     1      -6.085 -10.280  12.779  0.00  0.00    +0.019 C 
ATOM     21  C   UNL     1      -8.581 -10.340  12.993  0.00  0.00    +0.019 C 
BRANCH  19  22
ATOM     22  C   UNL     1      -7.509 -10.663  10.734  0.00  0.00    +0.038 C 
BRANCH  22  23
ATOM     23  C   UNL     1      -8.011  -9.740   9.658  0.00  0.00    -0.047 A 
ATOM     25  C   UNL     1      -9.250  -9.975   9.060  0.00  0.00    +0.003 A 
ATOM     26  C   UNL     1      -7.239  -8.650   9.258  0.00  0.00    +0.003 A 
ATOM     29  C   UNL     1      -9.717  -9.119   8.063  0.00  0.00    +0.000 A 
ATOM     30  C   UNL     1      -7.705  -7.794   8.260  0.00  0.00    +0.000 A 
ATOM     31  C   UNL     1      -8.944  -8.027   7.663  0.00  0.00    +0.000 A 
ENDBRANCH  22  23
ENDBRANCH  19  22
ENDBRANCH  15   6
ENDBRANCH   9  15
BRANCH  10  16
ATOM     16  C   UNL     1      -4.256 -12.501  15.018  0.00  0.00    +0.124 C 
BRANCH  16   7
ATOM      7  N   UNL     1      -3.077 -13.338  14.741  0.00  0.00    -0.188 NA
ATOM     36  H   UNL     1      -2.905 -14.118  15.387  0.00  0.00    +0.148 HD
BRANCH   7   1
ATOM      1  S   UNL     1      -1.712 -12.667  13.975  0.00  0.00    +0.058 S 
ATOM      2  O   UNL     1      -0.825 -13.735  13.555  0.00  0.00    -0.153 OA
ATOM      3  O   UNL     1      -1.205 -11.573  14.780  0.00  0.00    -0.153 OA
BRANCH   1  24
ATOM     24  C   UNL     1      -2.427 -11.953  12.525  0.00  0.00    +0.105 A 
ATOM     27  C   UNL     1      -3.131 -12.755  11.627  0.00  0.00    +0.032 A 
ATOM     28  C   UNL     1      -2.288 -10.587  12.278  0.00  0.00    +0.032 A 
ATOM     32  C   UNL     1      -3.696 -12.192  10.483  0.00  0.00    +0.047 A 
ATOM     33  C   UNL     1      -2.852 -10.024  11.135  0.00  0.00    +0.047 A 
ATOM     34  C   UNL     1      -3.556 -10.826  10.237  0.00  0.00    +0.120 A 
BRANCH  34   4
ATOM      4  O   UNL     1      -4.107 -10.276   9.119  0.00  0.00    -0.495 OA
ATOM     35  C   UNL     1      -4.643 -11.176   8.150  0.00  0.00    +0.277 C 
ENDBRANCH  34   4
ENDBRANCH   1  24
ENDBRANCH   7   1
ENDBRANCH  16   7
ENDBRANCH  10  16
TORSDOF 9
ENDMDL
MODEL 5
REMARK VINA RESULT:      -6.1      4.536      7.533
REMARK  Name = 25389393
REMARK  10 active torsions:
REMARK  status: ('A' for Active; 'I' for Inactive)
REMARK    1  A    between atoms: S_1  and  N_7
REMARK    2  A    between atoms: S_1  and  C_24
REMARK    3  A    between atoms: O_4  and  C_34
REMARK    4  A    between atoms: O_4  and  C_35
REMARK    5  A    between atoms: N_6  and  C_15
REMARK    6  A    between atoms: N_7  and  C_16
REMARK    7  A    between atoms: C_9  and  C_15
REMARK    8  A    between atoms: C_10  and  C_16
REMARK    9  A    between atoms: C_19  and  C_22
REMARK   10  A    between atoms: C_22  and  C_23
REMARK                            x       y       z     vdW  Elec       q    Type
REMARK                         _______ _______ _______ _____ _____    ______ ____
ROOT
ATOM      5  N   UNL     1      10.227   7.095   6.833  0.00  0.00    -0.298 NA
ATOM      8  C   UNL     1       9.244   5.208   5.336  0.00  0.00    -0.003 C 
ATOM      9  C   UNL     1      10.468   5.866   4.660  0.00  0.00    +0.020 C 
ATOM     10  C   UNL     1       8.767   7.305   6.641  0.00  0.00    +0.072 C 
ATOM     11  C   UNL     1       8.186   6.286   5.635  0.00  0.00    +0.024 C 
ATOM     12  C   UNL     1      10.919   7.068   5.521  0.00  0.00    +0.089 C 
ATOM     13  C   UNL     1       9.725   4.652   6.690  0.00  0.00    +0.019 C 
ATOM     14  C   UNL     1      10.417   5.775   7.482  0.00  0.00    +0.085 C 
ENDROOT
BRANCH   9  15
ATOM     15  C   UNL     1      10.209   6.277   3.212  0.00  0.00    +0.089 C 
BRANCH  15   6
ATOM      6  N   UNL     1      10.687   5.223   2.318  0.00  0.00    -0.302 NA
ATOM     17  C   UNL     1      12.137   5.041   2.468  0.00  0.00    +0.084 C 
ATOM     18  C   UNL     1      10.332   5.529   0.926  0.00  0.00    +0.084 C 
ATOM     19  C   UNL     1      12.283   4.143   0.108  0.00  0.00    -0.004 C 
ATOM     20  C   UNL     1      12.646   3.905   1.577  0.00  0.00    +0.019 C 
ATOM     21  C   UNL     1      10.779   4.409  -0.017  0.00  0.00    +0.019 C 
BRANCH  19  22
ATOM     22  C   UNL     1      12.704   2.960  -0.760  0.00  0.00    +0.038 C 
BRANCH  22  23
ATOM     23  C   UNL     1      12.967   3.379  -2.180  0.00  0.00    -0.047 A 
ATOM     25  C   UNL     1      12.371   2.684  -3.234  0.00  0.00    +0.003 A 
ATOM     26  C   UNL     1      13.805   4.462  -2.445  0.00  0.00    +0.003 A 
ATOM     29  C   UNL     1      12.614   3.072  -4.551  0.00  0.00    +0.000 A 
ATOM     30  C   UNL     1      14.047   4.850  -3.762  0.00  0.00    +0.000 A 
ATOM     31  C   UNL     1      13.452   4.156  -4.815  0.00  0.00    +0.000 A 
ENDBRANCH  22  23
ENDBRANCH  19  22
ENDBRANCH  15   6
ENDBRANCH   9  15
BRANCH  10  16
ATOM     16  C   UNL     1       8.431   8.746   6.247  0.00  0.00    +0.124 C 
BRANCH  16   7
ATOM      7  N   UNL     1       7.773   8.746   4.931  0.00  0.00    -0.188 NA
ATOM     36  H   UNL     1       7.476   7.833   4.564  0.00  0.00    +0.148 HD
BRANCH   7   1
ATOM      1  S   UNL     1       8.161   9.940   3.779  0.00  0.00    +0.058 S 
ATOM      2  O   UNL     1       9.349   9.536   3.053  0.00  0.00    -0.153 OA
ATOM      3  O   UNL     1       8.099  11.245   4.408  0.00  0.00    -0.153 OA
BRANCH   1  24
ATOM     24  C   UNL     1       6.786   9.834   2.674  0.00  0.00    +0.105 A 
ATOM     27  C   UNL     1       5.500  10.122   3.131  0.00  0.00    +0.032 A 
ATOM     28  C   UNL     1       6.986   9.462   1.344  0.00  0.00    +0.032 A 
ATOM     32  C   UNL     1       4.414  10.040   2.259  0.00  0.00    +0.047 A 
ATOM     33  C   UNL     1       5.902   9.379   0.472  0.00  0.00    +0.047 A 
ATOM     34  C   UNL     1       4.616   9.667   0.929  0.00  0.00    +0.120 A 
BRANCH  34   4
ATOM      4  O   UNL     1       3.556   9.585   0.078  0.00  0.00    -0.495 OA
ATOM     35  C   UNL     1       2.854  10.795  -0.203  0.00  0.00    +0.277 C 
ENDBRANCH  34   4
ENDBRANCH   1  24
ENDBRANCH   7   1
ENDBRANCH  16   7
ENDBRANCH  10  16
TORSDOF 9
ENDMDL
MODEL 6
REMARK VINA RESULT:      -6.1      4.402      9.818
REMARK  Name = 25389393
REMARK  10 active torsions:
REMARK  status: ('A' for Active; 'I' for Inactive)
REMARK    1  A    between atoms: S_1  and  N_7
REMARK    2  A    between atoms: S_1  and  C_24
REMARK    3  A    between atoms: O_4  and  C_34
REMARK    4  A    between atoms: O_4  and  C_35
REMARK    5  A    between atoms: N_6  and  C_15
REMARK    6  A    between atoms: N_7  and  C_16
REMARK    7  A    between atoms: C_9  and  C_15
REMARK    8  A    between atoms: C_10  and  C_16
REMARK    9  A    between atoms: C_19  and  C_22
REMARK   10  A    between atoms: C_22  and  C_23
REMARK                            x       y       z     vdW  Elec       q    Type
REMARK                         _______ _______ _______ _____ _____    ______ ____
ROOT
ATOM      5  N   UNL     1      13.571   5.791   0.971  0.00  0.00    -0.298 NA
ATOM      8  C   UNL     1      13.361   3.212   0.711  0.00  0.00    -0.003 C 
ATOM      9  C   UNL     1      13.539   3.892  -0.666  0.00  0.00    +0.020 C 
ATOM     10  C   UNL     1      12.355   5.305   1.678  0.00  0.00    +0.072 C 
ATOM     11  C   UNL     1      12.125   3.799   1.415  0.00  0.00    +0.024 C 
ATOM     12  C   UNL     1      13.511   5.424  -0.464  0.00  0.00    +0.089 C 
ATOM     13  C   UNL     1      14.592   3.589   1.558  0.00  0.00    +0.019 C 
ATOM     14  C   UNL     1      14.748   5.120   1.572  0.00  0.00    +0.085 C 
ENDROOT
BRANCH   9  15
ATOM     15  C   UNL     1      12.507   3.441  -1.698  0.00  0.00    +0.089 C 
BRANCH  15   6
ATOM      6  N   UNL     1      11.643   4.570  -2.043  0.00  0.00    -0.302 NA
ATOM     17  C   UNL     1      10.256   4.295  -1.647  0.00  0.00    +0.084 C 
ATOM     18  C   UNL     1      11.736   4.868  -3.479  0.00  0.00    +0.084 C 
ATOM     19  C   UNL     1       9.417   5.876  -3.434  0.00  0.00    -0.004 C 
ATOM     20  C   UNL     1       9.348   5.488  -1.954  0.00  0.00    +0.019 C 
ATOM     21  C   UNL     1      10.879   6.081  -3.847  0.00  0.00    +0.019 C 
BRANCH  19  22
ATOM     22  C   UNL     1       8.589   7.128  -3.712  0.00  0.00    +0.038 C 
BRANCH  22  23
ATOM     23  C   UNL     1       7.115   6.830  -3.703  0.00  0.00    -0.047 A 
ATOM     25  C   UNL     1       6.292   7.408  -2.735  0.00  0.00    +0.003 A 
ATOM     26  C   UNL     1       6.569   5.976  -4.661  0.00  0.00    +0.003 A 
ATOM     29  C   UNL     1       4.925   7.133  -2.726  0.00  0.00    +0.000 A 
ATOM     30  C   UNL     1       5.202   5.701  -4.652  0.00  0.00    +0.000 A 
ATOM     31  C   UNL     1       4.379   6.279  -3.685  0.00  0.00    +0.000 A 
ENDBRANCH  22  23
ENDBRANCH  19  22
ENDBRANCH  15   6
ENDBRANCH   9  15
BRANCH  10  16
ATOM     16  C   UNL     1      11.113   6.135   1.346  0.00  0.00    +0.124 C 
BRANCH  16   7
ATOM      7  N   UNL     1      10.157   6.043   2.459  0.00  0.00    -0.188 NA
ATOM     36  H   UNL     1       9.407   5.346   2.366  0.00  0.00    +0.148 HD
BRANCH   7   1
ATOM      1  S   UNL     1       9.805   7.417   3.403  0.00  0.00    +0.058 S 
ATOM      2  O   UNL     1       8.400   7.746   3.265  0.00  0.00    -0.153 OA
ATOM      3  O   UNL     1      10.818   8.427   3.167  0.00  0.00    -0.153 OA
BRANCH   1  24
ATOM     24  C   UNL     1      10.062   6.803   5.041  0.00  0.00    +0.105 A 
ATOM     27  C   UNL     1      11.283   7.014   5.682  0.00  0.00    +0.032 A 
ATOM     28  C   UNL     1       9.043   6.108   5.693  0.00  0.00    +0.032 A 
ATOM     32  C   UNL     1      11.485   6.531   6.975  0.00  0.00    +0.047 A 
ATOM     33  C   UNL     1       9.245   5.624   6.985  0.00  0.00    +0.047 A 
ATOM     34  C   UNL     1      10.466   5.835   7.626  0.00  0.00    +0.120 A 
BRANCH  34   4
ATOM      4  O   UNL     1      10.664   5.361   8.887  0.00  0.00    -0.495 OA
ATOM     35  C   UNL     1       9.582   4.652   9.490  0.00  0.00    +0.277 C 
ENDBRANCH  34   4
ENDBRANCH   1  24
ENDBRANCH   7   1
ENDBRANCH  16   7
ENDBRANCH  10  16
TORSDOF 9
ENDMDL
MODEL 7
REMARK VINA RESULT:      -6.1     25.803     30.286
REMARK  Name = 25389393
REMARK  10 active torsions:
REMARK  status: ('A' for Active; 'I' for Inactive)
REMARK    1  A    between atoms: S_1  and  N_7
REMARK    2  A    between atoms: S_1  and  C_24
REMARK    3  A    between atoms: O_4  and  C_34
REMARK    4  A    between atoms: O_4  and  C_35
REMARK    5  A    between atoms: N_6  and  C_15
REMARK    6  A    between atoms: N_7  and  C_16
REMARK    7  A    between atoms: C_9  and  C_15
REMARK    8  A    between atoms: C_10  and  C_16
REMARK    9  A    between atoms: C_19  and  C_22
REMARK   10  A    between atoms: C_22  and  C_23
REMARK                            x       y       z     vdW  Elec       q    Type
REMARK                         _______ _______ _______ _____ _____    ______ ____
ROOT
ATOM      5  N   UNL     1      -5.308 -12.370  16.388  0.00  0.00    -0.298 NA
ATOM      8  C   UNL     1      -5.292 -10.725  18.403  0.00  0.00    -0.003 C 
ATOM      9  C   UNL     1      -6.722 -10.896  17.842  0.00  0.00    +0.020 C 
ATOM     10  C   UNL     1      -4.287 -11.310  16.172  0.00  0.00    +0.072 C 
ATOM     11  C   UNL     1      -4.360 -10.235  17.280  0.00  0.00    +0.024 C 
ATOM     12  C   UNL     1      -6.650 -11.764  16.565  0.00  0.00    +0.089 C 
ATOM     13  C   UNL     1      -4.806 -12.125  18.823  0.00  0.00    +0.019 C 
ATOM     14  C   UNL     1      -4.959 -13.092  17.636  0.00  0.00    +0.085 C 
ENDROOT
BRANCH   9  15
ATOM     15  C   UNL     1      -7.430  -9.568  17.581  0.00  0.00    +0.089 C 
BRANCH  15   6
ATOM      6  N   UNL     1      -8.850  -9.817  17.333  0.00  0.00    -0.302 NA
ATOM     17  C   UNL     1      -9.577  -8.549  17.189  0.00  0.00    +0.084 C 
ATOM     18  C   UNL     1      -9.423 -10.639  18.408  0.00  0.00    +0.084 C 
ATOM     19  C   UNL     1     -11.714  -9.673  17.945  0.00  0.00    -0.004 C 
ATOM     20  C   UNL     1     -11.055  -8.793  16.877  0.00  0.00    +0.019 C 
ATOM     21  C   UNL     1     -10.895 -10.954  18.136  0.00  0.00    +0.019 C 
BRANCH  19  22
ATOM     22  C   UNL     1     -13.159  -9.995  17.576  0.00  0.00    +0.038 C 
BRANCH  22  23
ATOM     23  C   UNL     1     -14.122  -9.493  18.616  0.00  0.00    -0.047 A 
ATOM     25  C   UNL     1     -15.295  -8.844  18.226  0.00  0.00    +0.003 A 
ATOM     26  C   UNL     1     -13.845  -9.677  19.970  0.00  0.00    +0.003 A 
ATOM     29  C   UNL     1     -16.189  -8.379  19.190  0.00  0.00    +0.000 A 
ATOM     30  C   UNL     1     -14.739  -9.212  20.935  0.00  0.00    +0.000 A 
ATOM     31  C   UNL     1     -15.911  -8.564  20.546  0.00  0.00    +0.000 A 
ENDBRANCH  22  23
ENDBRANCH  19  22
ENDBRANCH  15   6
ENDBRANCH   9  15
BRANCH  10  16
ATOM     16  C   UNL     1      -4.375 -10.690  14.775  0.00  0.00    +0.124 C 
BRANCH  16   7
ATOM      7  N   UNL     1      -3.919 -11.673  13.780  0.00  0.00    -0.188 NA
ATOM     36  H   UNL     1      -4.126 -12.660  13.979  0.00  0.00    +0.148 HD
BRANCH   7   1
ATOM      1  S   UNL     1      -2.534 -11.361  12.839  0.00  0.00    +0.058 S 
ATOM      2  O   UNL     1      -1.796 -12.594  12.647  0.00  0.00    -0.153 OA
ATOM      3  O   UNL     1      -1.864 -10.183  13.356  0.00  0.00    -0.153 OA
BRANCH   1  24
ATOM     24  C   UNL     1      -3.248 -10.908  11.287  0.00  0.00    +0.105 A 
ATOM     27  C   UNL     1      -3.892 -11.869  10.508  0.00  0.00    +0.032 A 
ATOM     28  C   UNL     1      -3.168  -9.588  10.840  0.00  0.00    +0.032 A 
ATOM     32  C   UNL     1      -4.456 -11.512   9.283  0.00  0.00    +0.047 A 
ATOM     33  C   UNL     1      -3.732  -9.231   9.616  0.00  0.00    +0.047 A 
ATOM     34  C   UNL     1      -4.376 -10.193   8.837  0.00  0.00    +0.120 A 
BRANCH  34   4
ATOM      4  O   UNL     1      -4.925  -9.844   7.641  0.00  0.00    -0.495 OA
ATOM     35  C   UNL     1      -6.342  -9.681   7.601  0.00  0.00    +0.277 C 
ENDBRANCH  34   4
ENDBRANCH   1  24
ENDBRANCH   7   1
ENDBRANCH  16   7
ENDBRANCH  10  16
TORSDOF 9
ENDMDL
MODEL 8
REMARK VINA RESULT:      -6.1     27.449     31.113
REMARK  Name = 25389393
REMARK  10 active torsions:
REMARK  status: ('A' for Active; 'I' for Inactive)
REMARK    1  A    between atoms: S_1  and  N_7
REMARK    2  A    between atoms: S_1  and  C_24
REMARK    3  A    between atoms: O_4  and  C_34
REMARK    4  A    between atoms: O_4  and  C_35
REMARK    5  A    between atoms: N_6  and  C_15
REMARK    6  A    between atoms: N_7  and  C_16
REMARK    7  A    between atoms: C_9  and  C_15
REMARK    8  A    between atoms: C_10  and  C_16
REMARK    9  A    between atoms: C_19  and  C_22
REMARK   10  A    between atoms: C_22  and  C_23
REMARK                            x       y       z     vdW  Elec       q    Type
REMARK                         _______ _______ _______ _____ _____    ______ ____
ROOT
ATOM      5  N   UNL     1     -11.945 -12.131  19.184  0.00  0.00    -0.298 NA
ATOM      8  C   UNL     1     -12.274  -9.552  19.098  0.00  0.00    -0.003 C 
ATOM      9  C   UNL     1     -12.105 -10.133  17.676  0.00  0.00    +0.020 C 
ATOM     10  C   UNL     1     -10.976 -11.463  20.094  0.00  0.00    +0.072 C 
ATOM     11  C   UNL     1     -11.048  -9.926  19.951  0.00  0.00    +0.024 C 
ATOM     12  C   UNL     1     -11.770 -11.637  17.796  0.00  0.00    +0.089 C 
ATOM     13  C   UNL     1     -13.496 -10.249  19.725  0.00  0.00    +0.019 C 
ATOM     14  C   UNL     1     -13.313 -11.774  19.632  0.00  0.00    +0.085 C 
ENDROOT
BRANCH   9  15
ATOM     15  C   UNL     1     -11.065  -9.389  16.840  0.00  0.00    +0.089 C 
BRANCH  15   6
ATOM      6  N   UNL     1     -11.699  -8.243  16.190  0.00  0.00    -0.302 NA
ATOM     17  C   UNL     1     -12.412  -8.669  14.978  0.00  0.00    +0.084 C 
ATOM     18  C   UNL     1     -10.700  -7.210  15.883  0.00  0.00    +0.084 C 
ATOM     19  C   UNL     1     -12.145  -6.355  13.991  0.00  0.00    -0.004 C 
ATOM     20  C   UNL     1     -13.125  -7.489  14.314  0.00  0.00    +0.019 C 
ATOM     21  C   UNL     1     -11.356  -5.980  15.250  0.00  0.00    +0.019 C 
BRANCH  19  22
ATOM     22  C   UNL     1     -12.878  -5.143  13.422  0.00  0.00    +0.038 C 
BRANCH  22  23
ATOM     23  C   UNL     1     -12.411  -4.816  12.031  0.00  0.00    -0.047 A 
ATOM     25  C   UNL     1     -12.217  -5.839  11.101  0.00  0.00    +0.003 A 
ATOM     26  C   UNL     1     -12.172  -3.490  11.668  0.00  0.00    +0.003 A 
ATOM     29  C   UNL     1     -11.784  -5.536   9.810  0.00  0.00    +0.000 A 
ATOM     30  C   UNL     1     -11.739  -3.188  10.377  0.00  0.00    +0.000 A 
ATOM     31  C   UNL     1     -11.546  -4.209   9.448  0.00  0.00    +0.000 A 
ENDBRANCH  22  23
ENDBRANCH  19  22
ENDBRANCH  15   6
ENDBRANCH   9  15
BRANCH  10  16
ATOM     16  C   UNL     1      -9.548 -11.984  19.912  0.00  0.00    +0.124 C 
BRANCH  16   7
ATOM      7  N   UNL     1      -8.645 -10.847  19.676  0.00  0.00    -0.188 NA
ATOM     36  H   UNL     1      -9.039 -10.042  19.172  0.00  0.00    +0.148 HD
BRANCH   7   1
ATOM      1  S   UNL     1      -6.970 -11.104  19.507  0.00  0.00    +0.058 S 
ATOM      2  O   UNL     1      -6.685 -12.518  19.656  0.00  0.00    -0.153 OA
ATOM      3  O   UNL     1      -6.256 -10.129  20.308  0.00  0.00    -0.153 OA
BRANCH   1  24
ATOM     24  C   UNL     1      -6.708 -10.672  17.814  0.00  0.00    +0.105 A 
ATOM     27  C   UNL     1      -7.793 -10.576  16.942  0.00  0.00    +0.032 A 
ATOM     28  C   UNL     1      -5.416 -10.426  17.348  0.00  0.00    +0.032 A 
ATOM     32  C   UNL     1      -7.586 -10.234  15.606  0.00  0.00    +0.047 A 
ATOM     33  C   UNL     1      -5.209 -10.085  16.012  0.00  0.00    +0.047 A 
ATOM     34  C   UNL     1      -6.294  -9.989  15.141  0.00  0.00    +0.120 A 
BRANCH  34   4
ATOM      4  O   UNL     1      -6.092  -9.657  13.835  0.00  0.00    -0.495 OA
ATOM     35  C   UNL     1      -5.094 -10.391  13.127  0.00  0.00    +0.277 C 
ENDBRANCH  34   4
ENDBRANCH   1  24
ENDBRANCH   7   1
ENDBRANCH  16   7
ENDBRANCH  10  16
TORSDOF 9
ENDMDL
MODEL 9
REMARK VINA RESULT:      -6.1      3.425      7.171
REMARK  Name = 25389393
REMARK  10 active torsions:
REMARK  status: ('A' for Active; 'I' for Inactive)
REMARK    1  A    between atoms: S_1  and  N_7
REMARK    2  A    between atoms: S_1  and  C_24
REMARK    3  A    between atoms: O_4  and  C_34
REMARK    4  A    between atoms: O_4  and  C_35
REMARK    5  A    between atoms: N_6  and  C_15
REMARK    6  A    between atoms: N_7  and  C_16
REMARK    7  A    between atoms: C_9  and  C_15
REMARK    8  A    between atoms: C_10  and  C_16
REMARK    9  A    between atoms: C_19  and  C_22
REMARK   10  A    between atoms: C_22  and  C_23
REMARK                            x       y       z     vdW  Elec       q    Type
REMARK                         _______ _______ _______ _____ _____    ______ ____
ROOT
ATOM      5  N   UNL     1      11.680   9.026   6.613  0.00  0.00    -0.298 NA
ATOM      8  C   UNL     1      14.124   9.670   5.999  0.00  0.00    -0.003 C 
ATOM      9  C   UNL     1      13.195   9.801   4.771  0.00  0.00    +0.020 C 
ATOM     10  C   UNL     1      12.613   7.944   7.030  0.00  0.00    +0.072 C 
ATOM     11  C   UNL     1      14.051   8.232   6.544  0.00  0.00    +0.024 C 
ATOM     12  C   UNL     1      11.796   9.269   5.155  0.00  0.00    +0.089 C 
ATOM     13  C   UNL     1      13.559  10.601   7.089  0.00  0.00    +0.019 C 
ATOM     14  C   UNL     1      12.075  10.267   7.322  0.00  0.00    +0.085 C 
ENDROOT
BRANCH   9  15
ATOM     15  C   UNL     1      13.741   9.104   3.526  0.00  0.00    +0.089 C 
BRANCH  15   6
ATOM      6  N   UNL     1      12.742   8.162   3.023  0.00  0.00    -0.302 NA
ATOM     17  C   UNL     1      13.272   6.792   3.042  0.00  0.00    +0.084 C 
ATOM     18  C   UNL     1      12.309   8.545   1.672  0.00  0.00    +0.084 C 
ATOM     19  C   UNL     1      11.698   6.142   1.171  0.00  0.00    -0.004 C 
ATOM     20  C   UNL     1      12.220   5.787   2.567  0.00  0.00    +0.019 C 
ATOM     21  C   UNL     1      11.224   7.600   1.152  0.00  0.00    +0.019 C 
BRANCH  19  22
ATOM     22  C   UNL     1      10.579   5.196   0.746  0.00  0.00    +0.038 C 
BRANCH  22  23
ATOM     23  C   UNL     1      10.935   4.441  -0.505  0.00  0.00    -0.047 A 
ATOM     25  C   UNL     1      12.012   3.554  -0.502  0.00  0.00    +0.003 A 
ATOM     26  C   UNL     1      10.190   4.629  -1.669  0.00  0.00    +0.003 A 
ATOM     29  C   UNL     1      12.343   2.854  -1.662  0.00  0.00    +0.000 A 
ATOM     30  C   UNL     1      10.521   3.929  -2.829  0.00  0.00    +0.000 A 
ATOM     31  C   UNL     1      11.596   3.041  -2.826  0.00  0.00    +0.000 A 
ENDBRANCH  22  23
ENDBRANCH  19  22
ENDBRANCH  15   6
ENDBRANCH   9  15
BRANCH  10  16
ATOM     16  C   UNL     1      12.133   6.558   6.592  0.00  0.00    +0.124 C 
BRANCH  16   7
ATOM      7  N   UNL     1      11.581   5.846   7.756  0.00  0.00    -0.188 NA
ATOM     36  H   UNL     1      12.247   5.308   8.324  0.00  0.00    +0.148 HD
BRANCH   7   1
ATOM      1  S   UNL     1       9.972   5.289   7.735  0.00  0.00    +0.058 S 
ATOM      2  O   UNL     1       9.358   5.550   9.022  0.00  0.00    -0.153 OA
ATOM      3  O   UNL     1       9.938   3.955   7.167  0.00  0.00    -0.153 OA
BRANCH   1  24
ATOM     24  C   UNL     1       9.232   6.373   6.550  0.00  0.00    +0.105 A 
ATOM     27  C   UNL     1       9.260   6.047   5.194  0.00  0.00    +0.032 A 
ATOM     28  C   UNL     1       8.619   7.553   6.971  0.00  0.00    +0.032 A 
ATOM     32  C   UNL     1       8.676   6.902   4.259  0.00  0.00    +0.047 A 
ATOM     33  C   UNL     1       8.035   8.407   6.037  0.00  0.00    +0.047 A 
ATOM     34  C   UNL     1       8.064   8.082   4.681  0.00  0.00    +0.120 A 
BRANCH  34   4
ATOM      4  O   UNL     1       7.494   8.918   3.768  0.00  0.00    -0.495 OA
ATOM     35  C   UNL     1       7.982   8.843   2.429  0.00  0.00    +0.277 C 
ENDBRANCH  34   4
ENDBRANCH   1  24
ENDBRANCH   7   1
ENDBRANCH  16   7
ENDBRANCH  10  16
TORSDOF 9
ENDMDL
MODEL 10
REMARK VINA RESULT:      -6.0     25.406     28.559
REMARK  Name = 25389393
REMARK  10 active torsions:
REMARK  status: ('A' for Active; 'I' for Inactive)
REMARK    1  A    between atoms: S_1  and  N_7
REMARK    2  A    between atoms: S_1  and  C_24
REMARK    3  A    between atoms: O_4  and  C_34
REMARK    4  A    between atoms: O_4  and  C_35
REMARK    5  A    between atoms: N_6  and  C_15
REMARK    6  A    between atoms: N_7  and  C_16
REMARK    7  A    between atoms: C_9  and  C_15
REMARK    8  A    between atoms: C_10  and  C_16
REMARK    9  A    between atoms: C_19  and  C_22
REMARK   10  A    between atoms: C_22  and  C_23
REMARK                            x       y       z     vdW  Elec       q    Type
REMARK                         _______ _______ _______ _____ _____    ______ ____
ROOT
ATOM      5  N   UNL     1      -5.896 -10.159  17.552  0.00  0.00    -0.298 NA
ATOM      8  C   UNL     1      -5.767 -12.754  17.677  0.00  0.00    -0.003 C 
ATOM      9  C   UNL     1      -4.497 -12.170  17.017  0.00  0.00    +0.020 C 
ATOM     10  C   UNL     1      -7.123 -10.759  16.962  0.00  0.00    +0.072 C 
ATOM     11  C   UNL     1      -7.008 -12.299  16.887  0.00  0.00    +0.024 C 
ATOM     12  C   UNL     1      -4.691 -10.648  16.838  0.00  0.00    +0.089 C 
ATOM     13  C   UNL     1      -5.867 -12.132  19.083  0.00  0.00    +0.019 C 
ATOM     14  C   UNL     1      -5.806 -10.599  18.965  0.00  0.00    +0.085 C 
ENDROOT
BRANCH   9  15
ATOM     15  C   UNL     1      -4.136 -12.852  15.699  0.00  0.00    +0.089 C 
BRANCH  15   6
ATOM      6  N   UNL     1      -3.865 -11.832  14.686  0.00  0.00    -0.302 NA
ATOM     17  C   UNL     1      -4.840 -11.923  13.591  0.00  0.00    +0.084 C 
ATOM     18  C   UNL     1      -2.490 -11.958  14.184  0.00  0.00    +0.084 C 
ATOM     19  C   UNL     1      -3.172 -10.880  12.001  0.00  0.00    -0.004 C 
ATOM     20  C   UNL     1      -4.602 -10.828  12.548  0.00  0.00    +0.019 C 
ATOM     21  C   UNL     1      -2.173 -10.864  13.163  0.00  0.00    +0.019 C 
BRANCH  19  22
ATOM     22  C   UNL     1      -2.912  -9.725  11.038  0.00  0.00    +0.038 C 
BRANCH  22  23
ATOM     23  C   UNL     1      -4.058  -9.528  10.084  0.00  0.00    -0.047 A 
ATOM     25  C   UNL     1      -4.265 -10.438   9.046  0.00  0.00    +0.003 A 
ATOM     26  C   UNL     1      -4.913  -8.438  10.236  0.00  0.00    +0.003 A 
ATOM     29  C   UNL     1      -5.328 -10.256   8.161  0.00  0.00    +0.000 A 
ATOM     30  C   UNL     1      -5.976  -8.257   9.352  0.00  0.00    +0.000 A 
ATOM     31  C   UNL     1      -6.184  -9.165   8.314  0.00  0.00    +0.000 A 
ENDBRANCH  22  23
ENDBRANCH  19  22
ENDBRANCH  15   6
ENDBRANCH   9  15
BRANCH  10  16
ATOM     16  C   UNL     1      -7.477 -10.150  15.603  0.00  0.00    +0.124 C 
BRANCH  16   7
ATOM      7  N   UNL     1      -8.423  -9.041  15.801  0.00  0.00    -0.188 NA
ATOM     36  H   UNL     1      -8.023  -8.142  16.098  0.00  0.00    +0.148 HD
BRANCH   7   1
ATOM      1  S   UNL     1     -10.026  -9.358  16.284  0.00  0.00    +0.058 S 
ATOM      2  O   UNL     1     -10.136  -9.189  17.720  0.00  0.00    -0.153 OA
ATOM      3  O   UNL     1     -10.477 -10.585  15.656  0.00  0.00    -0.153 OA
BRANCH   1  24
ATOM     24  C   UNL     1     -10.903  -8.031  15.512  0.00  0.00    +0.105 A 
ATOM     27  C   UNL     1     -10.989  -6.791  16.144  0.00  0.00    +0.032 A 
ATOM     28  C   UNL     1     -11.508  -8.225  14.270  0.00  0.00    +0.032 A 
ATOM     32  C   UNL     1     -11.681  -5.744  15.534  0.00  0.00    +0.047 A 
ATOM     33  C   UNL     1     -12.200  -7.179  13.661  0.00  0.00    +0.047 A 
ATOM     34  C   UNL     1     -12.286  -5.938  14.293  0.00  0.00    +0.120 A 
BRANCH  34   4
ATOM      4  O   UNL     1     -12.963  -4.917  13.698  0.00  0.00    -0.495 OA
ATOM     35  C   UNL     1     -13.278  -5.066  12.315  0.00  0.00    +0.277 C 
ENDBRANCH  34   4
ENDBRANCH   1  24
ENDBRANCH   7   1
ENDBRANCH  16   7
ENDBRANCH  10  16
TORSDOF 9
ENDMDL
