MODEL 1
REMARK VINA RESULT:      -5.3      0.000      0.000
REMARK  Name = 11887564
REMARK  10 active torsions:
REMARK  status: ('A' for Active; 'I' for Inactive)
REMARK    1  A    between atoms: O_3  and  C_19
REMARK    2  A    between atoms: O_3  and  C_25
REMARK    3  A    between atoms: O_5  and  C_24
REMARK    4  A    between atoms: O_5  and  C_26
REMARK    5  A    between atoms: N_8  and  C_14
REMARK    6  A    between atoms: C_9  and  C_13
REMARK    7  A    between atoms: C_14  and  C_16
REMARK    8  A    between atoms: C_14  and  C_19
REMARK    9  A    between atoms: C_15  and  C_17
REMARK   10  A    between atoms: C_16  and  C_18
REMARK                            x       y       z     vdW  Elec       q    Type
REMARK                         _______ _______ _______ _____ _____    ______ ____
ROOT
ATOM      1  O   UNL     1      -5.040 -12.073  14.818  0.00  0.00    -0.274 OA
ATOM      8  N   UNL     1      -4.012 -10.559  13.380  0.00  0.00    -0.301 N 
ATOM     13  C   UNL     1      -4.990 -10.977  14.266  0.00  0.00    +0.235 C 
ATOM     28  H   UNL     1      -4.070  -9.627  12.981  0.00  0.00    +0.150 HD
ENDROOT
BRANCH  13   9
ATOM      2  O   UNL     1      -6.171  -8.585  12.039  0.00  0.00    -0.276 OA
ATOM      6  N   UNL     1      -7.085 -10.115  13.535  0.00  0.00    -0.288 N 
ATOM      7  N   UNL     1      -7.415 -11.074  16.227  0.00  0.00    -0.312 NA
ATOM      9  C   UNL     1      -6.018  -9.914  14.522  0.00  0.00    +0.175 C 
ATOM     10  C   UNL     1      -6.525  -9.941  15.965  0.00  0.00    +0.113 C 
ATOM     11  C   UNL     1      -8.078 -11.149  13.857  0.00  0.00    +0.123 C 
ATOM     12  C   UNL     1      -8.548 -11.057  15.305  0.00  0.00    +0.100 C 
ATOM     15  C   UNL     1      -7.007  -9.453  12.305  0.00  0.00    +0.213 C 
ATOM     17  C   UNL     1      -8.023  -9.844  11.261  0.00  0.00    +0.109 C 
ATOM     27  H   UNL     1      -7.759 -11.016  17.186  0.00  0.00    +0.122 HD
ENDBRANCH  13   9
BRANCH   8  14
ATOM     14  C   UNL     1      -2.896 -11.387  12.985  0.00  0.00    +0.186 C 
BRANCH  14  19
ATOM      4  O   UNL     1      -1.425 -12.611  14.461  0.00  0.00    -0.249 OA
ATOM     19  C   UNL     1      -1.857 -11.524  14.089  0.00  0.00    +0.328 C 
BRANCH  19   3
ATOM      3  O   UNL     1      -1.492 -10.316  14.605  0.00  0.00    -0.467 OA
ATOM     25  C   UNL     1      -1.197 -10.302  16.006  0.00  0.00    +0.280 C 
ENDBRANCH  19   3
ENDBRANCH  14  19
BRANCH  14  16
ATOM     16  C   UNL     1      -2.276 -10.898  11.668  0.00  0.00    +0.069 C 
BRANCH  16  18
ATOM     18  C   UNL     1      -3.277 -10.498  10.608  0.00  0.00    -0.045 A 
ATOM     20  C   UNL     1      -4.196 -11.431  10.127  0.00  0.00    +0.007 A 
ATOM     21  C   UNL     1      -3.283  -9.194  10.113  0.00  0.00    +0.007 A 
ATOM     22  C   UNL     1      -5.120 -11.060   9.151  0.00  0.00    +0.046 A 
ATOM     23  C   UNL     1      -4.207  -8.823   9.136  0.00  0.00    +0.046 A 
ATOM     24  C   UNL     1      -5.125  -9.757   8.655  0.00  0.00    +0.120 A 
BRANCH  24   5
ATOM      5  O   UNL     1      -6.027  -9.395   7.701  0.00  0.00    -0.495 OA
ATOM     26  C   UNL     1      -5.913 -10.027   6.426  0.00  0.00    +0.277 C 
ENDBRANCH  24   5
ENDBRANCH  16  18
ENDBRANCH  14  16
ENDBRANCH   8  14
TORSDOF 7
ENDMDL
MODEL 2
REMARK VINA RESULT:      -5.2     21.067     23.089
REMARK  Name = 11887564
REMARK  10 active torsions:
REMARK  status: ('A' for Active; 'I' for Inactive)
REMARK    1  A    between atoms: O_3  and  C_19
REMARK    2  A    between atoms: O_3  and  C_25
REMARK    3  A    between atoms: O_5  and  C_24
REMARK    4  A    between atoms: O_5  and  C_26
REMARK    5  A    between atoms: N_8  and  C_14
REMARK    6  A    between atoms: C_9  and  C_13
REMARK    7  A    between atoms: C_14  and  C_16
REMARK    8  A    between atoms: C_14  and  C_19
REMARK    9  A    between atoms: C_15  and  C_17
REMARK   10  A    between atoms: C_16  and  C_18
REMARK                            x       y       z     vdW  Elec       q    Type
REMARK                         _______ _______ _______ _____ _____    ______ ____
ROOT
ATOM      1  O   UNL     1     -14.792   9.325  19.794  0.00  0.00    -0.274 OA
ATOM      8  N   UNL     1     -14.273   8.123  21.719  0.00  0.00    -0.301 N 
ATOM     13  C   UNL     1     -14.729   9.226  21.017  0.00  0.00    +0.235 C 
ATOM     28  H   UNL     1     -14.265   8.150  22.734  0.00  0.00    +0.150 HD
ENDROOT
BRANCH  13   9
ATOM      2  O   UNL     1     -13.690   9.861  24.271  0.00  0.00    -0.276 OA
ATOM      6  N   UNL     1     -13.982  11.079  22.310  0.00  0.00    -0.288 N 
ATOM      7  N   UNL     1     -15.703  12.086  20.236  0.00  0.00    -0.312 NA
ATOM      9  C   UNL     1     -15.184  10.330  21.926  0.00  0.00    +0.175 C 
ATOM     10  C   UNL     1     -16.252  11.208  21.272  0.00  0.00    +0.113 C 
ATOM     11  C   UNL     1     -13.504  12.076  21.342  0.00  0.00    +0.123 C 
ATOM     12  C   UNL     1     -14.643  12.925  20.788  0.00  0.00    +0.100 C 
ATOM     15  C   UNL     1     -13.284  10.699  23.461  0.00  0.00    +0.213 C 
ATOM     17  C   UNL     1     -11.957  11.375  23.701  0.00  0.00    +0.109 C 
ATOM     27  H   UNL     1     -16.447  12.679  19.869  0.00  0.00    +0.122 HD
ENDBRANCH  13   9
BRANCH   8  14
ATOM     14  C   UNL     1     -13.801   6.917  21.077  0.00  0.00    +0.186 C 
BRANCH  14  19
ATOM      4  O   UNL     1     -15.346   5.059  21.111  0.00  0.00    -0.249 OA
ATOM     19  C   UNL     1     -14.432   5.663  21.665  0.00  0.00    +0.328 C 
BRANCH  19   3
ATOM      3  O   UNL     1     -13.876   5.318  22.861  0.00  0.00    -0.467 OA
ATOM     25  C   UNL     1     -14.746   4.653  23.782  0.00  0.00    +0.280 C 
ENDBRANCH  19   3
ENDBRANCH  14  19
BRANCH  14  16
ATOM     16  C   UNL     1     -12.267   6.846  21.083  0.00  0.00    +0.069 C 
BRANCH  16  18
ATOM     18  C   UNL     1     -11.593   7.664  20.004  0.00  0.00    -0.045 A 
ATOM     20  C   UNL     1     -11.473   7.152  18.712  0.00  0.00    +0.007 A 
ATOM     21  C   UNL     1     -11.092   8.931  20.302  0.00  0.00    +0.007 A 
ATOM     22  C   UNL     1     -10.851   7.907  17.718  0.00  0.00    +0.046 A 
ATOM     23  C   UNL     1     -10.471   9.686  19.307  0.00  0.00    +0.046 A 
ATOM     24  C   UNL     1     -10.350   9.174  18.016  0.00  0.00    +0.120 A 
BRANCH  24   5
ATOM      5  O   UNL     1      -9.743   9.911  17.045  0.00  0.00    -0.495 OA
ATOM     26  C   UNL     1     -10.540  10.288  15.923  0.00  0.00    +0.277 C 
ENDBRANCH  24   5
ENDBRANCH  16  18
ENDBRANCH  14  16
ENDBRANCH   8  14
TORSDOF 7
ENDMDL
MODEL 3
REMARK VINA RESULT:      -5.2      2.913      6.384
REMARK  Name = 11887564
REMARK  10 active torsions:
REMARK  status: ('A' for Active; 'I' for Inactive)
REMARK    1  A    between atoms: O_3  and  C_19
REMARK    2  A    between atoms: O_3  and  C_25
REMARK    3  A    between atoms: O_5  and  C_24
REMARK    4  A    between atoms: O_5  and  C_26
REMARK    5  A    between atoms: N_8  and  C_14
REMARK    6  A    between atoms: C_9  and  C_13
REMARK    7  A    between atoms: C_14  and  C_16
REMARK    8  A    between atoms: C_14  and  C_19
REMARK    9  A    between atoms: C_15  and  C_17
REMARK   10  A    between atoms: C_16  and  C_18
REMARK                            x       y       z     vdW  Elec       q    Type
REMARK                         _______ _______ _______ _____ _____    ______ ____
ROOT
ATOM      1  O   UNL     1      -5.680 -10.033  13.968  0.00  0.00    -0.274 OA
ATOM      8  N   UNL     1      -5.288 -11.427  15.791  0.00  0.00    -0.301 N 
ATOM     13  C   UNL     1      -5.191 -11.045  14.463  0.00  0.00    +0.235 C 
ATOM     28  H   UNL     1      -4.842 -12.288  16.093  0.00  0.00    +0.150 HD
ENDROOT
BRANCH  13   9
ATOM      2  O   UNL     1      -4.771 -11.095  11.014  0.00  0.00    -0.276 OA
ATOM      6  N   UNL     1      -3.407 -11.209  12.896  0.00  0.00    -0.288 N 
ATOM      7  N   UNL     1      -2.593 -12.556  15.305  0.00  0.00    -0.312 NA
ATOM      9  C   UNL     1      -4.376 -12.010  13.652  0.00  0.00    +0.175 C 
ATOM     10  C   UNL     1      -3.717 -13.079  14.525  0.00  0.00    +0.113 C 
ATOM     11  C   UNL     1      -2.197 -10.801  13.623  0.00  0.00    +0.123 C 
ATOM     12  C   UNL     1      -1.596 -11.954  14.422  0.00  0.00    +0.100 C 
ATOM     15  C   UNL     1      -3.753 -10.750  11.621  0.00  0.00    +0.213 C 
ATOM     17  C   UNL     1      -2.802  -9.776  10.972  0.00  0.00    +0.109 C 
ATOM     27  H   UNL     1      -2.164 -13.318  15.829  0.00  0.00    +0.122 HD
ENDBRANCH  13   9
BRANCH   8  14
ATOM     14  C   UNL     1      -6.000 -10.657  16.785  0.00  0.00    +0.186 C 
BRANCH  14  19
ATOM      4  O   UNL     1      -5.845 -10.246  19.161  0.00  0.00    -0.249 OA
ATOM     19  C   UNL     1      -5.329 -10.713  18.150  0.00  0.00    +0.328 C 
BRANCH  19   3
ATOM      3  O   UNL     1      -4.108 -11.315  18.100  0.00  0.00    -0.467 OA
ATOM     25  C   UNL     1      -3.763 -12.118  19.233  0.00  0.00    +0.280 C 
ENDBRANCH  19   3
ENDBRANCH  14  19
BRANCH  14  16
ATOM     16  C   UNL     1      -7.479 -11.065  16.853  0.00  0.00    +0.069 C 
BRANCH  16  18
ATOM     18  C   UNL     1      -8.450 -10.002  16.392  0.00  0.00    -0.045 A 
ATOM     20  C   UNL     1      -8.796  -8.954  17.245  0.00  0.00    +0.007 A 
ATOM     21  C   UNL     1      -8.998 -10.068  15.111  0.00  0.00    +0.007 A 
ATOM     22  C   UNL     1      -9.690  -7.973  16.818  0.00  0.00    +0.046 A 
ATOM     23  C   UNL     1      -9.893  -9.087  14.684  0.00  0.00    +0.046 A 
ATOM     24  C   UNL     1     -10.239  -8.040  15.538  0.00  0.00    +0.120 A 
BRANCH  24   5
ATOM      5  O   UNL     1     -11.113  -7.082  15.121  0.00  0.00    -0.495 OA
ATOM     26  C   UNL     1     -11.238  -5.919  15.937  0.00  0.00    +0.277 C 
ENDBRANCH  24   5
ENDBRANCH  16  18
ENDBRANCH  14  16
ENDBRANCH   8  14
TORSDOF 7
ENDMDL
MODEL 4
REMARK VINA RESULT:      -5.1      1.784      2.573
REMARK  Name = 11887564
REMARK  10 active torsions:
REMARK  status: ('A' for Active; 'I' for Inactive)
REMARK    1  A    between atoms: O_3  and  C_19
REMARK    2  A    between atoms: O_3  and  C_25
REMARK    3  A    between atoms: O_5  and  C_24
REMARK    4  A    between atoms: O_5  and  C_26
REMARK    5  A    between atoms: N_8  and  C_14
REMARK    6  A    between atoms: C_9  and  C_13
REMARK    7  A    between atoms: C_14  and  C_16
REMARK    8  A    between atoms: C_14  and  C_19
REMARK    9  A    between atoms: C_15  and  C_17
REMARK   10  A    between atoms: C_16  and  C_18
REMARK                            x       y       z     vdW  Elec       q    Type
REMARK                         _______ _______ _______ _____ _____    ______ ____
ROOT
ATOM      1  O   UNL     1      -5.683 -12.633  13.662  0.00  0.00    -0.274 OA
ATOM      8  N   UNL     1      -4.133 -10.947  14.081  0.00  0.00    -0.301 N 
ATOM     13  C   UNL     1      -5.353 -11.588  14.217  0.00  0.00    +0.235 C 
ATOM     28  H   UNL     1      -3.967 -10.084  14.589  0.00  0.00    +0.150 HD
ENDROOT
BRANCH  13   9
ATOM      2  O   UNL     1      -8.621 -12.424  15.052  0.00  0.00    -0.276 OA
ATOM      6  N   UNL     1      -6.670 -11.849  16.182  0.00  0.00    -0.288 N 
ATOM      7  N   UNL     1      -4.593  -9.942  16.757  0.00  0.00    -0.312 NA
ATOM      9  C   UNL     1      -6.270 -10.871  15.165  0.00  0.00    +0.175 C 
ATOM     10  C   UNL     1      -5.616  -9.622  15.759  0.00  0.00    +0.113 C 
ATOM     11  C   UNL     1      -5.715 -12.071  17.277  0.00  0.00    +0.123 C 
ATOM     12  C   UNL     1      -5.161 -10.761  17.825  0.00  0.00    +0.100 C 
ATOM     15  C   UNL     1      -7.822 -12.614  15.973  0.00  0.00    +0.213 C 
ATOM     17  C   UNL     1      -8.078 -13.732  16.953  0.00  0.00    +0.109 C 
ATOM     27  H   UNL     1      -4.227  -9.077  17.152  0.00  0.00    +0.122 HD
ENDBRANCH  13   9
BRANCH   8  14
ATOM     14  C   UNL     1      -3.067 -11.447  13.244  0.00  0.00    +0.186 C 
BRANCH  14  19
ATOM      4  O   UNL     1      -1.134 -12.858  13.575  0.00  0.00    -0.249 OA
ATOM     19  C   UNL     1      -1.932 -12.059  14.053  0.00  0.00    +0.328 C 
BRANCH  19   3
ATOM      3  O   UNL     1      -1.932 -11.628  15.346  0.00  0.00    -0.467 OA
ATOM     25  C   UNL     1      -1.010 -10.576  15.650  0.00  0.00    +0.280 C 
ENDBRANCH  19   3
ENDBRANCH  14  19
BRANCH  14  16
ATOM     16  C   UNL     1      -2.564 -10.366  12.275  0.00  0.00    +0.069 C 
BRANCH  16  18
ATOM     18  C   UNL     1      -3.279 -10.329  10.943  0.00  0.00    -0.045 A 
ATOM     20  C   UNL     1      -3.738 -11.513  10.365  0.00  0.00    +0.007 A 
ATOM     21  C   UNL     1      -3.479  -9.112  10.293  0.00  0.00    +0.007 A 
ATOM     22  C   UNL     1      -4.397 -11.479   9.136  0.00  0.00    +0.046 A 
ATOM     23  C   UNL     1      -4.139  -9.077   9.065  0.00  0.00    +0.046 A 
ATOM     24  C   UNL     1      -4.597 -10.261   8.486  0.00  0.00    +0.120 A 
BRANCH  24   5
ATOM      5  O   UNL     1      -5.241 -10.227   7.287  0.00  0.00    -0.495 OA
ATOM     26  C   UNL     1      -6.494  -9.546   7.242  0.00  0.00    +0.277 C 
ENDBRANCH  24   5
ENDBRANCH  16  18
ENDBRANCH  14  16
ENDBRANCH   8  14
TORSDOF 7
ENDMDL
MODEL 5
REMARK VINA RESULT:      -5.0      2.816      4.277
REMARK  Name = 11887564
REMARK  10 active torsions:
REMARK  status: ('A' for Active; 'I' for Inactive)
REMARK    1  A    between atoms: O_3  and  C_19
REMARK    2  A    between atoms: O_3  and  C_25
REMARK    3  A    between atoms: O_5  and  C_24
REMARK    4  A    between atoms: O_5  and  C_26
REMARK    5  A    between atoms: N_8  and  C_14
REMARK    6  A    between atoms: C_9  and  C_13
REMARK    7  A    between atoms: C_14  and  C_16
REMARK    8  A    between atoms: C_14  and  C_19
REMARK    9  A    between atoms: C_15  and  C_17
REMARK   10  A    between atoms: C_16  and  C_18
REMARK                            x       y       z     vdW  Elec       q    Type
REMARK                         _______ _______ _______ _____ _____    ______ ____
ROOT
ATOM      1  O   UNL     1      -7.396 -10.372  15.676  0.00  0.00    -0.274 OA
ATOM      8  N   UNL     1      -5.525 -11.206  16.782  0.00  0.00    -0.301 N 
ATOM     13  C   UNL     1      -6.733 -10.534  16.698  0.00  0.00    +0.235 C 
ATOM     28  H   UNL     1      -5.062 -11.280  17.683  0.00  0.00    +0.150 HD
ENDROOT
BRANCH  13   9
ATOM      2  O   UNL     1      -9.249  -8.222  17.328  0.00  0.00    -0.276 OA
ATOM      6  N   UNL     1      -8.626 -10.318  18.123  0.00  0.00    -0.288 N 
ATOM      7  N   UNL     1      -6.714 -12.014  19.444  0.00  0.00    -0.312 NA
ATOM      9  C   UNL     1      -7.193 -10.020  18.031  0.00  0.00    +0.175 C 
ATOM     10  C   UNL     1      -6.382 -10.612  19.184  0.00  0.00    +0.113 C 
ATOM     11  C   UNL     1      -8.977 -11.685  18.532  0.00  0.00    +0.123 C 
ATOM     12  C   UNL     1      -8.142 -12.158  19.718  0.00  0.00    +0.100 C 
ATOM     15  C   UNL     1      -9.549  -9.369  17.671  0.00  0.00    +0.213 C 
ATOM     17  C   UNL     1     -10.992  -9.803  17.612  0.00  0.00    +0.109 C 
ATOM     27  H   UNL     1      -6.181 -12.342  20.250  0.00  0.00    +0.122 HD
ENDBRANCH  13   9
BRANCH   8  14
ATOM     14  C   UNL     1      -4.878 -11.816  15.644  0.00  0.00    +0.186 C 
BRANCH  14  19
ATOM      4  O   UNL     1      -3.997 -13.987  15.053  0.00  0.00    -0.249 OA
ATOM     19  C   UNL     1      -4.659 -13.311  15.834  0.00  0.00    +0.328 C 
BRANCH  19   3
ATOM      3  O   UNL     1      -5.290 -13.786  16.944  0.00  0.00    -0.467 OA
ATOM     25  C   UNL     1      -6.389 -14.671  16.704  0.00  0.00    +0.280 C 
ENDBRANCH  19   3
ENDBRANCH  14  19
BRANCH  14  16
ATOM     16  C   UNL     1      -3.577 -11.085  15.283  0.00  0.00    +0.069 C 
BRANCH  16  18
ATOM     18  C   UNL     1      -3.464 -10.674  13.832  0.00  0.00    -0.045 A 
ATOM     20  C   UNL     1      -4.608 -10.325  13.114  0.00  0.00    +0.007 A 
ATOM     21  C   UNL     1      -2.215 -10.644  13.212  0.00  0.00    +0.007 A 
ATOM     22  C   UNL     1      -4.503  -9.946  11.776  0.00  0.00    +0.046 A 
ATOM     23  C   UNL     1      -2.110 -10.264  11.874  0.00  0.00    +0.046 A 
ATOM     24  C   UNL     1      -3.254  -9.916  11.156  0.00  0.00    +0.120 A 
BRANCH  24   5
ATOM      5  O   UNL     1      -3.151  -9.545   9.850  0.00  0.00    -0.495 OA
ATOM     26  C   UNL     1      -4.333  -9.053   9.220  0.00  0.00    +0.277 C 
ENDBRANCH  24   5
ENDBRANCH  16  18
ENDBRANCH  14  16
ENDBRANCH   8  14
TORSDOF 7
ENDMDL
MODEL 6
REMARK VINA RESULT:      -5.0     23.260     26.069
REMARK  Name = 11887564
REMARK  10 active torsions:
REMARK  status: ('A' for Active; 'I' for Inactive)
REMARK    1  A    between atoms: O_3  and  C_19
REMARK    2  A    between atoms: O_3  and  C_25
REMARK    3  A    between atoms: O_5  and  C_24
REMARK    4  A    between atoms: O_5  and  C_26
REMARK    5  A    between atoms: N_8  and  C_14
REMARK    6  A    between atoms: C_9  and  C_13
REMARK    7  A    between atoms: C_14  and  C_16
REMARK    8  A    between atoms: C_14  and  C_19
REMARK    9  A    between atoms: C_15  and  C_17
REMARK   10  A    between atoms: C_16  and  C_18
REMARK                            x       y       z     vdW  Elec       q    Type
REMARK                         _______ _______ _______ _____ _____    ______ ____
ROOT
ATOM      1  O   UNL     1      12.635   7.266   2.279  0.00  0.00    -0.274 OA
ATOM      8  N   UNL     1      12.331   5.027   2.837  0.00  0.00    -0.301 N 
ATOM     13  C   UNL     1      13.081   6.159   2.567  0.00  0.00    +0.235 C 
ATOM     28  H   UNL     1      12.808   4.159   3.066  0.00  0.00    +0.150 HD
ENDROOT
BRANCH  13   9
ATOM      2  O   UNL     1      14.821   3.277   1.703  0.00  0.00    -0.276 OA
ATOM      6  N   UNL     1      15.035   5.567   1.344  0.00  0.00    -0.288 N 
ATOM      7  N   UNL     1      15.412   8.225   2.377  0.00  0.00    -0.312 NA
ATOM      9  C   UNL     1      14.556   5.906   2.689  0.00  0.00    +0.175 C 
ATOM     10  C   UNL     1      15.293   7.098   3.304  0.00  0.00    +0.113 C 
ATOM     11  C   UNL     1      15.305   6.699   0.448  0.00  0.00    +0.123 C 
ATOM     12  C   UNL     1      16.083   7.808   1.149  0.00  0.00    +0.100 C 
ATOM     15  C   UNL     1      15.048   4.226   0.947  0.00  0.00    +0.213 C 
ATOM     17  C   UNL     1      15.366   3.953  -0.502  0.00  0.00    +0.109 C 
ATOM     27  H   UNL     1      15.950   8.969   2.821  0.00  0.00    +0.122 HD
ENDBRANCH  13   9
BRANCH   8  14
ATOM     14  C   UNL     1      10.887   5.010   2.811  0.00  0.00    +0.186 C 
BRANCH  14  19
ATOM      4  O   UNL     1       9.755   6.200   1.038  0.00  0.00    -0.249 OA
ATOM     19  C   UNL     1      10.331   5.180   1.404  0.00  0.00    +0.328 C 
BRANCH  19   3
ATOM      3  O   UNL     1      10.535   4.075   0.633  0.00  0.00    -0.467 OA
ATOM     25  C   UNL     1      10.896   4.326  -0.729  0.00  0.00    +0.280 C 
ENDBRANCH  19   3
ENDBRANCH  14  19
BRANCH  14  16
ATOM     16  C   UNL     1      10.299   6.037   3.790  0.00  0.00    +0.069 C 
BRANCH  16  18
ATOM     18  C   UNL     1      10.265   5.587   5.233  0.00  0.00    -0.045 A 
ATOM     20  C   UNL     1      10.704   6.444   6.242  0.00  0.00    +0.007 A 
ATOM     21  C   UNL     1       9.793   4.314   5.556  0.00  0.00    +0.007 A 
ATOM     22  C   UNL     1      10.672   6.029   7.573  0.00  0.00    +0.046 A 
ATOM     23  C   UNL     1       9.761   3.899   6.887  0.00  0.00    +0.046 A 
ATOM     24  C   UNL     1      10.201   4.756   7.895  0.00  0.00    +0.120 A 
BRANCH  24   5
ATOM      5  O   UNL     1      10.170   4.351   9.195  0.00  0.00    -0.495 OA
ATOM     26  C   UNL     1       9.018   4.707   9.958  0.00  0.00    +0.277 C 
ENDBRANCH  24   5
ENDBRANCH  16  18
ENDBRANCH  14  16
ENDBRANCH   8  14
TORSDOF 7
ENDMDL
MODEL 7
REMARK VINA RESULT:      -5.0     19.897     21.673
REMARK  Name = 11887564
REMARK  10 active torsions:
REMARK  status: ('A' for Active; 'I' for Inactive)
REMARK    1  A    between atoms: O_3  and  C_19
REMARK    2  A    between atoms: O_3  and  C_25
REMARK    3  A    between atoms: O_5  and  C_24
REMARK    4  A    between atoms: O_5  and  C_26
REMARK    5  A    between atoms: N_8  and  C_14
REMARK    6  A    between atoms: C_9  and  C_13
REMARK    7  A    between atoms: C_14  and  C_16
REMARK    8  A    between atoms: C_14  and  C_19
REMARK    9  A    between atoms: C_15  and  C_17
REMARK   10  A    between atoms: C_16  and  C_18
REMARK                            x       y       z     vdW  Elec       q    Type
REMARK                         _______ _______ _______ _____ _____    ______ ____
ROOT
ATOM      1  O   UNL     1     -13.840   8.020  15.558  0.00  0.00    -0.274 OA
ATOM      8  N   UNL     1     -11.610   8.677  15.676  0.00  0.00    -0.301 N 
ATOM     13  C   UNL     1     -12.725   8.142  15.055  0.00  0.00    +0.235 C 
ATOM     28  H   UNL     1     -10.734   8.729  15.164  0.00  0.00    +0.150 HD
ENDROOT
BRANCH  13   9
ATOM      2  O   UNL     1     -14.532   5.908  13.100  0.00  0.00    -0.276 OA
ATOM      6  N   UNL     1     -13.646   8.047  12.863  0.00  0.00    -0.288 N 
ATOM      7  N   UNL     1     -11.371   9.807  12.790  0.00  0.00    -0.312 NA
ATOM      9  C   UNL     1     -12.445   7.726  13.640  0.00  0.00    +0.175 C 
ATOM     10  C   UNL     1     -11.180   8.386  13.089  0.00  0.00    +0.113 C 
ATOM     11  C   UNL     1     -13.778   9.443  12.423  0.00  0.00    +0.123 C 
ATOM     12  C   UNL     1     -12.474   9.986  11.849  0.00  0.00    +0.100 C 
ATOM     15  C   UNL     1     -14.648   7.080  12.729  0.00  0.00    +0.213 C 
ATOM     17  C   UNL     1     -15.937   7.526  12.086  0.00  0.00    +0.109 C 
ATOM     27  H   UNL     1     -10.515  10.183  12.383  0.00  0.00    +0.122 HD
ENDBRANCH  13   9
BRANCH   8  14
ATOM     14  C   UNL     1     -11.622   9.174  17.033  0.00  0.00    +0.186 C 
BRANCH  14  19
ATOM      4  O   UNL     1     -10.083  10.781  17.976  0.00  0.00    -0.249 OA
ATOM     19  C   UNL     1     -10.963  10.541  17.155  0.00  0.00    +0.328 C 
BRANCH  19   3
ATOM      3  O   UNL     1     -11.476  11.441  16.270  0.00  0.00    -0.467 OA
ATOM     25  C   UNL     1     -10.517  12.232  15.561  0.00  0.00    +0.280 C 
ENDBRANCH  19   3
ENDBRANCH  14  19
BRANCH  14  16
ATOM     16  C   UNL     1     -11.015   8.154  18.006  0.00  0.00    +0.069 C 
BRANCH  16  18
ATOM     18  C   UNL     1     -11.957   7.674  19.088  0.00  0.00    -0.045 A 
ATOM     20  C   UNL     1     -13.323   7.945  18.994  0.00  0.00    +0.007 A 
ATOM     21  C   UNL     1     -11.460   6.960  20.178  0.00  0.00    +0.007 A 
ATOM     22  C   UNL     1     -14.191   7.501  19.991  0.00  0.00    +0.046 A 
ATOM     23  C   UNL     1     -12.329   6.517  21.175  0.00  0.00    +0.046 A 
ATOM     24  C   UNL     1     -13.694   6.788  21.082  0.00  0.00    +0.120 A 
BRANCH  24   5
ATOM      5  O   UNL     1     -14.542   6.355  22.056  0.00  0.00    -0.495 OA
ATOM     26  C   UNL     1     -14.152   5.193  22.787  0.00  0.00    +0.277 C 
ENDBRANCH  24   5
ENDBRANCH  16  18
ENDBRANCH  14  16
ENDBRANCH   8  14
TORSDOF 7
ENDMDL
MODEL 8
REMARK VINA RESULT:      -5.0      3.720      7.135
REMARK  Name = 11887564
REMARK  10 active torsions:
REMARK  status: ('A' for Active; 'I' for Inactive)
REMARK    1  A    between atoms: O_3  and  C_19
REMARK    2  A    between atoms: O_3  and  C_25
REMARK    3  A    between atoms: O_5  and  C_24
REMARK    4  A    between atoms: O_5  and  C_26
REMARK    5  A    between atoms: N_8  and  C_14
REMARK    6  A    between atoms: C_9  and  C_13
REMARK    7  A    between atoms: C_14  and  C_16
REMARK    8  A    between atoms: C_14  and  C_19
REMARK    9  A    between atoms: C_15  and  C_17
REMARK   10  A    between atoms: C_16  and  C_18
REMARK                            x       y       z     vdW  Elec       q    Type
REMARK                         _______ _______ _______ _____ _____    ______ ____
ROOT
ATOM      1  O   UNL     1      -5.297 -12.937  13.880  0.00  0.00    -0.274 OA
ATOM      8  N   UNL     1      -3.275 -12.741  15.018  0.00  0.00    -0.301 N 
ATOM     13  C   UNL     1      -4.268 -13.427  14.339  0.00  0.00    +0.235 C 
ATOM     28  H   UNL     1      -2.463 -13.250  15.356  0.00  0.00    +0.150 HD
ENDROOT
BRANCH  13   9
ATOM      2  O   UNL     1      -6.438 -15.994  13.459  0.00  0.00    -0.276 OA
ATOM      6  N   UNL     1      -4.326 -15.256  12.818  0.00  0.00    -0.288 N 
ATOM      7  N   UNL     1      -1.572 -14.728  13.458  0.00  0.00    -0.312 NA
ATOM      9  C   UNL     1      -3.949 -14.886  14.186  0.00  0.00    +0.175 C 
ATOM     10  C   UNL     1      -2.484 -15.189  14.506  0.00  0.00    +0.113 C 
ATOM     11  C   UNL     1      -3.350 -14.935  11.768  0.00  0.00    +0.123 C 
ATOM     12  C   UNL     1      -1.930 -15.320  12.172  0.00  0.00    +0.100 C 
ATOM     15  C   UNL     1      -5.621 -15.726  12.574  0.00  0.00    +0.213 C 
ATOM     17  C   UNL     1      -6.013 -15.908  11.128  0.00  0.00    +0.109 C 
ATOM     27  H   UNL     1      -0.618 -14.997  13.700  0.00  0.00    +0.122 HD
ENDBRANCH  13   9
BRANCH   8  14
ATOM     14  C   UNL     1      -3.330 -11.321  15.277  0.00  0.00    +0.186 C 
BRANCH  14  19
ATOM      4  O   UNL     1      -1.342 -10.035  14.796  0.00  0.00    -0.249 OA
ATOM     19  C   UNL     1      -2.385 -10.532  14.382  0.00  0.00    +0.328 C 
BRANCH  19   3
ATOM      3  O   UNL     1      -2.845 -10.437  13.103  0.00  0.00    -0.467 OA
ATOM     25  C   UNL     1      -2.058 -11.099  12.108  0.00  0.00    +0.280 C 
ENDBRANCH  19   3
ENDBRANCH  14  19
BRANCH  14  16
ATOM     16  C   UNL     1      -3.104 -11.015  16.765  0.00  0.00    +0.069 C 
BRANCH  16  18
ATOM     18  C   UNL     1      -4.363 -10.980  17.601  0.00  0.00    -0.045 A 
ATOM     20  C   UNL     1      -4.394 -11.614  18.843  0.00  0.00    +0.007 A 
ATOM     21  C   UNL     1      -5.493 -10.310  17.131  0.00  0.00    +0.007 A 
ATOM     22  C   UNL     1      -5.555 -11.580  19.615  0.00  0.00    +0.046 A 
ATOM     23  C   UNL     1      -6.654 -10.276  17.903  0.00  0.00    +0.046 A 
ATOM     24  C   UNL     1      -6.685 -10.911  19.145  0.00  0.00    +0.120 A 
BRANCH  24   5
ATOM      5  O   UNL     1      -7.819 -10.878  19.898  0.00  0.00    -0.495 OA
ATOM     26  C   UNL     1      -8.834 -11.831  19.586  0.00  0.00    +0.277 C 
ENDBRANCH  24   5
ENDBRANCH  16  18
ENDBRANCH  14  16
ENDBRANCH   8  14
TORSDOF 7
ENDMDL
MODEL 9
REMARK VINA RESULT:      -4.9     14.105     18.046
REMARK  Name = 11887564
REMARK  10 active torsions:
REMARK  status: ('A' for Active; 'I' for Inactive)
REMARK    1  A    between atoms: O_3  and  C_19
REMARK    2  A    between atoms: O_3  and  C_25
REMARK    3  A    between atoms: O_5  and  C_24
REMARK    4  A    between atoms: O_5  and  C_26
REMARK    5  A    between atoms: N_8  and  C_14
REMARK    6  A    between atoms: C_9  and  C_13
REMARK    7  A    between atoms: C_14  and  C_16
REMARK    8  A    between atoms: C_14  and  C_19
REMARK    9  A    between atoms: C_15  and  C_17
REMARK   10  A    between atoms: C_16  and  C_18
REMARK                            x       y       z     vdW  Elec       q    Type
REMARK                         _______ _______ _______ _____ _____    ______ ____
ROOT
ATOM      1  O   UNL     1      -1.109 -14.673  -4.545  0.00  0.00    -0.274 OA
ATOM      8  N   UNL     1      -0.201 -13.090  -3.099  0.00  0.00    -0.301 N 
ATOM     13  C   UNL     1      -0.783 -13.518  -4.281  0.00  0.00    +0.235 C 
ATOM     28  H   UNL     1       0.029 -12.107  -2.988  0.00  0.00    +0.150 HD
ENDROOT
BRANCH  13   9
ATOM      2  O   UNL     1       1.226 -10.730  -4.802  0.00  0.00    -0.276 OA
ATOM      6  N   UNL     1       0.168 -12.335  -6.114  0.00  0.00    -0.288 N 
ATOM      7  N   UNL     1      -2.243 -13.604  -7.036  0.00  0.00    -0.312 NA
ATOM      9  C   UNL     1      -1.012 -12.390  -5.244  0.00  0.00    +0.175 C 
ATOM     10  C   UNL     1      -2.320 -12.554  -6.019  0.00  0.00    +0.113 C 
ATOM     11  C   UNL     1       0.190 -13.285  -7.235  0.00  0.00    +0.123 C 
ATOM     12  C   UNL     1      -1.148 -13.336  -7.965  0.00  0.00    +0.100 C 
ATOM     15  C   UNL     1       1.248 -11.526  -5.745  0.00  0.00    +0.213 C 
ATOM     17  C   UNL     1       2.503 -11.656  -6.571  0.00  0.00    +0.109 C 
ATOM     27  H   UNL     1      -3.123 -13.638  -7.552  0.00  0.00    +0.122 HD
ENDBRANCH  13   9
BRANCH   8  14
ATOM     14  C   UNL     1       0.102 -13.977  -2.000  0.00  0.00    +0.186 C 
BRANCH  14  19
ATOM      4  O   UNL     1      -1.724 -15.360  -1.230  0.00  0.00    -0.249 OA
ATOM     19  C   UNL     1      -1.124 -14.292  -1.154  0.00  0.00    +0.328 C 
BRANCH  19   3
ATOM      3  O   UNL     1      -1.467 -13.255  -0.339  0.00  0.00    -0.467 OA
ATOM     25  C   UNL     1      -2.868 -12.987  -0.230  0.00  0.00    +0.280 C 
ENDBRANCH  19   3
ENDBRANCH  14  19
BRANCH  14  16
ATOM     16  C   UNL     1       1.263 -13.438  -1.152  0.00  0.00    +0.069 C 
BRANCH  16  18
ATOM     18  C   UNL     1       2.473 -14.343  -1.088  0.00  0.00    -0.045 A 
ATOM     20  C   UNL     1       3.674 -13.867  -0.563  0.00  0.00    +0.007 A 
ATOM     21  C   UNL     1       2.386 -15.655  -1.553  0.00  0.00    +0.007 A 
ATOM     22  C   UNL     1       4.789 -14.703  -0.504  0.00  0.00    +0.046 A 
ATOM     23  C   UNL     1       3.501 -16.491  -1.494  0.00  0.00    +0.046 A 
ATOM     24  C   UNL     1       4.703 -16.014  -0.970  0.00  0.00    +0.120 A 
BRANCH  24   5
ATOM      5  O   UNL     1       5.792 -16.830  -0.912  0.00  0.00    -0.495 OA
ATOM     26  C   UNL     1       6.153 -17.340   0.371  0.00  0.00    +0.277 C 
ENDBRANCH  24   5
ENDBRANCH  16  18
ENDBRANCH  14  16
ENDBRANCH   8  14
TORSDOF 7
ENDMDL
MODEL 10
REMARK VINA RESULT:      -4.9      2.287      3.319
REMARK  Name = 11887564
REMARK  10 active torsions:
REMARK  status: ('A' for Active; 'I' for Inactive)
REMARK    1  A    between atoms: O_3  and  C_19
REMARK    2  A    between atoms: O_3  and  C_25
REMARK    3  A    between atoms: O_5  and  C_24
REMARK    4  A    between atoms: O_5  and  C_26
REMARK    5  A    between atoms: N_8  and  C_14
REMARK    6  A    between atoms: C_9  and  C_13
REMARK    7  A    between atoms: C_14  and  C_16
REMARK    8  A    between atoms: C_14  and  C_19
REMARK    9  A    between atoms: C_15  and  C_17
REMARK   10  A    between atoms: C_16  and  C_18
REMARK                            x       y       z     vdW  Elec       q    Type
REMARK                         _______ _______ _______ _____ _____    ______ ____
ROOT
ATOM      1  O   UNL     1      -6.224 -10.712  14.661  0.00  0.00    -0.274 OA
ATOM      8  N   UNL     1      -3.917 -11.002  14.785  0.00  0.00    -0.301 N 
ATOM     13  C   UNL     1      -5.166 -10.670  15.284  0.00  0.00    +0.235 C 
ATOM     28  H   UNL     1      -3.106 -10.930  15.392  0.00  0.00    +0.150 HD
ENDROOT
BRANCH  13   9
ATOM      2  O   UNL     1      -7.576  -8.939  17.091  0.00  0.00    -0.276 OA
ATOM      6  N   UNL     1      -6.285 -10.854  17.376  0.00  0.00    -0.288 N 
ATOM      7  N   UNL     1      -3.708 -12.104  17.641  0.00  0.00    -0.312 NA
ATOM      9  C   UNL     1      -5.111 -10.260  16.727  0.00  0.00    +0.175 C 
ATOM     10  C   UNL     1      -3.793 -10.665  17.389  0.00  0.00    +0.113 C 
ATOM     11  C   UNL     1      -6.161 -12.263  17.775  0.00  0.00    +0.123 C 
ATOM     12  C   UNL     1      -4.831 -12.545  18.465  0.00  0.00    +0.100 C 
ATOM     15  C   UNL     1      -7.476 -10.122  17.427  0.00  0.00    +0.213 C 
ATOM     17  C   UNL     1      -8.697 -10.851  17.931  0.00  0.00    +0.109 C 
ATOM     27  H   UNL     1      -2.834 -12.310  18.124  0.00  0.00    +0.122 HD
ENDBRANCH  13   9
BRANCH   8  14
ATOM     14  C   UNL     1      -3.701 -11.451  13.429  0.00  0.00    +0.186 C 
BRANCH  14  19
ATOM      4  O   UNL     1      -2.331 -13.122  12.348  0.00  0.00    -0.249 OA
ATOM     19  C   UNL     1      -2.898 -12.743  13.368  0.00  0.00    +0.328 C 
BRANCH  19   3
ATOM      3  O   UNL     1      -2.907 -13.412  14.555  0.00  0.00    -0.467 OA
ATOM     25  C   UNL     1      -2.941 -14.840  14.465  0.00  0.00    +0.280 C 
ENDBRANCH  19   3
ENDBRANCH  14  19
BRANCH  14  16
ATOM     16  C   UNL     1      -3.076 -10.344  12.568  0.00  0.00    +0.069 C 
BRANCH  16  18
ATOM     18  C   UNL     1      -3.904  -9.931  11.372  0.00  0.00    -0.045 A 
ATOM     20  C   UNL     1      -3.318  -9.208  10.333  0.00  0.00    +0.007 A 
ATOM     21  C   UNL     1      -5.255 -10.274  11.308  0.00  0.00    +0.007 A 
ATOM     22  C   UNL     1      -4.082  -8.827   9.230  0.00  0.00    +0.046 A 
ATOM     23  C   UNL     1      -6.019  -9.894  10.205  0.00  0.00    +0.046 A 
ATOM     24  C   UNL     1      -5.433  -9.170   9.166  0.00  0.00    +0.120 A 
BRANCH  24   5
ATOM      5  O   UNL     1      -6.179  -8.799   8.089  0.00  0.00    -0.495 OA
ATOM     26  C   UNL     1      -7.496  -8.315   8.348  0.00  0.00    +0.277 C 
ENDBRANCH  24   5
ENDBRANCH  16  18
ENDBRANCH  14  16
ENDBRANCH   8  14
TORSDOF 7
ENDMDL
