MODEL 1
REMARK VINA RESULT:      -6.6      0.000      0.000
REMARK  Name = 40777708
REMARK  14 active torsions:
REMARK  status: ('A' for Active; 'I' for Inactive)
REMARK    1  A    between atoms: O_2  and  C_31
REMARK    2  A    between atoms: N_4  and  C_9
REMARK    3  A    between atoms: N_5  and  C_16
REMARK    4  A    between atoms: C_7  and  C_10
REMARK    5  A    between atoms: C_13  and  C_17
REMARK    6  A    between atoms: C_14  and  C_18
REMARK    7  A    between atoms: C_15  and  C_20
REMARK    8  A    between atoms: C_15  and  C_26
REMARK    9  A    between atoms: C_15  and  C_27
REMARK   10  A    between atoms: C_15  and  C_28
REMARK   11  A    between atoms: C_19  and  C_23
REMARK   12  A    between atoms: C_23  and  C_29
REMARK   13  A    between atoms: C_29  and  C_30
REMARK   14  A    between atoms: C_30  and  C_31
REMARK                            x       y       z     vdW  Elec       q    Type
REMARK                         _______ _______ _______ _____ _____    ______ ____
ROOT
ATOM      5  N   UNL     1      19.270   5.982  20.542  0.00  0.00    -0.236 N 
ATOM      6  N   UNL     1      18.430   5.629  19.554  0.00  0.00    -0.171 NA
ATOM     10  C   UNL     1      17.501   7.206  20.921  0.00  0.00    +0.003 A 
ATOM     13  C   UNL     1      18.760   6.924  21.389  0.00  0.00    +0.046 A 
ATOM     14  C   UNL     1      17.351   6.380  19.790  0.00  0.00    +0.064 A 
ATOM     17  C   UNL     1      19.504   7.460  22.547  0.00  0.00    +0.066 C 
ATOM     18  C   UNL     1      16.184   6.273  18.898  0.00  0.00    +0.068 C 
ENDROOT
BRANCH   5  16
ATOM     16  C   UNL     1      20.531   5.390  20.623  0.00  0.00    +0.066 A 
ATOM     20  C   UNL     1      23.053   4.209  20.793  0.00  0.00    -0.042 A 
ATOM     21  C   UNL     1      20.646   4.034  20.928  0.00  0.00    +0.028 A 
ATOM     22  C   UNL     1      21.676   6.155  20.403  0.00  0.00    +0.028 A 
ATOM     24  C   UNL     1      21.907   3.443  21.013  0.00  0.00    +0.006 A 
ATOM     25  C   UNL     1      22.937   5.565  20.489  0.00  0.00    +0.006 A 
BRANCH  20  15
ATOM     15  C   UNL     1      24.400   3.577  20.885  0.00  0.00    -0.013 C 
ATOM     26  C   UNL     1      25.086   3.902  22.248  0.00  0.00    +0.015 C 
ATOM     27  C   UNL     1      25.342   4.085  19.751  0.00  0.00    +0.015 C 
ATOM     28  C   UNL     1      24.417   2.016  20.772  0.00  0.00    +0.015 C 
ENDBRANCH  20  15
ENDBRANCH   5  16
BRANCH  10   7
ATOM      7  C   UNL     1      16.501   8.184  21.495  0.00  0.00    +0.047 C 
ATOM      8  C   UNL     1      16.007   9.224  20.468  0.00  0.00    +0.039 C 
ATOM      9  C   UNL     1      14.541   9.502  20.824  0.00  0.00    +0.097 C 
ATOM     11  C   UNL     1      15.218   7.564  21.968  0.00  0.00    -0.021 C 
ATOM     12  C   UNL     1      14.154   8.288  21.604  0.00  0.00    -0.009 C 
BRANCH   9   4
ATOM      1  O   UNL     1      12.142  11.035  21.166  0.00  0.00    -0.276 OA
ATOM      4  N   UNL     1      14.381  10.667  21.653  0.00  0.00    -0.309 N 
ATOM     19  C   UNL     1      13.175  11.344  21.754  0.00  0.00    +0.213 C 
ATOM     32  H   UNL     1      15.191  11.028  22.149  0.00  0.00    +0.149 HD
BRANCH  19  23
ATOM     23  C   UNL     1      13.286  12.551  22.670  0.00  0.00    +0.096 C 
BRANCH  23  29
ATOM     29  C   UNL     1      11.982  13.333  22.815  0.00  0.00    +0.020 C 
BRANCH  29  30
ATOM     30  C   UNL     1      11.405  13.249  24.229  0.00  0.00    +0.121 C 
BRANCH  30  31
ATOM      3  O   UNL     1      11.235  11.218  25.562  0.00  0.00    -0.251 OA
ATOM     31  C   UNL     1      10.930  11.853  24.562  0.00  0.00    +0.305 C 
BRANCH  31   2
ATOM      2  O   UNL     1      10.100  11.371  23.600  0.00  0.00    -0.481 OA
ATOM     33  H   UNL     1       9.729  12.089  23.045  0.00  0.00    +0.295 HD
ENDBRANCH  31   2
ENDBRANCH  30  31
ENDBRANCH  29  30
ENDBRANCH  23  29
ENDBRANCH  19  23
ENDBRANCH   9   4
ENDBRANCH  10   7
TORSDOF 9
ENDMDL
MODEL 2
REMARK VINA RESULT:      -6.3     28.931     32.361
REMARK  Name = 40777708
REMARK  14 active torsions:
REMARK  status: ('A' for Active; 'I' for Inactive)
REMARK    1  A    between atoms: O_2  and  C_31
REMARK    2  A    between atoms: N_4  and  C_9
REMARK    3  A    between atoms: N_5  and  C_16
REMARK    4  A    between atoms: C_7  and  C_10
REMARK    5  A    between atoms: C_13  and  C_17
REMARK    6  A    between atoms: C_14  and  C_18
REMARK    7  A    between atoms: C_15  and  C_20
REMARK    8  A    between atoms: C_15  and  C_26
REMARK    9  A    between atoms: C_15  and  C_27
REMARK   10  A    between atoms: C_15  and  C_28
REMARK   11  A    between atoms: C_19  and  C_23
REMARK   12  A    between atoms: C_23  and  C_29
REMARK   13  A    between atoms: C_29  and  C_30
REMARK   14  A    between atoms: C_30  and  C_31
REMARK                            x       y       z     vdW  Elec       q    Type
REMARK                         _______ _______ _______ _____ _____    ______ ____
ROOT
ATOM      5  N   UNL     1      -2.325  -5.007  41.363  0.00  0.00    -0.236 N 
ATOM      6  N   UNL     1      -3.265  -5.023  42.323  0.00  0.00    -0.171 NA
ATOM     10  C   UNL     1      -3.995  -6.050  40.419  0.00  0.00    +0.003 A 
ATOM     13  C   UNL     1      -2.714  -5.609  40.201  0.00  0.00    +0.046 A 
ATOM     14  C   UNL     1      -4.283  -5.661  41.741  0.00  0.00    +0.064 A 
ATOM     17  C   UNL     1      -1.846  -5.709  39.010  0.00  0.00    +0.066 C 
ATOM     18  C   UNL     1      -5.529  -5.880  42.497  0.00  0.00    +0.068 C 
ENDROOT
BRANCH   5  16
ATOM     16  C   UNL     1      -1.091  -4.407  41.613  0.00  0.00    +0.066 A 
ATOM     20  C   UNL     1       1.380  -3.207  42.104  0.00  0.00    -0.042 A 
ATOM     21  C   UNL     1      -1.019  -3.037  41.867  0.00  0.00    +0.028 A 
ATOM     22  C   UNL     1       0.073  -5.176  41.604  0.00  0.00    +0.028 A 
ATOM     24  C   UNL     1       0.216  -2.437  42.112  0.00  0.00    +0.006 A 
ATOM     25  C   UNL     1       1.308  -4.576  41.849  0.00  0.00    +0.006 A 
BRANCH  20  15
ATOM     15  C   UNL     1       2.699  -2.564  42.366  0.00  0.00    -0.013 C 
ATOM     26  C   UNL     1       3.547  -3.401  43.373  0.00  0.00    +0.015 C 
ATOM     27  C   UNL     1       2.524  -1.137  42.971  0.00  0.00    +0.015 C 
ATOM     28  C   UNL     1       3.613  -2.373  41.110  0.00  0.00    +0.015 C 
ENDBRANCH  20  15
ENDBRANCH   5  16
BRANCH  10   7
ATOM      7  C   UNL     1      -4.895  -6.786  39.452  0.00  0.00    +0.047 C 
ATOM      8  C   UNL     1      -5.335  -8.174  39.963  0.00  0.00    +0.039 C 
ATOM      9  C   UNL     1      -6.762  -8.381  39.439  0.00  0.00    +0.097 C 
ATOM     11  C   UNL     1      -6.209  -6.112  39.179  0.00  0.00    -0.021 C 
ATOM     12  C   UNL     1      -7.221  -6.985  39.170  0.00  0.00    -0.009 C 
BRANCH   9   4
ATOM      1  O   UNL     1      -6.570 -11.231  39.188  0.00  0.00    -0.276 OA
ATOM      4  N   UNL     1      -6.801  -9.136  38.216  0.00  0.00    -0.309 N 
ATOM     19  C   UNL     1      -6.700 -10.519  38.195  0.00  0.00    +0.213 C 
ATOM     32  H   UNL     1      -6.864  -8.635  37.334  0.00  0.00    +0.149 HD
BRANCH  19  23
ATOM     23  C   UNL     1      -6.741 -11.063  36.777  0.00  0.00    +0.096 C 
BRANCH  23  29
ATOM     29  C   UNL     1      -8.131 -11.020  36.143  0.00  0.00    +0.020 C 
BRANCH  29  30
ATOM     30  C   UNL     1      -9.247 -11.172  37.178  0.00  0.00    +0.121 C 
BRANCH  30  31
ATOM      3  O   UNL     1     -11.434 -10.178  36.776  0.00  0.00    -0.251 OA
ATOM     31  C   UNL     1     -10.258 -10.051  37.086  0.00  0.00    +0.305 C 
BRANCH  31   2
ATOM      2  O   UNL     1      -9.697  -8.853  37.398  0.00  0.00    -0.481 OA
ATOM     33  H   UNL     1      -9.561  -8.754  38.364  0.00  0.00    +0.295 HD
ENDBRANCH  31   2
ENDBRANCH  30  31
ENDBRANCH  29  30
ENDBRANCH  23  29
ENDBRANCH  19  23
ENDBRANCH   9   4
ENDBRANCH  10   7
TORSDOF 9
ENDMDL
MODEL 3
REMARK VINA RESULT:      -6.2     30.125     33.338
REMARK  Name = 40777708
REMARK  14 active torsions:
REMARK  status: ('A' for Active; 'I' for Inactive)
REMARK    1  A    between atoms: O_2  and  C_31
REMARK    2  A    between atoms: N_4  and  C_9
REMARK    3  A    between atoms: N_5  and  C_16
REMARK    4  A    between atoms: C_7  and  C_10
REMARK    5  A    between atoms: C_13  and  C_17
REMARK    6  A    between atoms: C_14  and  C_18
REMARK    7  A    between atoms: C_15  and  C_20
REMARK    8  A    between atoms: C_15  and  C_26
REMARK    9  A    between atoms: C_15  and  C_27
REMARK   10  A    between atoms: C_15  and  C_28
REMARK   11  A    between atoms: C_19  and  C_23
REMARK   12  A    between atoms: C_23  and  C_29
REMARK   13  A    between atoms: C_29  and  C_30
REMARK   14  A    between atoms: C_30  and  C_31
REMARK                            x       y       z     vdW  Elec       q    Type
REMARK                         _______ _______ _______ _____ _____    ______ ____
ROOT
ATOM      5  N   UNL     1      -9.088 -11.167  19.113  0.00  0.00    -0.236 N 
ATOM      6  N   UNL     1      -8.081 -11.074  19.999  0.00  0.00    -0.171 NA
ATOM     10  C   UNL     1      -7.301 -11.245  17.859  0.00  0.00    +0.003 A 
ATOM     13  C   UNL     1      -8.673 -11.273  17.817  0.00  0.00    +0.046 A 
ATOM     14  C   UNL     1      -6.992 -11.122  19.227  0.00  0.00    +0.064 A 
ATOM     17  C   UNL     1      -9.603 -11.389  16.675  0.00  0.00    +0.066 C 
ATOM     18  C   UNL     1      -5.659 -11.046  19.850  0.00  0.00    +0.068 C 
ENDROOT
BRANCH   5  16
ATOM     16  C   UNL     1     -10.408 -11.150  19.562  0.00  0.00    +0.066 A 
ATOM     20  C   UNL     1     -13.053 -11.118  20.451  0.00  0.00    -0.042 A 
ATOM     21  C   UNL     1     -11.013 -12.331  19.995  0.00  0.00    +0.028 A 
ATOM     22  C   UNL     1     -11.126  -9.955  19.573  0.00  0.00    +0.028 A 
ATOM     24  C   UNL     1     -12.335 -12.315  20.440  0.00  0.00    +0.006 A 
ATOM     25  C   UNL     1     -12.448  -9.939  20.018  0.00  0.00    +0.006 A 
BRANCH  20  15
ATOM     15  C   UNL     1     -14.466 -11.102  20.926  0.00  0.00    -0.013 C 
ATOM     26  C   UNL     1     -15.028  -9.648  20.983  0.00  0.00    +0.015 C 
ATOM     27  C   UNL     1     -14.589 -11.710  22.357  0.00  0.00    +0.015 C 
ATOM     28  C   UNL     1     -15.479 -11.906  20.045  0.00  0.00    +0.015 C 
ENDBRANCH  20  15
ENDBRANCH   5  16
BRANCH  10   7
ATOM      7  C   UNL     1      -6.340 -11.332  16.695  0.00  0.00    +0.047 C 
ATOM      8  C   UNL     1      -5.412 -10.105  16.579  0.00  0.00    +0.039 C 
ATOM      9  C   UNL     1      -4.073 -10.640  16.056  0.00  0.00    +0.097 C 
ATOM     11  C   UNL     1      -5.363 -12.469  16.770  0.00  0.00    -0.021 C 
ATOM     12  C   UNL     1      -4.131 -12.088  16.417  0.00  0.00    -0.009 C 
BRANCH   9   4
ATOM      1  O   UNL     1      -1.628 -10.651  14.557  0.00  0.00    -0.276 OA
ATOM      4  N   UNL     1      -3.944 -10.515  14.628  0.00  0.00    -0.309 N 
ATOM     19  C   UNL     1      -2.712 -10.531  13.992  0.00  0.00    +0.213 C 
ATOM     32  H   UNL     1      -4.782 -10.368  14.073  0.00  0.00    +0.149 HD
BRANCH  19  23
ATOM     23  C   UNL     1      -2.855 -10.353  12.490  0.00  0.00    +0.096 C 
BRANCH  23  29
ATOM     29  C   UNL     1      -4.264 -10.632  11.970  0.00  0.00    +0.020 C 
BRANCH  29  30
ATOM     30  C   UNL     1      -4.901  -9.400  11.324  0.00  0.00    +0.121 C 
BRANCH  30  31
ATOM      3  O   UNL     1      -7.286  -8.927  11.188  0.00  0.00    -0.251 OA
ATOM     31  C   UNL     1      -6.288  -9.135  11.864  0.00  0.00    +0.305 C 
BRANCH  31   2
ATOM      2  O   UNL     1      -6.303  -9.155  13.223  0.00  0.00    -0.481 OA
ATOM     33  H   UNL     1      -5.630  -9.769  13.586  0.00  0.00    +0.295 HD
ENDBRANCH  31   2
ENDBRANCH  30  31
ENDBRANCH  29  30
ENDBRANCH  23  29
ENDBRANCH  19  23
ENDBRANCH   9   4
ENDBRANCH  10   7
TORSDOF 9
ENDMDL
MODEL 4
REMARK VINA RESULT:      -6.2      2.076      3.075
REMARK  Name = 40777708
REMARK  14 active torsions:
REMARK  status: ('A' for Active; 'I' for Inactive)
REMARK    1  A    between atoms: O_2  and  C_31
REMARK    2  A    between atoms: N_4  and  C_9
REMARK    3  A    between atoms: N_5  and  C_16
REMARK    4  A    between atoms: C_7  and  C_10
REMARK    5  A    between atoms: C_13  and  C_17
REMARK    6  A    between atoms: C_14  and  C_18
REMARK    7  A    between atoms: C_15  and  C_20
REMARK    8  A    between atoms: C_15  and  C_26
REMARK    9  A    between atoms: C_15  and  C_27
REMARK   10  A    between atoms: C_15  and  C_28
REMARK   11  A    between atoms: C_19  and  C_23
REMARK   12  A    between atoms: C_23  and  C_29
REMARK   13  A    between atoms: C_29  and  C_30
REMARK   14  A    between atoms: C_30  and  C_31
REMARK                            x       y       z     vdW  Elec       q    Type
REMARK                         _______ _______ _______ _____ _____    ______ ____
ROOT
ATOM      5  N   UNL     1      19.592   6.566  20.746  0.00  0.00    -0.236 N 
ATOM      6  N   UNL     1      19.034   5.782  19.808  0.00  0.00    -0.171 NA
ATOM     10  C   UNL     1      17.595   7.415  20.501  0.00  0.00    +0.003 A 
ATOM     13  C   UNL     1      18.770   7.558  21.196  0.00  0.00    +0.046 A 
ATOM     14  C   UNL     1      17.814   6.306  19.661  0.00  0.00    +0.064 A 
ATOM     17  C   UNL     1      19.170   8.537  22.228  0.00  0.00    +0.066 C 
ATOM     18  C   UNL     1      16.878   5.705  18.695  0.00  0.00    +0.068 C 
ENDROOT
BRANCH   5  16
ATOM     16  C   UNL     1      20.898   6.316  21.168  0.00  0.00    +0.066 A 
ATOM     20  C   UNL     1      23.511   5.808  22.006  0.00  0.00    -0.042 A 
ATOM     21  C   UNL     1      21.972   6.898  20.495  0.00  0.00    +0.028 A 
ATOM     22  C   UNL     1      21.131   5.480  22.259  0.00  0.00    +0.028 A 
ATOM     24  C   UNL     1      23.279   6.645  20.914  0.00  0.00    +0.006 A 
ATOM     25  C   UNL     1      22.436   5.225  22.678  0.00  0.00    +0.006 A 
BRANCH  20  15
ATOM     15  C   UNL     1      24.907   5.537  22.453  0.00  0.00    -0.013 C 
ATOM     26  C   UNL     1      24.928   4.712  23.777  0.00  0.00    +0.015 C 
ATOM     27  C   UNL     1      25.685   6.864  22.713  0.00  0.00    +0.015 C 
ATOM     28  C   UNL     1      25.789   4.729  21.444  0.00  0.00    +0.015 C 
ENDBRANCH  20  15
ENDBRANCH   5  16
BRANCH  10   7
ATOM      7  C   UNL     1      16.346   8.258  20.617  0.00  0.00    +0.047 C 
ATOM      8  C   UNL     1      15.614   8.084  21.964  0.00  0.00    +0.039 C 
ATOM      9  C   UNL     1      15.018   9.457  22.298  0.00  0.00    +0.097 C 
ATOM     11  C   UNL     1      16.582   9.740  20.567  0.00  0.00    -0.021 C 
ATOM     12  C   UNL     1      15.853  10.389  21.482  0.00  0.00    -0.009 C 
BRANCH   9   4
ATOM      1  O   UNL     1      13.041  11.171  23.472  0.00  0.00    -0.276 OA
ATOM      4  N   UNL     1      13.642   9.579  21.894  0.00  0.00    -0.309 N 
ATOM     19  C   UNL     1      12.758  10.440  22.526  0.00  0.00    +0.213 C 
ATOM     32  H   UNL     1      13.298   8.984  21.145  0.00  0.00    +0.149 HD
BRANCH  19  23
ATOM     23  C   UNL     1      11.366  10.355  21.923  0.00  0.00    +0.096 C 
BRANCH  23  29
ATOM     29  C   UNL     1      10.676   9.012  22.159  0.00  0.00    +0.020 C 
BRANCH  29  30
ATOM     30  C   UNL     1      10.662   8.137  20.904  0.00  0.00    +0.121 C 
BRANCH  30  31
ATOM      3  O   UNL     1      11.185   5.882  21.663  0.00  0.00    -0.251 OA
ATOM     31  C   UNL     1      11.516   6.900  21.070  0.00  0.00    +0.305 C 
BRANCH  31   2
ATOM      2  O   UNL     1      12.726   7.050  20.469  0.00  0.00    -0.481 OA
ATOM     33  H   UNL     1      13.413   6.490  20.889  0.00  0.00    +0.295 HD
ENDBRANCH  31   2
ENDBRANCH  30  31
ENDBRANCH  29  30
ENDBRANCH  23  29
ENDBRANCH  19  23
ENDBRANCH   9   4
ENDBRANCH  10   7
TORSDOF 9
ENDMDL
MODEL 5
REMARK VINA RESULT:      -6.1     30.527     32.748
REMARK  Name = 40777708
REMARK  14 active torsions:
REMARK  status: ('A' for Active; 'I' for Inactive)
REMARK    1  A    between atoms: O_2  and  C_31
REMARK    2  A    between atoms: N_4  and  C_9
REMARK    3  A    between atoms: N_5  and  C_16
REMARK    4  A    between atoms: C_7  and  C_10
REMARK    5  A    between atoms: C_13  and  C_17
REMARK    6  A    between atoms: C_14  and  C_18
REMARK    7  A    between atoms: C_15  and  C_20
REMARK    8  A    between atoms: C_15  and  C_26
REMARK    9  A    between atoms: C_15  and  C_27
REMARK   10  A    between atoms: C_15  and  C_28
REMARK   11  A    between atoms: C_19  and  C_23
REMARK   12  A    between atoms: C_23  and  C_29
REMARK   13  A    between atoms: C_29  and  C_30
REMARK   14  A    between atoms: C_30  and  C_31
REMARK                            x       y       z     vdW  Elec       q    Type
REMARK                         _______ _______ _______ _____ _____    ______ ____
ROOT
ATOM      5  N   UNL     1      -7.301 -10.256  16.993  0.00  0.00    -0.236 N 
ATOM      6  N   UNL     1      -7.986  -9.120  16.779  0.00  0.00    -0.171 NA
ATOM     10  C   UNL     1      -9.148 -10.559  18.119  0.00  0.00    +0.003 A 
ATOM     13  C   UNL     1      -7.954 -11.152  17.789  0.00  0.00    +0.046 A 
ATOM     14  C   UNL     1      -9.113  -9.310  17.470  0.00  0.00    +0.064 A 
ATOM     17  C   UNL     1      -7.394 -12.468  18.157  0.00  0.00    +0.066 C 
ATOM     18  C   UNL     1     -10.144  -8.257  17.480  0.00  0.00    +0.068 C 
ENDROOT
BRANCH   5  16
ATOM     16  C   UNL     1      -6.043 -10.424  16.415  0.00  0.00    +0.066 A 
ATOM     20  C   UNL     1      -3.527 -10.770  15.260  0.00  0.00    -0.042 A 
ATOM     21  C   UNL     1      -5.927 -10.595  15.035  0.00  0.00    +0.028 A 
ATOM     22  C   UNL     1      -4.902 -10.428  17.216  0.00  0.00    +0.028 A 
ATOM     24  C   UNL     1      -4.668 -10.768  14.457  0.00  0.00    +0.006 A 
ATOM     25  C   UNL     1      -3.644 -10.601  16.639  0.00  0.00    +0.006 A 
BRANCH  20  15
ATOM     15  C   UNL     1      -2.183 -10.956  14.642  0.00  0.00    -0.013 C 
ATOM     26  C   UNL     1      -1.873 -12.466  14.402  0.00  0.00    +0.015 C 
ATOM     27  C   UNL     1      -1.056 -10.384  15.555  0.00  0.00    +0.015 C 
ATOM     28  C   UNL     1      -1.983 -10.264  13.252  0.00  0.00    +0.015 C 
ENDBRANCH  20  15
ENDBRANCH   5  16
BRANCH  10   7
ATOM      7  C   UNL     1     -10.251 -11.124  18.985  0.00  0.00    +0.047 C 
ATOM      8  C   UNL     1     -10.745 -10.138  20.064  0.00  0.00    +0.039 C 
ATOM      9  C   UNL     1     -12.248 -10.405  20.219  0.00  0.00    +0.097 C 
ATOM     11  C   UNL     1     -11.517 -11.459  18.250  0.00  0.00    -0.021 C 
ATOM     12  C   UNL     1     -12.601 -11.068  18.928  0.00  0.00    -0.009 C 
BRANCH   9   4
ATOM      1  O   UNL     1     -14.823 -10.863  21.393  0.00  0.00    -0.276 OA
ATOM      4  N   UNL     1     -12.545 -11.298  21.306  0.00  0.00    -0.309 N 
ATOM     19  C   UNL     1     -13.829 -11.453  21.807  0.00  0.00    +0.213 C 
ATOM     32  H   UNL     1     -11.781 -11.802  21.748  0.00  0.00    +0.149 HD
BRANCH  19  23
ATOM     23  C   UNL     1     -13.862 -12.432  22.969  0.00  0.00    +0.096 C 
BRANCH  23  29
ATOM     29  C   UNL     1     -13.360 -13.830  22.608  0.00  0.00    +0.020 C 
BRANCH  29  30
ATOM     30  C   UNL     1     -12.147 -14.245  23.442  0.00  0.00    +0.121 C 
BRANCH  30  31
ATOM      3  O   UNL     1      -9.871 -14.953  22.937  0.00  0.00    -0.251 OA
ATOM     31  C   UNL     1     -10.904 -14.393  22.594  0.00  0.00    +0.305 C 
BRANCH  31   2
ATOM      2  O   UNL     1     -11.067 -13.821  21.372  0.00  0.00    -0.481 OA
ATOM     33  H   UNL     1     -11.829 -13.204  21.358  0.00  0.00    +0.295 HD
ENDBRANCH  31   2
ENDBRANCH  30  31
ENDBRANCH  29  30
ENDBRANCH  23  29
ENDBRANCH  19  23
ENDBRANCH   9   4
ENDBRANCH  10   7
TORSDOF 9
ENDMDL
MODEL 6
REMARK VINA RESULT:      -6.1     28.946     31.977
REMARK  Name = 40777708
REMARK  14 active torsions:
REMARK  status: ('A' for Active; 'I' for Inactive)
REMARK    1  A    between atoms: O_2  and  C_31
REMARK    2  A    between atoms: N_4  and  C_9
REMARK    3  A    between atoms: N_5  and  C_16
REMARK    4  A    between atoms: C_7  and  C_10
REMARK    5  A    between atoms: C_13  and  C_17
REMARK    6  A    between atoms: C_14  and  C_18
REMARK    7  A    between atoms: C_15  and  C_20
REMARK    8  A    between atoms: C_15  and  C_26
REMARK    9  A    between atoms: C_15  and  C_27
REMARK   10  A    between atoms: C_15  and  C_28
REMARK   11  A    between atoms: C_19  and  C_23
REMARK   12  A    between atoms: C_23  and  C_29
REMARK   13  A    between atoms: C_29  and  C_30
REMARK   14  A    between atoms: C_30  and  C_31
REMARK                            x       y       z     vdW  Elec       q    Type
REMARK                         _______ _______ _______ _____ _____    ______ ____
ROOT
ATOM      5  N   UNL     1      -3.724 -10.656  13.521  0.00  0.00    -0.236 N 
ATOM      6  N   UNL     1      -2.467 -10.206  13.371  0.00  0.00    -0.171 NA
ATOM     10  C   UNL     1      -3.491 -10.519  11.354  0.00  0.00    +0.003 A 
ATOM     13  C   UNL     1      -4.380 -10.861  12.342  0.00  0.00    +0.046 A 
ATOM     14  C   UNL     1      -2.330 -10.124  12.045  0.00  0.00    +0.064 A 
ATOM     17  C   UNL     1      -5.770 -11.355  12.264  0.00  0.00    +0.066 C 
ATOM     18  C   UNL     1      -1.054  -9.657  11.476  0.00  0.00    +0.068 C 
ENDROOT
BRANCH   5  16
ATOM     16  C   UNL     1      -4.234 -10.870  14.802  0.00  0.00    +0.066 A 
ATOM     20  C   UNL     1      -5.262 -11.301  17.360  0.00  0.00    -0.042 A 
ATOM     21  C   UNL     1      -3.865 -12.008  15.519  0.00  0.00    +0.028 A 
ATOM     22  C   UNL     1      -5.117  -9.948  15.364  0.00  0.00    +0.028 A 
ATOM     24  C   UNL     1      -4.378 -12.223  16.799  0.00  0.00    +0.006 A 
ATOM     25  C   UNL     1      -5.632 -10.164  16.642  0.00  0.00    +0.006 A 
BRANCH  20  15
ATOM     15  C   UNL     1      -5.811 -11.532  18.727  0.00  0.00    -0.013 C 
ATOM     26  C   UNL     1      -6.440 -10.230  19.312  0.00  0.00    +0.015 C 
ATOM     27  C   UNL     1      -4.696 -12.001  19.712  0.00  0.00    +0.015 C 
ATOM     28  C   UNL     1      -6.934 -12.618  18.823  0.00  0.00    +0.015 C 
ENDBRANCH  20  15
ENDBRANCH   5  16
BRANCH  10   7
ATOM      7  C   UNL     1      -3.711 -10.562   9.859  0.00  0.00    +0.047 C 
ATOM      8  C   UNL     1      -4.773 -11.595   9.428  0.00  0.00    +0.039 C 
ATOM      9  C   UNL     1      -5.487 -10.982   8.217  0.00  0.00    +0.097 C 
ATOM     11  C   UNL     1      -4.242  -9.288   9.266  0.00  0.00    -0.021 C 
ATOM     12  C   UNL     1      -5.206  -9.524   8.370  0.00  0.00    -0.009 C 
BRANCH   9   4
ATOM      1  O   UNL     1      -6.721 -10.739   5.640  0.00  0.00    -0.276 OA
ATOM      4  N   UNL     1      -4.948 -11.439   6.964  0.00  0.00    -0.309 N 
ATOM     19  C   UNL     1      -5.623 -11.275   5.763  0.00  0.00    +0.213 C 
ATOM     32  H   UNL     1      -4.061 -11.935   6.965  0.00  0.00    +0.149 HD
BRANCH  19  23
ATOM     23  C   UNL     1      -4.848 -11.869   4.599  0.00  0.00    +0.096 C 
BRANCH  23  29
ATOM     29  C   UNL     1      -3.395 -12.203   4.935  0.00  0.00    +0.020 C 
BRANCH  29  30
ATOM     30  C   UNL     1      -2.941 -13.523   4.309  0.00  0.00    +0.121 C 
BRANCH  30  31
ATOM      3  O   UNL     1      -1.023 -14.024   2.894  0.00  0.00    -0.251 OA
ATOM     31  C   UNL     1      -1.972 -13.303   3.170  0.00  0.00    +0.305 C 
BRANCH  31   2
ATOM      2  O   UNL     1      -2.282 -12.183   2.465  0.00  0.00    -0.481 OA
ATOM     33  H   UNL     1      -3.215 -12.189   2.162  0.00  0.00    +0.295 HD
ENDBRANCH  31   2
ENDBRANCH  30  31
ENDBRANCH  29  30
ENDBRANCH  23  29
ENDBRANCH  19  23
ENDBRANCH   9   4
ENDBRANCH  10   7
TORSDOF 9
ENDMDL
MODEL 7
REMARK VINA RESULT:      -6.0     28.600     31.551
REMARK  Name = 40777708
REMARK  14 active torsions:
REMARK  status: ('A' for Active; 'I' for Inactive)
REMARK    1  A    between atoms: O_2  and  C_31
REMARK    2  A    between atoms: N_4  and  C_9
REMARK    3  A    between atoms: N_5  and  C_16
REMARK    4  A    between atoms: C_7  and  C_10
REMARK    5  A    between atoms: C_13  and  C_17
REMARK    6  A    between atoms: C_14  and  C_18
REMARK    7  A    between atoms: C_15  and  C_20
REMARK    8  A    between atoms: C_15  and  C_26
REMARK    9  A    between atoms: C_15  and  C_27
REMARK   10  A    between atoms: C_15  and  C_28
REMARK   11  A    between atoms: C_19  and  C_23
REMARK   12  A    between atoms: C_23  and  C_29
REMARK   13  A    between atoms: C_29  and  C_30
REMARK   14  A    between atoms: C_30  and  C_31
REMARK                            x       y       z     vdW  Elec       q    Type
REMARK                         _______ _______ _______ _____ _____    ______ ____
ROOT
ATOM      5  N   UNL     1      -4.374  -9.608  10.080  0.00  0.00    -0.236 N 
ATOM      6  N   UNL     1      -3.096  -9.219   9.932  0.00  0.00    -0.171 NA
ATOM     10  C   UNL     1      -3.447 -10.185  11.972  0.00  0.00    +0.003 A 
ATOM     13  C   UNL     1      -4.636 -10.191  11.286  0.00  0.00    +0.046 A 
ATOM     14  C   UNL     1      -2.534  -9.575  11.090  0.00  0.00    +0.064 A 
ATOM     17  C   UNL     1      -5.971 -10.693  11.671  0.00  0.00    +0.066 C 
ATOM     18  C   UNL     1      -1.102  -9.307  11.314  0.00  0.00    +0.068 C 
ENDROOT
BRANCH   5  16
ATOM     16  C   UNL     1      -5.286  -9.395   9.047  0.00  0.00    +0.066 A 
ATOM     20  C   UNL     1      -7.105  -8.960   6.976  0.00  0.00    -0.042 A 
ATOM     21  C   UNL     1      -5.170 -10.111   7.855  0.00  0.00    +0.028 A 
ATOM     22  C   UNL     1      -6.311  -8.462   9.202  0.00  0.00    +0.028 A 
ATOM     24  C   UNL     1      -6.080  -9.894   6.820  0.00  0.00    +0.006 A 
ATOM     25  C   UNL     1      -7.220  -8.244   8.167  0.00  0.00    +0.006 A 
BRANCH  20  15
ATOM     15  C   UNL     1      -8.076  -8.729   5.869  0.00  0.00    -0.013 C 
ATOM     26  C   UNL     1      -8.725  -7.314   5.971  0.00  0.00    +0.015 C 
ATOM     27  C   UNL     1      -9.230  -9.778   5.899  0.00  0.00    +0.015 C 
ATOM     28  C   UNL     1      -7.478  -8.810   4.425  0.00  0.00    +0.015 C 
ENDBRANCH  20  15
ENDBRANCH   5  16
BRANCH  10   7
ATOM      7  C   UNL     1      -3.181 -10.714  13.363  0.00  0.00    +0.047 C 
ATOM      8  C   UNL     1      -4.442 -11.272  14.055  0.00  0.00    +0.039 C 
ATOM      9  C   UNL     1      -3.962 -12.451  14.911  0.00  0.00    +0.097 C 
ATOM     11  C   UNL     1      -2.237 -11.880  13.422  0.00  0.00    -0.021 C 
ATOM     12  C   UNL     1      -2.665 -12.821  14.269  0.00  0.00    -0.009 C 
BRANCH   9   4
ATOM      1  O   UNL     1      -5.631 -13.069  17.160  0.00  0.00    -0.276 OA
ATOM      4  N   UNL     1      -3.723 -12.082  16.281  0.00  0.00    -0.309 N 
ATOM     19  C   UNL     1      -4.593 -12.429  17.304  0.00  0.00    +0.213 C 
ATOM     32  H   UNL     1      -2.910 -11.513  16.499  0.00  0.00    +0.149 HD
BRANCH  19  23
ATOM     23  C   UNL     1      -4.121 -11.893  18.646  0.00  0.00    +0.096 C 
BRANCH  23  29
ATOM     29  C   UNL     1      -5.249 -11.689  19.656  0.00  0.00    +0.020 C 
BRANCH  29  30
ATOM     30  C   UNL     1      -6.113 -10.470  19.327  0.00  0.00    +0.121 C 
BRANCH  30  31
ATOM      3  O   UNL     1      -8.416 -10.946  19.958  0.00  0.00    -0.251 OA
ATOM     31  C   UNL     1      -7.557 -10.850  19.092  0.00  0.00    +0.305 C 
BRANCH  31   2
ATOM      2  O   UNL     1      -7.802 -11.076  17.775  0.00  0.00    -0.481 OA
ATOM     33  H   UNL     1      -8.563 -11.680  17.643  0.00  0.00    +0.295 HD
ENDBRANCH  31   2
ENDBRANCH  30  31
ENDBRANCH  29  30
ENDBRANCH  23  29
ENDBRANCH  19  23
ENDBRANCH   9   4
ENDBRANCH  10   7
TORSDOF 9
ENDMDL
MODEL 8
REMARK VINA RESULT:      -5.9     14.107     19.303
REMARK  Name = 40777708
REMARK  14 active torsions:
REMARK  status: ('A' for Active; 'I' for Inactive)
REMARK    1  A    between atoms: O_2  and  C_31
REMARK    2  A    between atoms: N_4  and  C_9
REMARK    3  A    between atoms: N_5  and  C_16
REMARK    4  A    between atoms: C_7  and  C_10
REMARK    5  A    between atoms: C_13  and  C_17
REMARK    6  A    between atoms: C_14  and  C_18
REMARK    7  A    between atoms: C_15  and  C_20
REMARK    8  A    between atoms: C_15  and  C_26
REMARK    9  A    between atoms: C_15  and  C_27
REMARK   10  A    between atoms: C_15  and  C_28
REMARK   11  A    between atoms: C_19  and  C_23
REMARK   12  A    between atoms: C_23  and  C_29
REMARK   13  A    between atoms: C_29  and  C_30
REMARK   14  A    between atoms: C_30  and  C_31
REMARK                            x       y       z     vdW  Elec       q    Type
REMARK                         _______ _______ _______ _____ _____    ______ ____
ROOT
ATOM      5  N   UNL     1      20.253  -7.093  23.154  0.00  0.00    -0.236 N 
ATOM      6  N   UNL     1      20.744  -7.637  24.280  0.00  0.00    -0.171 NA
ATOM     10  C   UNL     1      21.466  -8.756  22.425  0.00  0.00    +0.003 A 
ATOM     13  C   UNL     1      20.655  -7.728  22.015  0.00  0.00    +0.046 A 
ATOM     14  C   UNL     1      21.485  -8.653  23.829  0.00  0.00    +0.064 A 
ATOM     17  C   UNL     1      20.238  -7.306  20.661  0.00  0.00    +0.066 C 
ATOM     18  C   UNL     1      22.202  -9.510  24.789  0.00  0.00    +0.068 C 
ENDROOT
BRANCH   5  16
ATOM     16  C   UNL     1      19.413  -5.982  23.232  0.00  0.00    +0.066 A 
ATOM     20  C   UNL     1      17.731  -3.762  23.397  0.00  0.00    -0.042 A 
ATOM     21  C   UNL     1      19.948  -4.720  23.492  0.00  0.00    +0.028 A 
ATOM     22  C   UNL     1      18.038  -6.133  23.055  0.00  0.00    +0.028 A 
ATOM     24  C   UNL     1      19.107  -3.609  23.574  0.00  0.00    +0.006 A 
ATOM     25  C   UNL     1      17.197  -5.024  23.138  0.00  0.00    +0.006 A 
BRANCH  20  15
ATOM     15  C   UNL     1      16.834  -2.574  23.486  0.00  0.00    -0.013 C 
ATOM     26  C   UNL     1      17.400  -1.374  22.667  0.00  0.00    +0.015 C 
ATOM     27  C   UNL     1      16.667  -2.100  24.962  0.00  0.00    +0.015 C 
ATOM     28  C   UNL     1      15.379  -2.793  22.952  0.00  0.00    +0.015 C 
ENDBRANCH  20  15
ENDBRANCH   5  16
BRANCH  10   7
ATOM      7  C   UNL     1      22.177  -9.773  21.560  0.00  0.00    +0.047 C 
ATOM      8  C   UNL     1      21.986  -9.528  20.049  0.00  0.00    +0.039 C 
ATOM      9  C   UNL     1      23.302  -9.954  19.385  0.00  0.00    +0.097 C 
ATOM     11  C   UNL     1      23.672  -9.779  21.699  0.00  0.00    -0.021 C 
ATOM     12  C   UNL     1      24.279  -9.882  20.512  0.00  0.00    -0.009 C 
BRANCH   9   4
ATOM      1  O   UNL     1      22.525 -10.764  16.747  0.00  0.00    -0.276 OA
ATOM      4  N   UNL     1      23.260 -11.301  18.882  0.00  0.00    -0.309 N 
ATOM     19  C   UNL     1      22.868 -11.595  17.584  0.00  0.00    +0.213 C 
ATOM     32  H   UNL     1      23.485 -12.066  19.512  0.00  0.00    +0.149 HD
BRANCH  19  23
ATOM     23  C   UNL     1      22.886 -13.091  17.319  0.00  0.00    +0.096 C 
BRANCH  23  29
ATOM     29  C   UNL     1      22.019 -13.896  18.285  0.00  0.00    +0.020 C 
BRANCH  29  30
ATOM     30  C   UNL     1      20.537 -13.533  18.179  0.00  0.00    +0.121 C 
BRANCH  30  31
ATOM      3  O   UNL     1      19.876 -15.586  19.311  0.00  0.00    -0.251 OA
ATOM     31  C   UNL     1      19.643 -14.713  18.486  0.00  0.00    +0.305 C 
BRANCH  31   2
ATOM      2  O   UNL     1      18.520 -14.695  17.721  0.00  0.00    -0.481 OA
ATOM     33  H   UNL     1      18.719 -14.864  16.776  0.00  0.00    +0.295 HD
ENDBRANCH  31   2
ENDBRANCH  30  31
ENDBRANCH  29  30
ENDBRANCH  23  29
ENDBRANCH  19  23
ENDBRANCH   9   4
ENDBRANCH  10   7
TORSDOF 9
ENDMDL
MODEL 9
REMARK VINA RESULT:      -5.9     21.408     22.933
REMARK  Name = 40777708
REMARK  14 active torsions:
REMARK  status: ('A' for Active; 'I' for Inactive)
REMARK    1  A    between atoms: O_2  and  C_31
REMARK    2  A    between atoms: N_4  and  C_9
REMARK    3  A    between atoms: N_5  and  C_16
REMARK    4  A    between atoms: C_7  and  C_10
REMARK    5  A    between atoms: C_13  and  C_17
REMARK    6  A    between atoms: C_14  and  C_18
REMARK    7  A    between atoms: C_15  and  C_20
REMARK    8  A    between atoms: C_15  and  C_26
REMARK    9  A    between atoms: C_15  and  C_27
REMARK   10  A    between atoms: C_15  and  C_28
REMARK   11  A    between atoms: C_19  and  C_23
REMARK   12  A    between atoms: C_23  and  C_29
REMARK   13  A    between atoms: C_29  and  C_30
REMARK   14  A    between atoms: C_30  and  C_31
REMARK                            x       y       z     vdW  Elec       q    Type
REMARK                         _______ _______ _______ _____ _____    ______ ____
ROOT
ATOM      5  N   UNL     1       8.028  -9.427  32.338  0.00  0.00    -0.236 N 
ATOM      6  N   UNL     1       9.347  -9.252  32.149  0.00  0.00    -0.171 NA
ATOM     10  C   UNL     1       8.456  -7.588  33.435  0.00  0.00    +0.003 A 
ATOM     13  C   UNL     1       7.447  -8.456  33.101  0.00  0.00    +0.046 A 
ATOM     14  C   UNL     1       9.603  -8.127  32.821  0.00  0.00    +0.064 A 
ATOM     17  C   UNL     1       6.008  -8.442  33.438  0.00  0.00    +0.066 C 
ATOM     18  C   UNL     1      10.978  -7.597  32.849  0.00  0.00    +0.068 C 
ENDROOT
BRANCH   5  16
ATOM     16  C   UNL     1       7.388 -10.529  31.770  0.00  0.00    +0.066 A 
ATOM     20  C   UNL     1       6.099 -12.727  30.633  0.00  0.00    -0.042 A 
ATOM     21  C   UNL     1       7.305 -10.648  30.382  0.00  0.00    +0.028 A 
ATOM     22  C   UNL     1       6.826 -11.508  32.588  0.00  0.00    +0.028 A 
ATOM     24  C   UNL     1       6.660 -11.747  29.813  0.00  0.00    +0.006 A 
ATOM     25  C   UNL     1       6.181 -12.607  32.020  0.00  0.00    +0.006 A 
BRANCH  20  15
ATOM     15  C   UNL     1       5.410 -13.901  30.025  0.00  0.00    -0.013 C 
ATOM     26  C   UNL     1       5.255 -15.063  31.054  0.00  0.00    +0.015 C 
ATOM     27  C   UNL     1       6.208 -14.456  28.805  0.00  0.00    +0.015 C 
ATOM     28  C   UNL     1       3.966 -13.626  29.487  0.00  0.00    +0.015 C 
ENDBRANCH  20  15
ENDBRANCH   5  16
BRANCH  10   7
ATOM      7  C   UNL     1       8.355  -6.332  34.271  0.00  0.00    +0.047 C 
ATOM      8  C   UNL     1       9.360  -6.297  35.442  0.00  0.00    +0.039 C 
ATOM      9  C   UNL     1       9.763  -4.826  35.604  0.00  0.00    +0.097 C 
ATOM     11  C   UNL     1       8.671  -5.061  33.537  0.00  0.00    -0.021 C 
ATOM     12  C   UNL     1       9.435  -4.243  34.269  0.00  0.00    -0.009 C 
BRANCH   9   4
ATOM      1  O   UNL     1      10.704  -2.761  37.357  0.00  0.00    -0.276 OA
ATOM      4  N   UNL     1       8.998  -4.149  36.616  0.00  0.00    -0.309 N 
ATOM     19  C   UNL     1       9.544  -3.158  37.419  0.00  0.00    +0.213 C 
ATOM     32  H   UNL     1       8.036  -4.435  36.775  0.00  0.00    +0.149 HD
BRANCH  19  23
ATOM     23  C   UNL     1       8.532  -2.628  38.421  0.00  0.00    +0.096 C 
BRANCH  23  29
ATOM     29  C   UNL     1       7.303  -3.522  38.584  0.00  0.00    +0.020 C 
BRANCH  29  30
ATOM     30  C   UNL     1       5.995  -2.758  38.368  0.00  0.00    +0.121 C 
BRANCH  30  31
ATOM      3  O   UNL     1       4.247  -2.751  36.672  0.00  0.00    -0.251 OA
ATOM     31  C   UNL     1       5.370  -3.079  37.029  0.00  0.00    +0.305 C 
BRANCH  31   2
ATOM      2  O   UNL     1       6.221  -3.790  36.243  0.00  0.00    -0.481 OA
ATOM     33  H   UNL     1       6.890  -4.273  36.773  0.00  0.00    +0.295 HD
ENDBRANCH  31   2
ENDBRANCH  30  31
ENDBRANCH  29  30
ENDBRANCH  23  29
ENDBRANCH  19  23
ENDBRANCH   9   4
ENDBRANCH  10   7
TORSDOF 9
ENDMDL
MODEL 10
REMARK VINA RESULT:      -5.9     29.663     32.740
REMARK  Name = 40777708
REMARK  14 active torsions:
REMARK  status: ('A' for Active; 'I' for Inactive)
REMARK    1  A    between atoms: O_2  and  C_31
REMARK    2  A    between atoms: N_4  and  C_9
REMARK    3  A    between atoms: N_5  and  C_16
REMARK    4  A    between atoms: C_7  and  C_10
REMARK    5  A    between atoms: C_13  and  C_17
REMARK    6  A    between atoms: C_14  and  C_18
REMARK    7  A    between atoms: C_15  and  C_20
REMARK    8  A    between atoms: C_15  and  C_26
REMARK    9  A    between atoms: C_15  and  C_27
REMARK   10  A    between atoms: C_15  and  C_28
REMARK   11  A    between atoms: C_19  and  C_23
REMARK   12  A    between atoms: C_23  and  C_29
REMARK   13  A    between atoms: C_29  and  C_30
REMARK   14  A    between atoms: C_30  and  C_31
REMARK                            x       y       z     vdW  Elec       q    Type
REMARK                         _______ _______ _______ _____ _____    ______ ____
ROOT
ATOM      5  N   UNL     1      -6.316 -10.152   7.733  0.00  0.00    -0.236 N 
ATOM      6  N   UNL     1      -5.702 -11.339   7.593  0.00  0.00    -0.171 NA
ATOM     10  C   UNL     1      -5.143 -10.334   9.567  0.00  0.00    +0.003 A 
ATOM     13  C   UNL     1      -6.013  -9.509   8.899  0.00  0.00    +0.046 A 
ATOM     14  C   UNL     1      -4.988 -11.446   8.717  0.00  0.00    +0.064 A 
ATOM     17  C   UNL     1      -6.569  -8.190   9.265  0.00  0.00    +0.066 C 
ATOM     18  C   UNL     1      -4.158 -12.644   8.938  0.00  0.00    +0.068 C 
ENDROOT
BRANCH   5  16
ATOM     16  C   UNL     1      -7.168  -9.691   6.730  0.00  0.00    +0.066 A 
ATOM     20  C   UNL     1      -8.875  -8.762   4.728  0.00  0.00    -0.042 A 
ATOM     21  C   UNL     1      -6.663  -8.911   5.690  0.00  0.00    +0.028 A 
ATOM     22  C   UNL     1      -8.526 -10.006   6.769  0.00  0.00    +0.028 A 
ATOM     24  C   UNL     1      -7.517  -8.446   4.688  0.00  0.00    +0.006 A 
ATOM     25  C   UNL     1      -9.380  -9.542   5.769  0.00  0.00    +0.006 A 
BRANCH  20  15
ATOM     15  C   UNL     1      -9.786  -8.265   3.658  0.00  0.00    -0.013 C 
ATOM     26  C   UNL     1     -10.939  -9.279   3.379  0.00  0.00    +0.015 C 
ATOM     27  C   UNL     1      -9.019  -8.045   2.318  0.00  0.00    +0.015 C 
ATOM     28  C   UNL     1     -10.495  -6.903   3.960  0.00  0.00    +0.015 C 
ENDBRANCH  20  15
ENDBRANCH   5  16
BRANCH  10   7
ATOM      7  C   UNL     1      -4.497 -10.099  10.913  0.00  0.00    +0.047 C 
ATOM      8  C   UNL     1      -4.724 -11.255  11.910  0.00  0.00    +0.039 C 
ATOM      9  C   UNL     1      -3.445 -11.339  12.753  0.00  0.00    +0.097 C 
ATOM     11  C   UNL     1      -3.000  -9.990  10.881  0.00  0.00    -0.021 C 
ATOM     12  C   UNL     1      -2.432 -10.664  11.887  0.00  0.00    -0.009 C 
BRANCH   9   4
ATOM      1  O   UNL     1      -3.770 -12.493  15.357  0.00  0.00    -0.276 OA
ATOM      4  N   UNL     1      -3.553 -10.625  13.998  0.00  0.00    -0.309 N 
ATOM     19  C   UNL     1      -3.708 -11.275  15.213  0.00  0.00    +0.213 C 
ATOM     32  H   UNL     1      -3.555  -9.609  13.980  0.00  0.00    +0.149 HD
BRANCH  19  23
ATOM     23  C   UNL     1      -3.824 -10.290  16.364  0.00  0.00    +0.096 C 
BRANCH  23  29
ATOM     29  C   UNL     1      -5.157 -10.367  17.106  0.00  0.00    +0.020 C 
BRANCH  29  30
ATOM     30  C   UNL     1      -5.021 -11.018  18.484  0.00  0.00    +0.121 C 
BRANCH  30  31
ATOM      3  O   UNL     1      -6.266 -10.964  20.576  0.00  0.00    -0.251 OA
ATOM     31  C   UNL     1      -6.160 -10.638  19.402  0.00  0.00    +0.305 C 
BRANCH  31   2
ATOM      2  O   UNL     1      -7.078  -9.869  18.760  0.00  0.00    -0.481 OA
ATOM     33  H   UNL     1      -7.322 -10.244  17.887  0.00  0.00    +0.295 HD
ENDBRANCH  31   2
ENDBRANCH  30  31
ENDBRANCH  29  30
ENDBRANCH  23  29
ENDBRANCH  19  23
ENDBRANCH   9   4
ENDBRANCH  10   7
TORSDOF 9
ENDMDL
