MODEL 1
REMARK VINA RESULT:      -6.6      0.000      0.000
REMARK  Name = 45361703
REMARK  10 active torsions:
REMARK  status: ('A' for Active; 'I' for Inactive)
REMARK    1  A    between atoms: N_6  and  C_18
REMARK    2  A    between atoms: N_7  and  C_19
REMARK    3  A    between atoms: N_10  and  C_38
REMARK    4  A    between atoms: N_10  and  C_39
REMARK    5  A    between atoms: N_10  and  C_40
REMARK    6  A    between atoms: C_11  and  C_14
REMARK    7  A    between atoms: C_14  and  C_18
REMARK    8  A    between atoms: C_18  and  C_31
REMARK    9  A    between atoms: C_20  and  C_28
REMARK   10  A    between atoms: C_32  and  C_33
REMARK                            x       y       z     vdW  Elec       q    Type
REMARK                         _______ _______ _______ _____ _____    ______ ____
ROOT
ATOM      2  O   UNL     1      -2.022 -10.552  12.256  0.00  0.00    -0.253 OA
ATOM      4  O   UNL     1      -3.653 -12.491  18.578  0.00  0.00    -0.270 OA
ATOM      5  N   UNL     1      -3.543 -10.724  14.009  0.00  0.00    -0.271 N 
ATOM      7  N   UNL     1      -4.197  -9.923  11.878  0.00  0.00    -0.296 N 
ATOM      8  N   UNL     1      -4.019 -11.016  16.802  0.00  0.00    -0.294 N 
ATOM     20  C   UNL     1      -2.564 -11.426  14.855  0.00  0.00    +0.181 C 
ATOM     25  C   UNL     1      -2.637 -11.047  16.332  0.00  0.00    +0.140 C 
ATOM     27  C   UNL     1      -4.904 -10.563  14.560  0.00  0.00    +0.129 C 
ATOM     29  C   UNL     1      -4.889 -10.136  16.024  0.00  0.00    +0.127 C 
ATOM     30  C   UNL     1      -3.172 -10.406  12.684  0.00  0.00    +0.303 C 
ATOM     32  C   UNL     1      -4.391 -11.752  17.927  0.00  0.00    +0.247 C 
ATOM     42  H   UNL     1      -5.157  -9.994  12.184  0.00  0.00    +0.151 HD
ENDROOT
BRANCH   7  19
ATOM     19  C   UNL     1      -3.983  -9.565  10.493  0.00  0.00    +0.074 C 
ATOM     21  C   UNL     1      -4.883  -8.395  10.081  0.00  0.00    +0.022 C 
ATOM     22  C   UNL     1      -4.187 -10.773   9.573  0.00  0.00    +0.022 C 
ATOM     23  C   UNL     1      -6.352  -8.802   9.961  0.00  0.00    +0.002 C 
ATOM     24  C   UNL     1      -5.656 -11.176   9.454  0.00  0.00    +0.002 C 
ATOM     26  C   UNL     1      -6.531 -10.000   9.033  0.00  0.00    +0.000 C 
ENDBRANCH   7  19
BRANCH  32  33
ATOM     33  C   UNL     1      -5.786 -11.665  18.380  0.00  0.00    +0.037 A 
ATOM     34  C   UNL     1      -6.732 -12.574  17.905  0.00  0.00    +0.015 A 
ATOM     35  C   UNL     1      -6.165 -10.672  19.283  0.00  0.00    +0.015 A 
ATOM     36  C   UNL     1      -8.056 -12.490  18.334  0.00  0.00    +0.024 A 
ATOM     37  C   UNL     1      -7.490 -10.589  19.712  0.00  0.00    +0.024 A 
ATOM     38  C   UNL     1      -8.435 -11.498  19.238  0.00  0.00    +0.029 A 
BRANCH  38  10
ATOM     10  N   UNL     1      -9.774 -11.413  19.672  0.00  0.00    -0.336 N 
ATOM     39  C   UNL     1     -10.519 -10.179  19.517  0.00  0.00    +0.129 C 
ATOM     40  C   UNL     1     -10.421 -12.555  20.286  0.00  0.00    +0.129 C 
ENDBRANCH  38  10
ENDBRANCH  32  33
BRANCH  20  28
ATOM      1  O   UNL     1      -3.712 -13.483  15.255  0.00  0.00    -0.274 OA
ATOM      6  N   UNL     1      -1.937 -13.459  13.750  0.00  0.00    -0.302 N 
ATOM     28  C   UNL     1      -2.820 -12.892  14.652  0.00  0.00    +0.236 C 
ATOM     41  H   UNL     1      -1.182 -12.891  13.375  0.00  0.00    +0.150 HD
BRANCH   6  18
ATOM     18  C   UNL     1      -1.957 -14.860  13.397  0.00  0.00    +0.159 C 
BRANCH  18  31
ATOM      3  O   UNL     1      -0.366 -16.386  14.421  0.00  0.00    -0.274 OA
ATOM      9  N   UNL     1       0.424 -14.797  12.964  0.00  0.00    -0.328 N 
ATOM     31  C   UNL     1      -0.576 -15.448  13.655  0.00  0.00    +0.231 C 
ATOM     43  H   UNL     1       0.240 -14.010  12.348  0.00  0.00    +0.145 HD
ATOM     44  H   UNL     1       1.392 -15.085  13.054  0.00  0.00    +0.145 HD
ENDBRANCH  18  31
BRANCH  18  14
ATOM     14  C   UNL     1      -2.441 -15.090  11.963  0.00  0.00    +0.035 C 
BRANCH  14  11
ATOM     11  C   UNL     1      -3.944 -15.343  11.843  0.00  0.00    -0.009 C 
ATOM     12  C   UNL     1      -4.467 -16.093  13.075  0.00  0.00    +0.003 C 
ATOM     13  C   UNL     1      -4.701 -14.023  11.646  0.00  0.00    +0.003 C 
ATOM     15  C   UNL     1      -5.976 -16.310  13.004  0.00  0.00    +0.000 C 
ATOM     16  C   UNL     1      -6.210 -14.244  11.576  0.00  0.00    +0.000 C 
ATOM     17  C   UNL     1      -6.725 -14.998  12.798  0.00  0.00    +0.000 C 
ENDBRANCH  14  11
ENDBRANCH  18  14
ENDBRANCH   6  18
ENDBRANCH  20  28
TORSDOF 8
ENDMDL
MODEL 2
REMARK VINA RESULT:      -6.4      2.344      3.155
REMARK  Name = 45361703
REMARK  10 active torsions:
REMARK  status: ('A' for Active; 'I' for Inactive)
REMARK    1  A    between atoms: N_6  and  C_18
REMARK    2  A    between atoms: N_7  and  C_19
REMARK    3  A    between atoms: N_10  and  C_38
REMARK    4  A    between atoms: N_10  and  C_39
REMARK    5  A    between atoms: N_10  and  C_40
REMARK    6  A    between atoms: C_11  and  C_14
REMARK    7  A    between atoms: C_14  and  C_18
REMARK    8  A    between atoms: C_18  and  C_31
REMARK    9  A    between atoms: C_20  and  C_28
REMARK   10  A    between atoms: C_32  and  C_33
REMARK                            x       y       z     vdW  Elec       q    Type
REMARK                         _______ _______ _______ _____ _____    ______ ____
ROOT
ATOM      2  O   UNL     1      -2.150 -11.362  14.487  0.00  0.00    -0.253 OA
ATOM      4  O   UNL     1      -6.992 -10.765  19.240  0.00  0.00    -0.270 OA
ATOM      5  N   UNL     1      -4.329 -10.855  15.128  0.00  0.00    -0.271 N 
ATOM      7  N   UNL     1      -3.692 -10.917  12.847  0.00  0.00    -0.296 N 
ATOM      8  N   UNL     1      -6.147 -10.069  17.175  0.00  0.00    -0.294 N 
ATOM     20  C   UNL     1      -4.046 -11.188  16.533  0.00  0.00    +0.181 C 
ATOM     25  C   UNL     1      -4.749 -10.279  17.538  0.00  0.00    +0.140 C 
ATOM     27  C   UNL     1      -5.723 -10.495  14.796  0.00  0.00    +0.129 C 
ATOM     29  C   UNL     1      -6.334  -9.547  15.822  0.00  0.00    +0.127 C 
ATOM     30  C   UNL     1      -3.307 -11.063  14.175  0.00  0.00    +0.303 C 
ATOM     32  C   UNL     1      -7.157 -10.325  18.103  0.00  0.00    +0.247 C 
ATOM     42  H   UNL     1      -4.673 -10.866  12.607  0.00  0.00    +0.151 HD
ENDROOT
BRANCH   7  19
ATOM     19  C   UNL     1      -2.767 -11.110  11.752  0.00  0.00    +0.074 C 
ATOM     21  C   UNL     1      -2.393  -9.771  11.106  0.00  0.00    +0.022 C 
ATOM     22  C   UNL     1      -3.333 -12.087  10.716  0.00  0.00    +0.022 C 
ATOM     23  C   UNL     1      -3.543  -9.171  10.297  0.00  0.00    +0.002 C 
ATOM     24  C   UNL     1      -4.481 -11.483   9.908  0.00  0.00    +0.002 C 
ATOM     26  C   UNL     1      -4.082 -10.158   9.266  0.00  0.00    +0.000 C 
ENDBRANCH   7  19
BRANCH  32  33
ATOM     33  C   UNL     1      -8.547 -10.071  17.701  0.00  0.00    +0.037 A 
ATOM     34  C   UNL     1      -9.348 -11.122  17.254  0.00  0.00    +0.015 A 
ATOM     35  C   UNL     1      -9.065  -8.777  17.763  0.00  0.00    +0.015 A 
ATOM     36  C   UNL     1     -10.666 -10.880  16.871  0.00  0.00    +0.024 A 
ATOM     37  C   UNL     1     -10.384  -8.535  17.379  0.00  0.00    +0.024 A 
ATOM     38  C   UNL     1     -11.185  -9.587  16.934  0.00  0.00    +0.029 A 
BRANCH  38  10
ATOM     10  N   UNL     1     -12.518  -9.341  16.546  0.00  0.00    -0.336 N 
ATOM     39  C   UNL     1     -12.930  -8.015  16.133  0.00  0.00    +0.129 C 
ATOM     40  C   UNL     1     -13.497 -10.410  16.564  0.00  0.00    +0.129 C 
ENDBRANCH  38  10
ENDBRANCH  32  33
BRANCH  20  28
ATOM      1  O   UNL     1      -5.039 -13.009  17.719  0.00  0.00    -0.274 OA
ATOM      6  N   UNL     1      -4.091 -13.409  15.632  0.00  0.00    -0.302 N 
ATOM     28  C   UNL     1      -4.459 -12.621  16.709  0.00  0.00    +0.236 C 
ATOM     41  H   UNL     1      -3.537 -12.997  14.886  0.00  0.00    +0.150 HD
BRANCH   6  18
ATOM     18  C   UNL     1      -4.353 -14.828  15.564  0.00  0.00    +0.159 C 
BRANCH  18  31
ATOM      3  O   UNL     1      -3.211 -16.691  14.499  0.00  0.00    -0.274 OA
ATOM      9  N   UNL     1      -2.206 -14.626  14.463  0.00  0.00    -0.328 N 
ATOM     31  C   UNL     1      -3.226 -15.495  14.785  0.00  0.00    +0.231 C 
ATOM     43  H   UNL     1      -2.222 -13.645  14.721  0.00  0.00    +0.145 HD
ATOM     44  H   UNL     1      -1.391 -14.947  13.951  0.00  0.00    +0.145 HD
ENDBRANCH  18  31
BRANCH  18  14
ATOM     14  C   UNL     1      -5.737 -15.136  14.986  0.00  0.00    +0.035 C 
BRANCH  14  11
ATOM     11  C   UNL     1      -6.400 -13.951  14.285  0.00  0.00    -0.009 C 
ATOM     12  C   UNL     1      -6.276 -14.085  12.761  0.00  0.00    +0.003 C 
ATOM     13  C   UNL     1      -7.871 -13.827  14.705  0.00  0.00    +0.003 C 
ATOM     15  C   UNL     1      -6.979 -12.939  12.037  0.00  0.00    +0.000 C 
ATOM     16  C   UNL     1      -8.570 -12.681  13.978  0.00  0.00    +0.000 C 
ATOM     17  C   UNL     1      -8.438 -12.813  12.463  0.00  0.00    +0.000 C 
ENDBRANCH  14  11
ENDBRANCH  18  14
ENDBRANCH   6  18
ENDBRANCH  20  28
TORSDOF 8
ENDMDL
MODEL 3
REMARK VINA RESULT:      -6.3      2.826      4.167
REMARK  Name = 45361703
REMARK  10 active torsions:
REMARK  status: ('A' for Active; 'I' for Inactive)
REMARK    1  A    between atoms: N_6  and  C_18
REMARK    2  A    between atoms: N_7  and  C_19
REMARK    3  A    between atoms: N_10  and  C_38
REMARK    4  A    between atoms: N_10  and  C_39
REMARK    5  A    between atoms: N_10  and  C_40
REMARK    6  A    between atoms: C_11  and  C_14
REMARK    7  A    between atoms: C_14  and  C_18
REMARK    8  A    between atoms: C_18  and  C_31
REMARK    9  A    between atoms: C_20  and  C_28
REMARK   10  A    between atoms: C_32  and  C_33
REMARK                            x       y       z     vdW  Elec       q    Type
REMARK                         _______ _______ _______ _____ _____    ______ ____
ROOT
ATOM      2  O   UNL     1      -6.132  -9.139  12.550  0.00  0.00    -0.253 OA
ATOM      4  O   UNL     1      -6.290 -10.412  19.238  0.00  0.00    -0.270 OA
ATOM      5  N   UNL     1      -7.075 -10.175  14.408  0.00  0.00    -0.271 N 
ATOM      7  N   UNL     1      -7.820 -10.657  12.212  0.00  0.00    -0.296 N 
ATOM      8  N   UNL     1      -7.468 -10.231  17.229  0.00  0.00    -0.294 N 
ATOM     20  C   UNL     1      -6.062  -9.598  15.306  0.00  0.00    +0.181 C 
ATOM     25  C   UNL     1      -6.605  -9.194  16.674  0.00  0.00    +0.140 C 
ATOM     27  C   UNL     1      -8.044 -11.112  15.013  0.00  0.00    +0.129 C 
ATOM     29  C   UNL     1      -8.575 -10.610  16.351  0.00  0.00    +0.127 C 
ATOM     30  C   UNL     1      -6.954  -9.932  13.022  0.00  0.00    +0.303 C 
ATOM     32  C   UNL     1      -7.224 -10.736  18.506  0.00  0.00    +0.247 C 
ATOM     42  H   UNL     1      -8.342 -11.433  12.596  0.00  0.00    +0.151 HD
ENDROOT
BRANCH   7  19
ATOM     19  C   UNL     1      -7.812 -10.532  10.770  0.00  0.00    +0.074 C 
ATOM     21  C   UNL     1      -8.665  -9.344  10.316  0.00  0.00    +0.022 C 
ATOM     22  C   UNL     1      -8.269 -11.833  10.101  0.00  0.00    +0.022 C 
ATOM     23  C   UNL     1     -10.163  -9.599  10.489  0.00  0.00    +0.002 C 
ATOM     24  C   UNL     1      -9.766 -12.084  10.275  0.00  0.00    +0.002 C 
ATOM     26  C   UNL     1     -10.596 -10.893   9.806  0.00  0.00    +0.000 C 
ENDBRANCH   7  19
BRANCH  32  33
ATOM     33  C   UNL     1      -8.138 -11.758  19.033  0.00  0.00    +0.037 A 
ATOM     34  C   UNL     1      -7.875 -13.110  18.813  0.00  0.00    +0.015 A 
ATOM     35  C   UNL     1      -9.272 -11.376  19.751  0.00  0.00    +0.015 A 
ATOM     36  C   UNL     1      -8.744 -14.080  19.312  0.00  0.00    +0.024 A 
ATOM     37  C   UNL     1     -10.140 -12.346  20.250  0.00  0.00    +0.024 A 
ATOM     38  C   UNL     1      -9.876 -13.698  20.031  0.00  0.00    +0.029 A 
BRANCH  38  10
ATOM     10  N   UNL     1     -10.756 -14.678  20.536  0.00  0.00    -0.336 N 
ATOM     39  C   UNL     1     -11.316 -15.685  19.657  0.00  0.00    +0.129 C 
ATOM     40  C   UNL     1     -11.118 -14.686  21.939  0.00  0.00    +0.129 C 
ENDBRANCH  38  10
ENDBRANCH  32  33
BRANCH  20  28
ATOM      1  O   UNL     1      -5.110 -11.619  16.153  0.00  0.00    -0.274 OA
ATOM      6  N   UNL     1      -3.870 -10.328  14.666  0.00  0.00    -0.302 N 
ATOM     28  C   UNL     1      -4.982 -10.635  15.430  0.00  0.00    +0.236 C 
ATOM     41  H   UNL     1      -3.841  -9.441  14.171  0.00  0.00    +0.150 HD
BRANCH   6  18
ATOM     18  C   UNL     1      -2.685 -11.153  14.628  0.00  0.00    +0.159 C 
BRANCH  18  31
ATOM      3  O   UNL     1      -0.887  -9.574  15.056  0.00  0.00    -0.274 OA
ATOM      9  N   UNL     1      -1.473 -11.043  16.720  0.00  0.00    -0.328 N 
ATOM     31  C   UNL     1      -1.599 -10.489  15.465  0.00  0.00    +0.231 C 
ATOM     43  H   UNL     1      -2.055 -11.812  17.040  0.00  0.00    +0.145 HD
ATOM     44  H   UNL     1      -0.780 -10.697  17.375  0.00  0.00    +0.145 HD
ENDBRANCH  18  31
BRANCH  18  14
ATOM     14  C   UNL     1      -2.230 -11.450  13.195  0.00  0.00    +0.035 C 
BRANCH  14  11
ATOM     11  C   UNL     1      -3.231 -11.026  12.121  0.00  0.00    -0.009 C 
ATOM     12  C   UNL     1      -2.676  -9.860  11.293  0.00  0.00    +0.003 C 
ATOM     13  C   UNL     1      -3.592 -12.214  11.219  0.00  0.00    +0.003 C 
ATOM     15  C   UNL     1      -3.636  -9.453  10.178  0.00  0.00    +0.000 C 
ATOM     16  C   UNL     1      -4.551 -11.803  10.104  0.00  0.00    +0.000 C 
ATOM     17  C   UNL     1      -3.999 -10.637   9.288  0.00  0.00    +0.000 C 
ENDBRANCH  14  11
ENDBRANCH  18  14
ENDBRANCH   6  18
ENDBRANCH  20  28
TORSDOF 8
ENDMDL
MODEL 4
REMARK VINA RESULT:      -6.2     25.544     29.627
REMARK  Name = 45361703
REMARK  10 active torsions:
REMARK  status: ('A' for Active; 'I' for Inactive)
REMARK    1  A    between atoms: N_6  and  C_18
REMARK    2  A    between atoms: N_7  and  C_19
REMARK    3  A    between atoms: N_10  and  C_38
REMARK    4  A    between atoms: N_10  and  C_39
REMARK    5  A    between atoms: N_10  and  C_40
REMARK    6  A    between atoms: C_11  and  C_14
REMARK    7  A    between atoms: C_14  and  C_18
REMARK    8  A    between atoms: C_18  and  C_31
REMARK    9  A    between atoms: C_20  and  C_28
REMARK   10  A    between atoms: C_32  and  C_33
REMARK                            x       y       z     vdW  Elec       q    Type
REMARK                         _______ _______ _______ _____ _____    ______ ____
ROOT
ATOM      2  O   UNL     1       9.389   7.016   2.547  0.00  0.00    -0.253 OA
ATOM      4  O   UNL     1      15.857   7.846   0.581  0.00  0.00    -0.270 OA
ATOM      5  N   UNL     1      11.585   7.655   2.974  0.00  0.00    -0.271 N 
ATOM      7  N   UNL     1       9.958   7.593   4.695  0.00  0.00    -0.296 N 
ATOM      8  N   UNL     1      14.109   8.522   1.977  0.00  0.00    -0.294 N 
ATOM     20  C   UNL     1      12.011   7.279   1.617  0.00  0.00    +0.181 C 
ATOM     25  C   UNL     1      13.057   8.214   1.014  0.00  0.00    +0.140 C 
ATOM     27  C   UNL     1      12.641   8.113   3.900  0.00  0.00    +0.129 C 
ATOM     29  C   UNL     1      13.614   9.081   3.235  0.00  0.00    +0.127 C 
ATOM     30  C   UNL     1      10.248   7.398   3.348  0.00  0.00    +0.303 C 
ATOM     32  C   UNL     1      15.448   8.317   1.642  0.00  0.00    +0.247 C 
ATOM     42  H   UNL     1      10.708   7.714   5.361  0.00  0.00    +0.151 HD
ENDROOT
BRANCH   7  19
ATOM     19  C   UNL     1       8.638   7.360   5.239  0.00  0.00    +0.074 C 
ATOM     21  C   UNL     1       8.284   8.413   6.293  0.00  0.00    +0.022 C 
ATOM     22  C   UNL     1       8.519   5.942   5.808  0.00  0.00    +0.022 C 
ATOM     23  C   UNL     1       9.073   8.231   7.590  0.00  0.00    +0.002 C 
ATOM     24  C   UNL     1       9.308   5.764   7.104  0.00  0.00    +0.002 C 
ATOM     26  C   UNL     1       8.931   6.816   8.142  0.00  0.00    +0.000 C 
ENDBRANCH   7  19
BRANCH  32  33
ATOM     33  C   UNL     1      16.472   8.671   2.633  0.00  0.00    +0.037 A 
ATOM     34  C   UNL     1      17.219   9.839   2.479  0.00  0.00    +0.015 A 
ATOM     35  C   UNL     1      16.701   7.836   3.728  0.00  0.00    +0.015 A 
ATOM     36  C   UNL     1      18.192  10.173   3.419  0.00  0.00    +0.024 A 
ATOM     37  C   UNL     1      17.675   8.172   4.668  0.00  0.00    +0.024 A 
ATOM     38  C   UNL     1      18.421   9.340   4.514  0.00  0.00    +0.029 A 
BRANCH  38  10
ATOM     10  N   UNL     1      19.405   9.677   5.465  0.00  0.00    -0.336 N 
ATOM     39  C   UNL     1      19.499   8.949   6.714  0.00  0.00    +0.129 C 
ATOM     40  C   UNL     1      20.331  10.763   5.210  0.00  0.00    +0.129 C 
ENDBRANCH  38  10
ENDBRANCH  32  33
BRANCH  20  28
ATOM      1  O   UNL     1      12.486   5.244   2.775  0.00  0.00    -0.274 OA
ATOM      6  N   UNL     1      13.058   5.418   0.526  0.00  0.00    -0.302 N 
ATOM     28  C   UNL     1      12.530   5.873   1.722  0.00  0.00    +0.236 C 
ATOM     41  H   UNL     1      13.119   6.058  -0.261  0.00  0.00    +0.150 HD
BRANCH   6  18
ATOM     18  C   UNL     1      13.642   4.106   0.367  0.00  0.00    +0.159 C 
BRANCH  18  31
ATOM      3  O   UNL     1      16.013   4.612   0.193  0.00  0.00    -0.274 OA
ATOM      9  N   UNL     1      15.249   3.590   2.102  0.00  0.00    -0.328 N 
ATOM     31  C   UNL     1      15.085   4.152   0.854  0.00  0.00    +0.231 C 
ATOM     43  H   UNL     1      14.477   3.196   2.631  0.00  0.00    +0.145 HD
ATOM     44  H   UNL     1      16.164   3.549   2.538  0.00  0.00    +0.145 HD
ENDBRANCH  18  31
BRANCH  18  14
ATOM     14  C   UNL     1      13.517   3.585  -1.067  0.00  0.00    +0.035 C 
BRANCH  14  11
ATOM     11  C   UNL     1      12.078   3.340  -1.520  0.00  0.00    -0.009 C 
ATOM     12  C   UNL     1      11.564   4.523  -2.354  0.00  0.00    +0.003 C 
ATOM     13  C   UNL     1      11.975   2.029  -2.311  0.00  0.00    +0.003 C 
ATOM     15  C   UNL     1      10.146   4.277  -2.864  0.00  0.00    +0.000 C 
ATOM     16  C   UNL     1      10.556   1.788  -2.821  0.00  0.00    +0.000 C 
ATOM     17  C   UNL     1      10.045   2.969  -3.641  0.00  0.00    +0.000 C 
ENDBRANCH  14  11
ENDBRANCH  18  14
ENDBRANCH   6  18
ENDBRANCH  20  28
TORSDOF 8
ENDMDL
MODEL 5
REMARK VINA RESULT:      -6.2     24.603     28.381
REMARK  Name = 45361703
REMARK  10 active torsions:
REMARK  status: ('A' for Active; 'I' for Inactive)
REMARK    1  A    between atoms: N_6  and  C_18
REMARK    2  A    between atoms: N_7  and  C_19
REMARK    3  A    between atoms: N_10  and  C_38
REMARK    4  A    between atoms: N_10  and  C_39
REMARK    5  A    between atoms: N_10  and  C_40
REMARK    6  A    between atoms: C_11  and  C_14
REMARK    7  A    between atoms: C_14  and  C_18
REMARK    8  A    between atoms: C_18  and  C_31
REMARK    9  A    between atoms: C_20  and  C_28
REMARK   10  A    between atoms: C_32  and  C_33
REMARK                            x       y       z     vdW  Elec       q    Type
REMARK                         _______ _______ _______ _____ _____    ______ ____
ROOT
ATOM      2  O   UNL     1      12.189   9.537   7.879  0.00  0.00    -0.253 OA
ATOM      4  O   UNL     1       6.329  10.813   4.651  0.00  0.00    -0.270 OA
ATOM      5  N   UNL     1      10.957   9.831   5.927  0.00  0.00    -0.271 N 
ATOM      7  N   UNL     1      13.217   9.125   5.869  0.00  0.00    -0.296 N 
ATOM      8  N   UNL     1       8.663  10.918   4.633  0.00  0.00    -0.294 N 
ATOM     20  C   UNL     1       9.713  10.043   6.685  0.00  0.00    +0.181 C 
ATOM     25  C   UNL     1       8.789  11.095   6.076  0.00  0.00    +0.140 C 
ATOM     27  C   UNL     1      10.842   9.805   4.454  0.00  0.00    +0.129 C 
ATOM     29  C   UNL     1       9.942  10.916   3.924  0.00  0.00    +0.127 C 
ATOM     30  C   UNL     1      12.127   9.503   6.646  0.00  0.00    +0.303 C 
ATOM     32  C   UNL     1       7.401  10.810   4.048  0.00  0.00    +0.247 C 
ATOM     42  H   UNL     1      13.091   8.918   4.888  0.00  0.00    +0.151 HD
ENDROOT
BRANCH   7  19
ATOM     19  C   UNL     1      14.485   8.747   6.454  0.00  0.00    +0.074 C 
ATOM     21  C   UNL     1      15.581   9.753   6.089  0.00  0.00    +0.022 C 
ATOM     22  C   UNL     1      14.879   7.324   6.044  0.00  0.00    +0.022 C 
ATOM     23  C   UNL     1      15.999   9.658   4.622  0.00  0.00    +0.002 C 
ATOM     24  C   UNL     1      15.296   7.232   4.577  0.00  0.00    +0.002 C 
ATOM     26  C   UNL     1      16.396   8.235   4.240  0.00  0.00    +0.000 C 
ENDBRANCH   7  19
BRANCH  32  33
ATOM     33  C   UNL     1       7.325  10.663   2.588  0.00  0.00    +0.037 A 
ATOM     34  C   UNL     1       7.393   9.395   2.010  0.00  0.00    +0.015 A 
ATOM     35  C   UNL     1       7.188  11.792   1.780  0.00  0.00    +0.015 A 
ATOM     36  C   UNL     1       7.322   9.256   0.625  0.00  0.00    +0.024 A 
ATOM     37  C   UNL     1       7.117  11.652   0.394  0.00  0.00    +0.024 A 
ATOM     38  C   UNL     1       7.184  10.384  -0.184  0.00  0.00    +0.029 A 
BRANCH  38  10
ATOM     10  N   UNL     1       7.113  10.244  -1.585  0.00  0.00    -0.336 N 
ATOM     39  C   UNL     1       6.921   8.939  -2.184  0.00  0.00    +0.129 C 
ATOM     40  C   UNL     1       7.238  11.404  -2.445  0.00  0.00    +0.129 C 
ENDBRANCH  38  10
ENDBRANCH  32  33
BRANCH  20  28
ATOM      1  O   UNL     1       7.836   8.570   6.572  0.00  0.00    -0.274 OA
ATOM      6  N   UNL     1       9.930   7.689   7.078  0.00  0.00    -0.302 N 
ATOM     28  C   UNL     1       9.042   8.702   6.760  0.00  0.00    +0.236 C 
ATOM     41  H   UNL     1      10.892   7.928   7.298  0.00  0.00    +0.150 HD
BRANCH   6  18
ATOM     18  C   UNL     1       9.531   6.308   7.234  0.00  0.00    +0.159 C 
BRANCH  18  31
ATOM      3  O   UNL     1      11.825   6.000   7.978  0.00  0.00    -0.274 OA
ATOM      9  N   UNL     1      10.394   4.206   8.069  0.00  0.00    -0.328 N 
ATOM     31  C   UNL     1      10.706   5.522   7.802  0.00  0.00    +0.231 C 
ATOM     43  H   UNL     1       9.470   3.819   7.901  0.00  0.00    +0.145 HD
ATOM     44  H   UNL     1      11.091   3.571   8.443  0.00  0.00    +0.145 HD
ENDBRANCH  18  31
BRANCH  18  14
ATOM     14  C   UNL     1       8.993   5.710   5.930  0.00  0.00    +0.035 C 
BRANCH  14  11
ATOM     11  C   UNL     1       9.918   5.895   4.728  0.00  0.00    -0.009 C 
ATOM     12  C   UNL     1      10.405   4.537   4.206  0.00  0.00    +0.003 C 
ATOM     13  C   UNL     1       9.211   6.686   3.618  0.00  0.00    +0.003 C 
ATOM     15  C   UNL     1      11.289   4.694   2.970  0.00  0.00    +0.000 C 
ATOM     16  C   UNL     1      10.097   6.838   2.384  0.00  0.00    +0.000 C 
ATOM     17  C   UNL     1      10.587   5.487   1.873  0.00  0.00    +0.000 C 
ENDBRANCH  14  11
ENDBRANCH  18  14
ENDBRANCH   6  18
ENDBRANCH  20  28
TORSDOF 8
ENDMDL
MODEL 6
REMARK VINA RESULT:      -6.1      3.333      5.336
REMARK  Name = 45361703
REMARK  10 active torsions:
REMARK  status: ('A' for Active; 'I' for Inactive)
REMARK    1  A    between atoms: N_6  and  C_18
REMARK    2  A    between atoms: N_7  and  C_19
REMARK    3  A    between atoms: N_10  and  C_38
REMARK    4  A    between atoms: N_10  and  C_39
REMARK    5  A    between atoms: N_10  and  C_40
REMARK    6  A    between atoms: C_11  and  C_14
REMARK    7  A    between atoms: C_14  and  C_18
REMARK    8  A    between atoms: C_18  and  C_31
REMARK    9  A    between atoms: C_20  and  C_28
REMARK   10  A    between atoms: C_32  and  C_33
REMARK                            x       y       z     vdW  Elec       q    Type
REMARK                         _______ _______ _______ _____ _____    ______ ____
ROOT
ATOM      2  O   UNL     1      -3.386 -11.852  17.681  0.00  0.00    -0.253 OA
ATOM      4  O   UNL     1      -9.856 -10.342  19.178  0.00  0.00    -0.270 OA
ATOM      5  N   UNL     1      -5.431 -10.881  17.144  0.00  0.00    -0.271 N 
ATOM      7  N   UNL     1      -3.665 -10.996  15.570  0.00  0.00    -0.296 N 
ATOM      8  N   UNL     1      -7.909  -9.778  18.016  0.00  0.00    -0.294 N 
ATOM     20  C   UNL     1      -6.032 -11.326  18.412  0.00  0.00    +0.181 C 
ATOM     25  C   UNL     1      -7.004 -10.321  19.024  0.00  0.00    +0.140 C 
ATOM     27  C   UNL     1      -6.325 -10.194  16.189  0.00  0.00    +0.129 C 
ATOM     29  C   UNL     1      -7.226  -9.172  16.874  0.00  0.00    +0.127 C 
ATOM     30  C   UNL     1      -4.107 -11.280  16.857  0.00  0.00    +0.303 C 
ATOM     32  C   UNL     1      -9.289  -9.830  18.214  0.00  0.00    +0.247 C 
ATOM     42  H   UNL     1      -4.325 -10.709  14.861  0.00  0.00    +0.151 HD
ENDROOT
BRANCH   7  19
ATOM     19  C   UNL     1      -2.339 -11.353  15.116  0.00  0.00    +0.074 C 
ATOM     21  C   UNL     1      -1.778 -10.289  14.166  0.00  0.00    +0.022 C 
ATOM     22  C   UNL     1      -2.335 -12.739  14.462  0.00  0.00    +0.022 C 
ATOM     23  C   UNL     1      -2.468 -10.299  12.803  0.00  0.00    +0.002 C 
ATOM     24  C   UNL     1      -3.025 -12.744  13.099  0.00  0.00    +0.002 C 
ATOM     26  C   UNL     1      -2.442 -11.685  12.168  0.00  0.00    +0.000 C 
ENDBRANCH   7  19
BRANCH  32  33
ATOM     33  C   UNL     1     -10.159  -9.244  17.185  0.00  0.00    +0.037 A 
ATOM     34  C   UNL     1     -10.433  -7.876  17.200  0.00  0.00    +0.015 A 
ATOM     35  C   UNL     1     -10.713 -10.056  16.195  0.00  0.00    +0.015 A 
ATOM     36  C   UNL     1     -11.260  -7.321  16.224  0.00  0.00    +0.024 A 
ATOM     37  C   UNL     1     -11.539  -9.500  15.219  0.00  0.00    +0.024 A 
ATOM     38  C   UNL     1     -11.813  -8.132  15.234  0.00  0.00    +0.029 A 
BRANCH  38  10
ATOM     10  N   UNL     1     -12.650  -7.571  14.247  0.00  0.00    -0.336 N 
ATOM     39  C   UNL     1     -13.836  -6.829  14.625  0.00  0.00    +0.129 C 
ATOM     40  C   UNL     1     -12.339  -7.736  12.841  0.00  0.00    +0.129 C 
ENDBRANCH  38  10
ENDBRANCH  32  33
BRANCH  20  28
ATOM      1  O   UNL     1      -7.729 -12.983  18.700  0.00  0.00    -0.274 OA
ATOM      6  N   UNL     1      -6.049 -13.354  17.133  0.00  0.00    -0.302 N 
ATOM     28  C   UNL     1      -6.712 -12.631  18.110  0.00  0.00    +0.236 C 
ATOM     41  H   UNL     1      -5.166 -13.002  16.773  0.00  0.00    +0.150 HD
BRANCH   6  18
ATOM     18  C   UNL     1      -6.487 -14.652  16.677  0.00  0.00    +0.159 C 
BRANCH  18  31
ATOM      3  O   UNL     1      -5.319 -16.550  15.706  0.00  0.00    -0.274 OA
ATOM      9  N   UNL     1      -4.083 -14.919  16.747  0.00  0.00    -0.328 N 
ATOM     31  C   UNL     1      -5.262 -15.479  16.307  0.00  0.00    +0.231 C 
ATOM     43  H   UNL     1      -4.051 -14.043  17.259  0.00  0.00    +0.145 HD
ATOM     44  H   UNL     1      -3.193 -15.375  16.573  0.00  0.00    +0.145 HD
ENDBRANCH  18  31
BRANCH  18  14
ATOM     14  C   UNL     1      -7.503 -14.554  15.534  0.00  0.00    +0.035 C 
BRANCH  14  11
ATOM     11  C   UNL     1      -7.323 -13.327  14.641  0.00  0.00    -0.009 C 
ATOM     12  C   UNL     1      -6.706 -13.724  13.293  0.00  0.00    +0.003 C 
ATOM     13  C   UNL     1      -8.661 -12.604  14.439  0.00  0.00    +0.003 C 
ATOM     15  C   UNL     1      -6.567 -12.522  12.362  0.00  0.00    +0.000 C 
ATOM     16  C   UNL     1      -8.518 -11.404  13.506  0.00  0.00    +0.000 C 
ATOM     17  C   UNL     1      -7.896 -11.800  12.170  0.00  0.00    +0.000 C 
ENDBRANCH  14  11
ENDBRANCH  18  14
ENDBRANCH   6  18
ENDBRANCH  20  28
TORSDOF 8
ENDMDL
MODEL 7
REMARK VINA RESULT:      -6.0      4.639      7.814
REMARK  Name = 45361703
REMARK  10 active torsions:
REMARK  status: ('A' for Active; 'I' for Inactive)
REMARK    1  A    between atoms: N_6  and  C_18
REMARK    2  A    between atoms: N_7  and  C_19
REMARK    3  A    between atoms: N_10  and  C_38
REMARK    4  A    between atoms: N_10  and  C_39
REMARK    5  A    between atoms: N_10  and  C_40
REMARK    6  A    between atoms: C_11  and  C_14
REMARK    7  A    between atoms: C_14  and  C_18
REMARK    8  A    between atoms: C_18  and  C_31
REMARK    9  A    between atoms: C_20  and  C_28
REMARK   10  A    between atoms: C_32  and  C_33
REMARK                            x       y       z     vdW  Elec       q    Type
REMARK                         _______ _______ _______ _____ _____    ______ ____
ROOT
ATOM      2  O   UNL     1      -7.226 -11.594  19.403  0.00  0.00    -0.253 OA
ATOM      4  O   UNL     1     -13.209  -9.032  17.397  0.00  0.00    -0.270 OA
ATOM      5  N   UNL     1      -8.493 -10.193  18.044  0.00  0.00    -0.271 N 
ATOM      7  N   UNL     1      -6.166 -10.475  17.701  0.00  0.00    -0.296 N 
ATOM      8  N   UNL     1     -10.903  -8.733  17.623  0.00  0.00    -0.294 N 
ATOM     20  C   UNL     1      -9.749 -10.649  18.661  0.00  0.00    +0.181 C 
ATOM     25  C   UNL     1     -10.792  -9.547  18.829  0.00  0.00    +0.140 C 
ATOM     27  C   UNL     1      -8.610  -9.246  16.916  0.00  0.00    +0.129 C 
ATOM     29  C   UNL     1      -9.635  -8.149  17.185  0.00  0.00    +0.127 C 
ATOM     30  C   UNL     1      -7.289 -10.807  18.452  0.00  0.00    +0.303 C 
ATOM     32  C   UNL     1     -12.147  -8.538  17.022  0.00  0.00    +0.247 C 
ATOM     42  H   UNL     1      -6.272  -9.991  16.821  0.00  0.00    +0.151 HD
ENDROOT
BRANCH   7  19
ATOM     19  C   UNL     1      -4.861 -11.031  17.983  0.00  0.00    +0.074 C 
ATOM     21  C   UNL     1      -3.776 -10.332  17.157  0.00  0.00    +0.022 C 
ATOM     22  C   UNL     1      -4.844 -12.546  17.752  0.00  0.00    +0.022 C 
ATOM     23  C   UNL     1      -3.838 -10.701  15.676  0.00  0.00    +0.002 C 
ATOM     24  C   UNL     1      -4.906 -12.912  16.270  0.00  0.00    +0.002 C 
ATOM     26  C   UNL     1      -3.810 -12.213  15.470  0.00  0.00    +0.000 C 
ENDBRANCH   7  19
BRANCH  32  33
ATOM     33  C   UNL     1     -12.212  -7.686  15.827  0.00  0.00    +0.037 A 
ATOM     34  C   UNL     1     -12.244  -8.266  14.558  0.00  0.00    +0.015 A 
ATOM     35  C   UNL     1     -12.239  -6.298  15.960  0.00  0.00    +0.015 A 
ATOM     36  C   UNL     1     -12.305  -7.457  13.424  0.00  0.00    +0.024 A 
ATOM     37  C   UNL     1     -12.299  -5.490  14.825  0.00  0.00    +0.024 A 
ATOM     38  C   UNL     1     -12.332  -6.070  13.557  0.00  0.00    +0.029 A 
BRANCH  38  10
ATOM     10  N   UNL     1     -12.393  -5.251  12.410  0.00  0.00    -0.336 N 
ATOM     39  C   UNL     1     -12.335  -3.808  12.534  0.00  0.00    +0.129 C 
ATOM     40  C   UNL     1     -12.523  -5.841  11.093  0.00  0.00    +0.129 C 
ENDBRANCH  38  10
ENDBRANCH  32  33
BRANCH  20  28
ATOM      1  O   UNL     1     -11.461 -11.968  17.643  0.00  0.00    -0.274 OA
ATOM      6  N   UNL     1      -9.234 -12.481  17.203  0.00  0.00    -0.302 N 
ATOM     28  C   UNL     1     -10.260 -11.756  17.784  0.00  0.00    +0.236 C 
ATOM     41  H   UNL     1      -8.274 -12.269  17.459  0.00  0.00    +0.150 HD
BRANCH   6  18
ATOM     18  C   UNL     1      -9.459 -13.613  16.333  0.00  0.00    +0.159 C 
BRANCH  18  31
ATOM      3  O   UNL     1      -8.108 -15.572  15.840  0.00  0.00    -0.274 OA
ATOM      9  N   UNL     1      -7.818 -14.524  17.862  0.00  0.00    -0.328 N 
ATOM     31  C   UNL     1      -8.398 -14.667  16.620  0.00  0.00    +0.231 C 
ATOM     43  H   UNL     1      -8.080 -13.783  18.505  0.00  0.00    +0.145 HD
ATOM     44  H   UNL     1      -7.101 -15.168  18.180  0.00  0.00    +0.145 HD
ENDBRANCH  18  31
BRANCH  18  14
ATOM     14  C   UNL     1      -9.510 -13.208  14.857  0.00  0.00    +0.035 C 
BRANCH  14  11
ATOM     11  C   UNL     1      -8.802 -11.891  14.544  0.00  0.00    -0.009 C 
ATOM     12  C   UNL     1      -7.483 -12.147  13.802  0.00  0.00    +0.003 C 
ATOM     13  C   UNL     1      -9.716 -10.965  13.730  0.00  0.00    +0.003 C 
ATOM     15  C   UNL     1      -6.784 -10.841  13.431  0.00  0.00    +0.000 C 
ATOM     16  C   UNL     1      -9.013  -9.662  13.359  0.00  0.00    +0.000 C 
ATOM     17  C   UNL     1      -7.698  -9.920  12.629  0.00  0.00    +0.000 C 
ENDBRANCH  14  11
ENDBRANCH  18  14
ENDBRANCH   6  18
ENDBRANCH  20  28
TORSDOF 8
ENDMDL
MODEL 8
REMARK VINA RESULT:      -6.0      4.180      6.984
REMARK  Name = 45361703
REMARK  10 active torsions:
REMARK  status: ('A' for Active; 'I' for Inactive)
REMARK    1  A    between atoms: N_6  and  C_18
REMARK    2  A    between atoms: N_7  and  C_19
REMARK    3  A    between atoms: N_10  and  C_38
REMARK    4  A    between atoms: N_10  and  C_39
REMARK    5  A    between atoms: N_10  and  C_40
REMARK    6  A    between atoms: C_11  and  C_14
REMARK    7  A    between atoms: C_14  and  C_18
REMARK    8  A    between atoms: C_18  and  C_31
REMARK    9  A    between atoms: C_20  and  C_28
REMARK   10  A    between atoms: C_32  and  C_33
REMARK                            x       y       z     vdW  Elec       q    Type
REMARK                         _______ _______ _______ _____ _____    ______ ____
ROOT
ATOM      2  O   UNL     1      -7.612  -7.983   6.891  0.00  0.00    -0.253 OA
ATOM      4  O   UNL     1      -2.928 -11.069  10.753  0.00  0.00    -0.270 OA
ATOM      5  N   UNL     1      -6.857  -8.765   8.949  0.00  0.00    -0.271 N 
ATOM      7  N   UNL     1      -9.045  -7.894   8.683  0.00  0.00    -0.296 N 
ATOM      8  N   UNL     1      -4.676  -9.524  10.616  0.00  0.00    -0.294 N 
ATOM     20  C   UNL     1      -5.620  -9.291   8.350  0.00  0.00    +0.181 C 
ATOM     25  C   UNL     1      -4.388  -9.137   9.238  0.00  0.00    +0.140 C 
ATOM     27  C   UNL     1      -7.069  -9.033  10.386  0.00  0.00    +0.129 C 
ATOM     29  C   UNL     1      -5.804  -8.807  11.208  0.00  0.00    +0.127 C 
ATOM     30  C   UNL     1      -7.823  -8.195   8.090  0.00  0.00    +0.303 C 
ATOM     32  C   UNL     1      -3.876 -10.470  11.258  0.00  0.00    +0.247 C 
ATOM     42  H   UNL     1      -9.261  -8.251   9.603  0.00  0.00    +0.151 HD
ENDROOT
BRANCH   7  19
ATOM     19  C   UNL     1     -10.142  -7.319   7.935  0.00  0.00    +0.074 C 
ATOM     21  C   UNL     1      -9.996  -5.798   7.829  0.00  0.00    +0.022 C 
ATOM     22  C   UNL     1     -11.491  -7.707   8.550  0.00  0.00    +0.022 C 
ATOM     23  C   UNL     1     -10.263  -5.090   9.158  0.00  0.00    +0.002 C 
ATOM     24  C   UNL     1     -11.754  -6.997   9.877  0.00  0.00    +0.002 C 
ATOM     26  C   UNL     1     -11.615  -5.483   9.744  0.00  0.00    +0.000 C 
ENDBRANCH   7  19
BRANCH  32  33
ATOM     33  C   UNL     1      -4.187 -10.805  12.654  0.00  0.00    +0.037 A 
ATOM     34  C   UNL     1      -5.352 -11.509  12.960  0.00  0.00    +0.015 A 
ATOM     35  C   UNL     1      -3.318 -10.418  13.675  0.00  0.00    +0.015 A 
ATOM     36  C   UNL     1      -5.647 -11.826  14.285  0.00  0.00    +0.024 A 
ATOM     37  C   UNL     1      -3.614 -10.736  15.000  0.00  0.00    +0.024 A 
ATOM     38  C   UNL     1      -4.779 -11.440  15.305  0.00  0.00    +0.029 A 
BRANCH  38  10
ATOM     10  N   UNL     1      -5.077 -11.760  16.646  0.00  0.00    -0.336 N 
ATOM     39  C   UNL     1      -5.004 -10.744  17.677  0.00  0.00    +0.129 C 
ATOM     40  C   UNL     1      -5.453 -13.111  17.012  0.00  0.00    +0.129 C 
ENDBRANCH  38  10
ENDBRANCH  32  33
BRANCH  20  28
ATOM      1  O   UNL     1      -7.033 -11.154   7.856  0.00  0.00    -0.274 OA
ATOM      6  N   UNL     1      -4.737 -11.495   8.017  0.00  0.00    -0.302 N 
ATOM     28  C   UNL     1      -5.894 -10.736   8.041  0.00  0.00    +0.236 C 
ATOM     41  H   UNL     1      -3.855 -11.058   8.271  0.00  0.00    +0.150 HD
BRANCH   6  18
ATOM     18  C   UNL     1      -4.730 -12.917   7.765  0.00  0.00    +0.159 C 
BRANCH  18  31
ATOM      3  O   UNL     1      -5.368 -13.479  10.042  0.00  0.00    -0.274 OA
ATOM      9  N   UNL     1      -3.519 -14.498   9.141  0.00  0.00    -0.328 N 
ATOM     31  C   UNL     1      -4.603 -13.649   9.095  0.00  0.00    +0.231 C 
ATOM     43  H   UNL     1      -2.883 -14.616   8.358  0.00  0.00    +0.145 HD
ATOM     44  H   UNL     1      -3.316 -15.040   9.975  0.00  0.00    +0.145 HD
ENDBRANCH  18  31
BRANCH  18  14
ATOM     14  C   UNL     1      -3.647 -13.323   6.760  0.00  0.00    +0.035 C 
BRANCH  14  11
ATOM     11  C   UNL     1      -3.809 -12.691   5.378  0.00  0.00    -0.009 C 
ATOM     12  C   UNL     1      -2.653 -13.104   4.456  0.00  0.00    +0.003 C 
ATOM     13  C   UNL     1      -5.162 -13.073   4.763  0.00  0.00    +0.003 C 
ATOM     15  C   UNL     1      -2.821 -12.528   3.052  0.00  0.00    +0.000 C 
ATOM     16  C   UNL     1      -5.325 -12.497   3.358  0.00  0.00    +0.000 C 
ATOM     17  C   UNL     1      -4.170 -12.902   2.447  0.00  0.00    +0.000 C 
ENDBRANCH  14  11
ENDBRANCH  18  14
ENDBRANCH   6  18
ENDBRANCH  20  28
TORSDOF 8
ENDMDL
MODEL 9
REMARK VINA RESULT:      -6.0     24.486     28.836
REMARK  Name = 45361703
REMARK  10 active torsions:
REMARK  status: ('A' for Active; 'I' for Inactive)
REMARK    1  A    between atoms: N_6  and  C_18
REMARK    2  A    between atoms: N_7  and  C_19
REMARK    3  A    between atoms: N_10  and  C_38
REMARK    4  A    between atoms: N_10  and  C_39
REMARK    5  A    between atoms: N_10  and  C_40
REMARK    6  A    between atoms: C_11  and  C_14
REMARK    7  A    between atoms: C_14  and  C_18
REMARK    8  A    between atoms: C_18  and  C_31
REMARK    9  A    between atoms: C_20  and  C_28
REMARK   10  A    between atoms: C_32  and  C_33
REMARK                            x       y       z     vdW  Elec       q    Type
REMARK                         _______ _______ _______ _____ _____    ______ ____
ROOT
ATOM      2  O   UNL     1      19.926 -13.671   2.244  0.00  0.00    -0.253 OA
ATOM      4  O   UNL     1      21.407  -8.920  -2.405  0.00  0.00    -0.270 OA
ATOM      5  N   UNL     1      19.343 -11.816   0.966  0.00  0.00    -0.271 N 
ATOM      7  N   UNL     1      17.908 -12.656   2.653  0.00  0.00    -0.296 N 
ATOM      8  N   UNL     1      19.775 -10.224  -1.357  0.00  0.00    -0.294 N 
ATOM     20  C   UNL     1      20.677 -11.763   0.345  0.00  0.00    +0.181 C 
ATOM     25  C   UNL     1      20.659 -11.363  -1.128  0.00  0.00    +0.140 C 
ATOM     27  C   UNL     1      18.400 -10.737   0.608  0.00  0.00    +0.129 C 
ATOM     29  C   UNL     1      18.407 -10.434  -0.886  0.00  0.00    +0.127 C 
ATOM     30  C   UNL     1      19.115 -12.780   1.972  0.00  0.00    +0.303 C 
ATOM     32  C   UNL     1      20.253  -9.089  -2.012  0.00  0.00    +0.247 C 
ATOM     42  H   UNL     1      17.355 -11.816   2.551  0.00  0.00    +0.151 HD
ENDROOT
BRANCH   7  19
ATOM     19  C   UNL     1      17.531 -13.556   3.721  0.00  0.00    +0.074 C 
ATOM     21  C   UNL     1      16.366 -14.456   3.295  0.00  0.00    +0.022 C 
ATOM     22  C   UNL     1      17.198 -12.783   5.002  0.00  0.00    +0.022 C 
ATOM     23  C   UNL     1      15.045 -13.694   3.196  0.00  0.00    +0.002 C 
ATOM     24  C   UNL     1      15.876 -12.025   4.899  0.00  0.00    +0.002 C 
ATOM     26  C   UNL     1      14.729 -12.942   4.485  0.00  0.00    +0.000 C 
ENDBRANCH   7  19
BRANCH  32  33
ATOM     33  C   UNL     1      19.318  -7.980  -2.245  0.00  0.00    +0.037 A 
ATOM     34  C   UNL     1      18.362  -8.075  -3.257  0.00  0.00    +0.015 A 
ATOM     35  C   UNL     1      19.389  -6.830  -1.458  0.00  0.00    +0.015 A 
ATOM     36  C   UNL     1      17.476  -7.021  -3.479  0.00  0.00    +0.024 A 
ATOM     37  C   UNL     1      18.502  -5.777  -1.681  0.00  0.00    +0.024 A 
ATOM     38  C   UNL     1      17.546  -5.873  -2.692  0.00  0.00    +0.029 A 
BRANCH  38  10
ATOM     10  N   UNL     1      16.650  -4.806  -2.916  0.00  0.00    -0.336 N 
ATOM     39  C   UNL     1      15.350  -5.052  -3.508  0.00  0.00    +0.129 C 
ATOM     40  C   UNL     1      17.021  -3.450  -2.566  0.00  0.00    +0.129 C 
ENDBRANCH  38  10
ENDBRANCH  32  33
BRANCH  20  28
ATOM      1  O   UNL     1      22.322 -10.059   0.661  0.00  0.00    -0.274 OA
ATOM      6  N   UNL     1      21.152 -10.852   2.511  0.00  0.00    -0.302 N 
ATOM     28  C   UNL     1      21.476 -10.792   1.166  0.00  0.00    +0.236 C 
ATOM     41  H   UNL     1      20.495 -11.559   2.829  0.00  0.00    +0.150 HD
BRANCH   6  18
ATOM     18  C   UNL     1      21.793 -10.036   3.516  0.00  0.00    +0.159 C 
BRANCH  18  31
ATOM      3  O   UNL     1      22.393 -10.404   5.842  0.00  0.00    -0.274 OA
ATOM      9  N   UNL     1      21.328 -12.091   4.706  0.00  0.00    -0.328 N 
ATOM     31  C   UNL     1      21.872 -10.830   4.813  0.00  0.00    +0.231 C 
ATOM     43  H   UNL     1      20.917 -12.438   3.844  0.00  0.00    +0.145 HD
ATOM     44  H   UNL     1      21.324 -12.726   5.497  0.00  0.00    +0.145 HD
ENDBRANCH  18  31
BRANCH  18  14
ATOM     14  C   UNL     1      21.101  -8.681   3.690  0.00  0.00    +0.035 C 
BRANCH  14  11
ATOM     11  C   UNL     1      21.791  -7.527   2.964  0.00  0.00    -0.009 C 
ATOM     12  C   UNL     1      20.840  -6.880   1.949  0.00  0.00    +0.003 C 
ATOM     13  C   UNL     1      22.308  -6.488   3.968  0.00  0.00    +0.003 C 
ATOM     15  C   UNL     1      21.490  -5.689   1.248  0.00  0.00    +0.000 C 
ATOM     16  C   UNL     1      22.956  -5.298   3.264  0.00  0.00    +0.000 C 
ATOM     17  C   UNL     1      22.010  -4.662   2.248  0.00  0.00    +0.000 C 
ENDBRANCH  14  11
ENDBRANCH  18  14
ENDBRANCH   6  18
ENDBRANCH  20  28
TORSDOF 8
ENDMDL
MODEL 10
REMARK VINA RESULT:      -5.8     25.573     28.344
REMARK  Name = 45361703
REMARK  10 active torsions:
REMARK  status: ('A' for Active; 'I' for Inactive)
REMARK    1  A    between atoms: N_6  and  C_18
REMARK    2  A    between atoms: N_7  and  C_19
REMARK    3  A    between atoms: N_10  and  C_38
REMARK    4  A    between atoms: N_10  and  C_39
REMARK    5  A    between atoms: N_10  and  C_40
REMARK    6  A    between atoms: C_11  and  C_14
REMARK    7  A    between atoms: C_14  and  C_18
REMARK    8  A    between atoms: C_18  and  C_31
REMARK    9  A    between atoms: C_20  and  C_28
REMARK   10  A    between atoms: C_32  and  C_33
REMARK                            x       y       z     vdW  Elec       q    Type
REMARK                         _______ _______ _______ _____ _____    ______ ____
ROOT
ATOM      2  O   UNL     1      19.616  -5.358  25.976  0.00  0.00    -0.253 OA
ATOM      4  O   UNL     1      20.052  -3.214  32.426  0.00  0.00    -0.270 OA
ATOM      5  N   UNL     1      19.192  -3.783  27.636  0.00  0.00    -0.271 N 
ATOM      7  N   UNL     1      18.282  -3.563  25.460  0.00  0.00    -0.296 N 
ATOM      8  N   UNL     1      19.878  -2.660  30.163  0.00  0.00    -0.294 N 
ATOM     20  C   UNL     1      19.842  -4.615  28.661  0.00  0.00    +0.181 C 
ATOM     25  C   UNL     1      20.633  -3.818  29.696  0.00  0.00    +0.140 C 
ATOM     27  C   UNL     1      18.559  -2.530  28.099  0.00  0.00    +0.129 C 
ATOM     29  C   UNL     1      19.435  -1.771  29.090  0.00  0.00    +0.127 C 
ATOM     30  C   UNL     1      19.071  -4.307  26.330  0.00  0.00    +0.303 C 
ATOM     32  C   UNL     1      19.675  -2.462  31.529  0.00  0.00    +0.247 C 
ATOM     42  H   UNL     1      17.694  -2.823  25.819  0.00  0.00    +0.151 HD
ENDROOT
BRANCH   7  19
ATOM     19  C   UNL     1      18.047  -3.973  24.093  0.00  0.00    +0.074 C 
ATOM     21  C   UNL     1      18.635  -2.958  23.107  0.00  0.00    +0.022 C 
ATOM     22  C   UNL     1      16.554  -4.199  23.833  0.00  0.00    +0.022 C 
ATOM     23  C   UNL     1      17.839  -1.653  23.067  0.00  0.00    +0.002 C 
ATOM     24  C   UNL     1      15.763  -2.893  23.793  0.00  0.00    +0.002 C 
ATOM     26  C   UNL     1      16.359  -1.903  22.797  0.00  0.00    +0.000 C 
ENDBRANCH   7  19
BRANCH  32  33
ATOM     33  C   UNL     1      18.934  -1.266  31.952  0.00  0.00    +0.037 A 
ATOM     34  C   UNL     1      17.551  -1.325  32.119  0.00  0.00    +0.015 A 
ATOM     35  C   UNL     1      19.615  -0.070  32.184  0.00  0.00    +0.015 A 
ATOM     36  C   UNL     1      16.848  -0.189  32.519  0.00  0.00    +0.024 A 
ATOM     37  C   UNL     1      18.911   1.066  32.585  0.00  0.00    +0.024 A 
ATOM     38  C   UNL     1      17.527   1.006  32.752  0.00  0.00    +0.029 A 
BRANCH  38  10
ATOM     10  N   UNL     1      16.817   2.155  33.157  0.00  0.00    -0.336 N 
ATOM     39  C   UNL     1      16.580   2.415  34.563  0.00  0.00    +0.129 C 
ATOM     40  C   UNL     1      16.308   3.088  32.171  0.00  0.00    +0.129 C 
ENDBRANCH  38  10
ENDBRANCH  32  33
BRANCH  20  28
ATOM      1  O   UNL     1      18.626  -5.482  30.526  0.00  0.00    -0.274 OA
ATOM      6  N   UNL     1      17.931  -6.033  28.375  0.00  0.00    -0.302 N 
ATOM     28  C   UNL     1      18.742  -5.409  29.306  0.00  0.00    +0.236 C 
ATOM     41  H   UNL     1      18.174  -5.972  27.390  0.00  0.00    +0.150 HD
BRANCH   6  18
ATOM     18  C   UNL     1      16.814  -6.875  28.737  0.00  0.00    +0.159 C 
BRANCH  18  31
ATOM      3  O   UNL     1      16.046  -9.036  27.931  0.00  0.00    -0.274 OA
ATOM      9  N   UNL     1      17.549  -7.862  26.653  0.00  0.00    -0.328 N 
ATOM     31  C   UNL     1      16.737  -8.034  27.752  0.00  0.00    +0.231 C 
ATOM     43  H   UNL     1      18.130  -7.038  26.525  0.00  0.00    +0.145 HD
ATOM     44  H   UNL     1      17.597  -8.567  25.924  0.00  0.00    +0.145 HD
ENDBRANCH  18  31
BRANCH  18  14
ATOM     14  C   UNL     1      15.503  -6.089  28.831  0.00  0.00    +0.035 C 
BRANCH  14  11
ATOM     11  C   UNL     1      14.950  -5.963  30.251  0.00  0.00    -0.009 C 
ATOM     12  C   UNL     1      15.110  -4.526  30.768  0.00  0.00    +0.003 C 
ATOM     13  C   UNL     1      13.480  -6.401  30.300  0.00  0.00    +0.003 C 
ATOM     15  C   UNL     1      14.516  -4.362  32.165  0.00  0.00    +0.000 C 
ATOM     16  C   UNL     1      12.890  -6.233  31.698  0.00  0.00    +0.000 C 
ATOM     17  C   UNL     1      13.058  -4.807  32.213  0.00  0.00    +0.000 C 
ENDBRANCH  14  11
ENDBRANCH  18  14
ENDBRANCH   6  18
ENDBRANCH  20  28
TORSDOF 8
ENDMDL
