MODEL 1
REMARK VINA RESULT:      -7.4      0.000      0.000
REMARK  Name = 51137943
REMARK  3 active torsions:
REMARK  status: ('A' for Active; 'I' for Inactive)
REMARK    1  A    between atoms: C_11  and  C_15
REMARK    2  A    between atoms: C_17  and  C_19
REMARK    3  A    between atoms: C_18  and  C_22
REMARK                            x       y       z     vdW  Elec       q    Type
REMARK                         _______ _______ _______ _____ _____    ______ ____
ROOT
ATOM      6  N   UNL     1     -17.036   1.901  28.152  0.00  0.00    -0.299 N 
ATOM      8  N   UNL     1     -15.380   2.473  29.670  0.00  0.00    -0.210 NA
ATOM      9  N   UNL     1     -16.139   0.197  29.442  0.00  0.00    -0.223 NA
ATOM     11  C   UNL     1     -18.055   3.167  26.419  0.00  0.00    +0.095 C 
ATOM     12  C   UNL     1     -18.897   1.921  26.709  0.00  0.00    +0.033 C 
ATOM     13  C   UNL     1     -17.190   3.281  27.689  0.00  0.00    +0.121 C 
ATOM     14  C   UNL     1     -17.943   0.990  27.459  0.00  0.00    +0.109 C 
ATOM     16  C   UNL     1     -16.147   1.507  29.130  0.00  0.00    +0.218 A 
ATOM     18  C   UNL     1     -14.522   2.053  30.623  0.00  0.00    +0.149 A 
ATOM     20  C   UNL     1     -15.258  -0.154  30.402  0.00  0.00    +0.116 A 
ATOM     21  C   UNL     1     -14.417   0.740  31.034  0.00  0.00    +0.052 A 
ENDROOT
BRANCH  11  15
ATOM      5  O   UNL     1     -16.821   4.197  24.563  0.00  0.00    -0.420 OA
ATOM      7  N   UNL     1     -17.065   1.982  24.374  0.00  0.00    -0.112 NA
ATOM     10  N   UNL     1     -16.360   2.430  23.272  0.00  0.00    -0.107 NA
ATOM     15  C   UNL     1     -17.313   3.047  25.099  0.00  0.00    +0.222 A 
ATOM     17  C   UNL     1     -16.241   3.728  23.425  0.00  0.00    +0.251 A 
BRANCH  17  19
ATOM      4  F   UNL     1     -13.593   4.543  23.849  0.00  0.00    -0.205 F 
ATOM     19  C   UNL     1     -15.606   4.710  22.594  0.00  0.00    +0.074 A 
ATOM     23  C   UNL     1     -14.286   5.089  22.839  0.00  0.00    +0.136 A 
ATOM     24  C   UNL     1     -16.313   5.287  21.539  0.00  0.00    +0.016 A 
ATOM     25  C   UNL     1     -13.673   6.044  22.029  0.00  0.00    +0.039 A 
ATOM     26  C   UNL     1     -15.700   6.243  20.730  0.00  0.00    +0.001 A 
ATOM     27  C   UNL     1     -14.380   6.622  20.974  0.00  0.00    +0.003 A 
ENDBRANCH  17  19
ENDBRANCH  11  15
BRANCH  18  22
ATOM      1  F   UNL     1     -14.259   4.312  31.316  0.00  0.00    -0.164 F 
ATOM      2  F   UNL     1     -13.283   2.795  32.529  0.00  0.00    -0.164 F 
ATOM      3  F   UNL     1     -12.481   3.301  30.578  0.00  0.00    -0.164 F 
ATOM     22  C   UNL     1     -13.653   3.091  31.248  0.00  0.00    +0.434 C 
ENDBRANCH  18  22
TORSDOF 3
ENDMDL
MODEL 2
REMARK VINA RESULT:      -7.1     34.387     36.281
REMARK  Name = 51137943
REMARK  3 active torsions:
REMARK  status: ('A' for Active; 'I' for Inactive)
REMARK    1  A    between atoms: C_11  and  C_15
REMARK    2  A    between atoms: C_17  and  C_19
REMARK    3  A    between atoms: C_18  and  C_22
REMARK                            x       y       z     vdW  Elec       q    Type
REMARK                         _______ _______ _______ _____ _____    ______ ____
ROOT
ATOM      6  N   UNL     1      21.611   5.429  22.155  0.00  0.00    -0.299 N 
ATOM      8  N   UNL     1      23.017   3.659  21.643  0.00  0.00    -0.210 NA
ATOM      9  N   UNL     1      22.195   3.998  23.882  0.00  0.00    -0.223 NA
ATOM     11  C   UNL     1      20.491   6.977  20.743  0.00  0.00    +0.095 C 
ATOM     12  C   UNL     1      20.483   7.496  22.183  0.00  0.00    +0.033 C 
ATOM     13  C   UNL     1      21.618   5.927  20.778  0.00  0.00    +0.121 C 
ATOM     14  C   UNL     1      20.788   6.260  23.029  0.00  0.00    +0.109 C 
ATOM     16  C   UNL     1      22.304   4.314  22.578  0.00  0.00    +0.218 A 
ATOM     18  C   UNL     1      23.682   2.574  22.090  0.00  0.00    +0.149 A 
ATOM     20  C   UNL     1      22.886   2.903  24.262  0.00  0.00    +0.116 A 
ATOM     21  C   UNL     1      23.654   2.145  23.401  0.00  0.00    +0.052 A 
ENDROOT
BRANCH  11  15
ATOM      5  O   UNL     1      18.050   7.242  20.695  0.00  0.00    -0.420 OA
ATOM      7  N   UNL     1      18.787   5.420  19.627  0.00  0.00    -0.112 NA
ATOM     10  N   UNL     1      17.409   5.447  19.524  0.00  0.00    -0.107 NA
ATOM     15  C   UNL     1      19.117   6.486  20.318  0.00  0.00    +0.222 A 
ATOM     17  C   UNL     1      17.021   6.527  20.162  0.00  0.00    +0.251 A 
BRANCH  17  19
ATOM      4  F   UNL     1      15.220   6.939  18.055  0.00  0.00    -0.205 F 
ATOM     19  C   UNL     1      15.708   7.061  20.379  0.00  0.00    +0.074 A 
ATOM     23  C   UNL     1      14.841   7.251  19.303  0.00  0.00    +0.136 A 
ATOM     24  C   UNL     1      15.299   7.391  21.671  0.00  0.00    +0.016 A 
ATOM     25  C   UNL     1      13.566   7.771  19.519  0.00  0.00    +0.039 A 
ATOM     26  C   UNL     1      14.023   7.910  21.887  0.00  0.00    +0.001 A 
ATOM     27  C   UNL     1      13.156   8.101  20.811  0.00  0.00    +0.003 A 
ENDBRANCH  17  19
ENDBRANCH  11  15
BRANCH  18  22
ATOM      1  F   UNL     1      24.118   0.505  21.002  0.00  0.00    -0.164 F 
ATOM      2  F   UNL     1      24.378   2.310  19.817  0.00  0.00    -0.164 F 
ATOM      3  F   UNL     1      25.824   1.806  21.353  0.00  0.00    -0.164 F 
ATOM     22  C   UNL     1      24.485   1.817  21.087  0.00  0.00    +0.434 C 
ENDBRANCH  18  22
TORSDOF 3
ENDMDL
MODEL 3
REMARK VINA RESULT:      -7.1     21.569     23.860
REMARK  Name = 51137943
REMARK  3 active torsions:
REMARK  status: ('A' for Active; 'I' for Inactive)
REMARK    1  A    between atoms: C_11  and  C_15
REMARK    2  A    between atoms: C_17  and  C_19
REMARK    3  A    between atoms: C_18  and  C_22
REMARK                            x       y       z     vdW  Elec       q    Type
REMARK                         _______ _______ _______ _____ _____    ______ ____
ROOT
ATOM      6  N   UNL     1      -3.667 -12.433  12.034  0.00  0.00    -0.299 N 
ATOM      8  N   UNL     1      -4.305 -10.874  10.442  0.00  0.00    -0.210 NA
ATOM      9  N   UNL     1      -5.810 -12.611  11.169  0.00  0.00    -0.223 NA
ATOM     11  C   UNL     1      -1.744 -12.527  13.427  0.00  0.00    +0.095 C 
ATOM     12  C   UNL     1      -2.440 -13.892  13.417  0.00  0.00    +0.033 C 
ATOM     13  C   UNL     1      -2.330 -11.851  12.172  0.00  0.00    +0.121 C 
ATOM     14  C   UNL     1      -3.848 -13.591  12.905  0.00  0.00    +0.109 C 
ATOM     16  C   UNL     1      -4.635 -11.952  11.179  0.00  0.00    +0.218 A 
ATOM     18  C   UNL     1      -5.276 -10.430   9.617  0.00  0.00    +0.149 A 
ATOM     20  C   UNL     1      -6.734 -12.114  10.321  0.00  0.00    +0.116 A 
ATOM     21  C   UNL     1      -6.521 -11.015   9.512  0.00  0.00    +0.052 A 
ENDROOT
BRANCH  11  15
ATOM      5  O   UNL     1      -3.178 -11.904  15.320  0.00  0.00    -0.420 OA
ATOM      7  N   UNL     1      -1.103 -11.079  15.442  0.00  0.00    -0.112 NA
ATOM     10  N   UNL     1      -1.797 -10.656  16.560  0.00  0.00    -0.107 NA
ATOM     15  C   UNL     1      -1.948 -11.804  14.747  0.00  0.00    +0.222 A 
ATOM     17  C   UNL     1      -3.004 -11.161  16.447  0.00  0.00    +0.251 A 
BRANCH  17  19
ATOM      4  F   UNL     1      -5.253  -9.641  15.750  0.00  0.00    -0.205 F 
ATOM     19  C   UNL     1      -4.144 -11.052  17.310  0.00  0.00    +0.074 A 
ATOM     23  C   UNL     1      -5.244 -10.284  16.926  0.00  0.00    +0.136 A 
ATOM     24  C   UNL     1      -4.151 -11.716  18.537  0.00  0.00    +0.016 A 
ATOM     25  C   UNL     1      -6.349 -10.181  17.769  0.00  0.00    +0.039 A 
ATOM     26  C   UNL     1      -5.257 -11.612  19.379  0.00  0.00    +0.001 A 
ATOM     27  C   UNL     1      -6.357 -10.845  18.996  0.00  0.00    +0.003 A 
ENDBRANCH  17  19
ENDBRANCH  11  15
BRANCH  18  22
ATOM      1  F   UNL     1      -3.664  -8.817   8.942  0.00  0.00    -0.164 F 
ATOM      2  F   UNL     1      -5.105  -9.449   7.442  0.00  0.00    -0.164 F 
ATOM      3  F   UNL     1      -5.729  -8.147   9.060  0.00  0.00    -0.164 F 
ATOM     22  C   UNL     1      -4.953  -9.237   8.783  0.00  0.00    +0.434 C 
ENDBRANCH  18  22
TORSDOF 3
ENDMDL
MODEL 4
REMARK VINA RESULT:      -7.1      3.034      4.784
REMARK  Name = 51137943
REMARK  3 active torsions:
REMARK  status: ('A' for Active; 'I' for Inactive)
REMARK    1  A    between atoms: C_11  and  C_15
REMARK    2  A    between atoms: C_17  and  C_19
REMARK    3  A    between atoms: C_18  and  C_22
REMARK                            x       y       z     vdW  Elec       q    Type
REMARK                         _______ _______ _______ _____ _____    ______ ____
ROOT
ATOM      6  N   UNL     1     -16.440   3.982  24.056  0.00  0.00    -0.299 N 
ATOM      8  N   UNL     1     -16.227   3.635  26.338  0.00  0.00    -0.210 NA
ATOM      9  N   UNL     1     -16.713   1.816  24.834  0.00  0.00    -0.223 NA
ATOM     11  C   UNL     1     -15.973   5.897  22.729  0.00  0.00    +0.095 C 
ATOM     12  C   UNL     1     -16.833   4.915  21.929  0.00  0.00    +0.033 C 
ATOM     13  C   UNL     1     -16.190   5.420  24.178  0.00  0.00    +0.121 C 
ATOM     14  C   UNL     1     -16.672   3.587  22.669  0.00  0.00    +0.109 C 
ATOM     16  C   UNL     1     -16.461   3.107  25.121  0.00  0.00    +0.218 A 
ATOM     18  C   UNL     1     -16.254   2.752  27.357  0.00  0.00    +0.149 A 
ATOM     20  C   UNL     1     -16.727   0.988  25.899  0.00  0.00    +0.116 A 
ATOM     21  C   UNL     1     -16.502   1.404  27.196  0.00  0.00    +0.052 A 
ENDROOT
BRANCH  11  15
ATOM      5  O   UNL     1     -14.185   6.962  21.427  0.00  0.00    -0.420 OA
ATOM      7  N   UNL     1     -13.562   5.074  22.452  0.00  0.00    -0.112 NA
ATOM     10  N   UNL     1     -12.470   5.565  21.760  0.00  0.00    -0.107 NA
ATOM     15  C   UNL     1     -14.539   5.921  22.228  0.00  0.00    +0.222 A 
ATOM     17  C   UNL     1     -12.879   6.668  21.177  0.00  0.00    +0.251 A 
BRANCH  17  19
ATOM      4  F   UNL     1     -12.488   9.344  21.913  0.00  0.00    -0.205 F 
ATOM     19  C   UNL     1     -12.178   7.592  20.335  0.00  0.00    +0.074 A 
ATOM     23  C   UNL     1     -12.005   8.917  20.737  0.00  0.00    +0.136 A 
ATOM     24  C   UNL     1     -11.669   7.165  19.108  0.00  0.00    +0.016 A 
ATOM     25  C   UNL     1     -11.323   9.812  19.914  0.00  0.00    +0.039 A 
ATOM     26  C   UNL     1     -10.988   8.060  18.286  0.00  0.00    +0.001 A 
ATOM     27  C   UNL     1     -10.814   9.385  18.687  0.00  0.00    +0.003 A 
ENDBRANCH  17  19
ENDBRANCH  11  15
BRANCH  18  22
ATOM      1  F   UNL     1     -16.775   2.701  29.676  0.00  0.00    -0.164 F 
ATOM      2  F   UNL     1     -14.711   3.130  29.145  0.00  0.00    -0.164 F 
ATOM      3  F   UNL     1     -16.242   4.634  28.834  0.00  0.00    -0.164 F 
ATOM     22  C   UNL     1     -15.999   3.294  28.722  0.00  0.00    +0.434 C 
ENDBRANCH  18  22
TORSDOF 3
ENDMDL
MODEL 5
REMARK VINA RESULT:      -7.1     16.150     17.459
REMARK  Name = 51137943
REMARK  3 active torsions:
REMARK  status: ('A' for Active; 'I' for Inactive)
REMARK    1  A    between atoms: C_11  and  C_15
REMARK    2  A    between atoms: C_17  and  C_19
REMARK    3  A    between atoms: C_18  and  C_22
REMARK                            x       y       z     vdW  Elec       q    Type
REMARK                         _______ _______ _______ _____ _____    ______ ____
ROOT
ATOM      6  N   UNL     1      -8.360  -9.882  15.314  0.00  0.00    -0.299 N 
ATOM      8  N   UNL     1      -7.251 -10.381  17.287  0.00  0.00    -0.210 NA
ATOM      9  N   UNL     1      -6.045  -9.970  15.242  0.00  0.00    -0.223 NA
ATOM     11  C   UNL     1     -10.647  -9.383  14.905  0.00  0.00    +0.095 C 
ATOM     12  C   UNL     1      -9.949  -9.716  13.583  0.00  0.00    +0.033 C 
ATOM     13  C   UNL     1      -9.677  -9.975  15.946  0.00  0.00    +0.121 C 
ATOM     14  C   UNL     1      -8.461  -9.555  13.894  0.00  0.00    +0.109 C 
ATOM     16  C   UNL     1      -7.168 -10.086  15.976  0.00  0.00    +0.218 A 
ATOM     18  C   UNL     1      -6.067 -10.574  17.903  0.00  0.00    +0.149 A 
ATOM     20  C   UNL     1      -4.897 -10.176  15.920  0.00  0.00    +0.116 A 
ATOM     21  C   UNL     1      -4.847 -10.485  17.265  0.00  0.00    +0.052 A 
ENDROOT
BRANCH  11  15
ATOM      5  O   UNL     1     -11.818  -7.374  14.116  0.00  0.00    -0.420 OA
ATOM      7  N   UNL     1     -10.488  -7.018  15.878  0.00  0.00    -0.112 NA
ATOM     10  N   UNL     1     -11.080  -5.815  15.540  0.00  0.00    -0.107 NA
ATOM     15  C   UNL     1     -10.947  -7.899  15.021  0.00  0.00    +0.222 A 
ATOM     17  C   UNL     1     -11.848  -6.071  14.506  0.00  0.00    +0.251 A 
BRANCH  17  19
ATOM      4  F   UNL     1     -14.641  -6.162  14.720  0.00  0.00    -0.205 F 
ATOM     19  C   UNL     1     -12.696  -5.206  13.739  0.00  0.00    +0.074 A 
ATOM     23  C   UNL     1     -14.083  -5.283  13.874  0.00  0.00    +0.136 A 
ATOM     24  C   UNL     1     -12.132  -4.286  12.855  0.00  0.00    +0.016 A 
ATOM     25  C   UNL     1     -14.904  -4.441  13.126  0.00  0.00    +0.039 A 
ATOM     26  C   UNL     1     -12.954  -3.444  12.107  0.00  0.00    +0.001 A 
ATOM     27  C   UNL     1     -14.340  -3.521  12.241  0.00  0.00    +0.003 A 
ENDBRANCH  17  19
ENDBRANCH  11  15
BRANCH  18  22
ATOM      1  F   UNL     1      -6.279  -9.798  20.140  0.00  0.00    -0.164 F 
ATOM      2  F   UNL     1      -7.131 -11.748  19.695  0.00  0.00    -0.164 F 
ATOM      3  F   UNL     1      -4.979 -11.511  19.817  0.00  0.00    -0.164 F 
ATOM     22  C   UNL     1      -6.113 -10.903  19.357  0.00  0.00    +0.434 C 
ENDBRANCH  18  22
TORSDOF 3
ENDMDL
MODEL 6
REMARK VINA RESULT:      -7.0     32.124     35.709
REMARK  Name = 51137943
REMARK  3 active torsions:
REMARK  status: ('A' for Active; 'I' for Inactive)
REMARK    1  A    between atoms: C_11  and  C_15
REMARK    2  A    between atoms: C_17  and  C_19
REMARK    3  A    between atoms: C_18  and  C_22
REMARK                            x       y       z     vdW  Elec       q    Type
REMARK                         _______ _______ _______ _____ _____    ______ ____
ROOT
ATOM      6  N   UNL     1      10.859   7.118   4.333  0.00  0.00    -0.299 N 
ATOM      8  N   UNL     1      10.277   6.301   6.423  0.00  0.00    -0.210 NA
ATOM      9  N   UNL     1       9.274   8.305   5.538  0.00  0.00    -0.223 NA
ATOM     11  C   UNL     1      12.170   6.154   2.602  0.00  0.00    +0.095 C 
ATOM     12  C   UNL     1      11.997   7.653   2.342  0.00  0.00    +0.033 C 
ATOM     13  C   UNL     1      11.818   6.037   4.098  0.00  0.00    +0.121 C 
ATOM     14  C   UNL     1      10.802   8.049   3.209  0.00  0.00    +0.109 C 
ATOM     16  C   UNL     1      10.104   7.247   5.480  0.00  0.00    +0.218 A 
ATOM     18  C   UNL     1       9.524   6.457   7.531  0.00  0.00    +0.149 A 
ATOM     20  C   UNL     1       8.552   8.401   6.673  0.00  0.00    +0.116 A 
ATOM     21  C   UNL     1       8.637   7.498   7.714  0.00  0.00    +0.052 A 
ENDROOT
BRANCH  11  15
ATOM      5  O   UNL     1      11.863   5.107   0.402  0.00  0.00    -0.420 OA
ATOM      7  N   UNL     1      10.168   4.758   1.820  0.00  0.00    -0.112 NA
ATOM     10  N   UNL     1       9.868   4.120   0.630  0.00  0.00    -0.107 NA
ATOM     15  C   UNL     1      11.340   5.320   1.641  0.00  0.00    +0.222 A 
ATOM     17  C   UNL     1      10.885   4.350  -0.168  0.00  0.00    +0.251 A 
BRANCH  17  19
ATOM      4  F   UNL     1      12.876   2.491  -0.826  0.00  0.00    -0.205 F 
ATOM     19  C   UNL     1      11.120   3.937  -1.520  0.00  0.00    +0.074 A 
ATOM     23  C   UNL     1      12.123   3.009  -1.806  0.00  0.00    +0.136 A 
ATOM     24  C   UNL     1      10.346   4.466  -2.552  0.00  0.00    +0.016 A 
ATOM     25  C   UNL     1      12.348   2.611  -3.123  0.00  0.00    +0.039 A 
ATOM     26  C   UNL     1      10.572   4.067  -3.869  0.00  0.00    +0.001 A 
ATOM     27  C   UNL     1      11.573   3.140  -4.155  0.00  0.00    +0.003 A 
ENDBRANCH  17  19
ENDBRANCH  11  15
BRANCH  18  22
ATOM      1  F   UNL     1      10.832   5.596   9.319  0.00  0.00    -0.164 F 
ATOM      2  F   UNL     1       8.673   5.438   9.521  0.00  0.00    -0.164 F 
ATOM      3  F   UNL     1       9.727   4.150   8.130  0.00  0.00    -0.164 F 
ATOM     22  C   UNL     1       9.684   5.431   8.601  0.00  0.00    +0.434 C 
ENDBRANCH  18  22
TORSDOF 3
ENDMDL
MODEL 7
REMARK VINA RESULT:      -7.0     16.028     19.802
REMARK  Name = 51137943
REMARK  3 active torsions:
REMARK  status: ('A' for Active; 'I' for Inactive)
REMARK    1  A    between atoms: C_11  and  C_15
REMARK    2  A    between atoms: C_17  and  C_19
REMARK    3  A    between atoms: C_18  and  C_22
REMARK                            x       y       z     vdW  Elec       q    Type
REMARK                         _______ _______ _______ _____ _____    ______ ____
ROOT
ATOM      6  N   UNL     1      -7.946  -6.401  40.077  0.00  0.00    -0.299 N 
ATOM      8  N   UNL     1      -8.736  -4.252  39.720  0.00  0.00    -0.210 NA
ATOM      9  N   UNL     1      -9.724  -5.689  41.382  0.00  0.00    -0.223 NA
ATOM     11  C   UNL     1      -6.008  -7.497  39.249  0.00  0.00    +0.095 C 
ATOM     12  C   UNL     1      -6.976  -8.533  39.828  0.00  0.00    +0.033 C 
ATOM     13  C   UNL     1      -6.921  -6.275  39.039  0.00  0.00    +0.121 C 
ATOM     14  C   UNL     1      -7.913  -7.714  40.716  0.00  0.00    +0.109 C 
ATOM     16  C   UNL     1      -8.840  -5.405  40.407  0.00  0.00    +0.218 A 
ATOM     18  C   UNL     1      -9.625  -3.299  40.068  0.00  0.00    +0.149 A 
ATOM     20  C   UNL     1     -10.583  -4.693  41.680  0.00  0.00    +0.116 A 
ATOM     21  C   UNL     1     -10.581  -3.465  41.050  0.00  0.00    +0.052 A 
ENDROOT
BRANCH  11  15
ATOM      5  O   UNL     1      -4.467  -6.014  40.455  0.00  0.00    -0.420 OA
ATOM      7  N   UNL     1      -4.002  -8.190  40.686  0.00  0.00    -0.112 NA
ATOM     10  N   UNL     1      -3.066  -7.474  41.410  0.00  0.00    -0.107 NA
ATOM     15  C   UNL     1      -4.799  -7.297  40.147  0.00  0.00    +0.222 A 
ATOM     17  C   UNL     1      -3.376  -6.208  41.246  0.00  0.00    +0.251 A 
BRANCH  17  19
ATOM      4  F   UNL     1      -1.536  -4.723  39.742  0.00  0.00    -0.205 F 
ATOM     19  C   UNL     1      -2.756  -5.023  41.761  0.00  0.00    +0.074 A 
ATOM     23  C   UNL     1      -1.843  -4.312  40.980  0.00  0.00    +0.136 A 
ATOM     24  C   UNL     1      -3.065  -4.581  43.048  0.00  0.00    +0.016 A 
ATOM     25  C   UNL     1      -1.242  -3.161  41.487  0.00  0.00    +0.039 A 
ATOM     26  C   UNL     1      -2.463  -3.430  43.553  0.00  0.00    +0.001 A 
ATOM     27  C   UNL     1      -1.551  -2.719  42.773  0.00  0.00    +0.003 A 
ENDBRANCH  17  19
ENDBRANCH  11  15
BRANCH  18  22
ATOM      1  F   UNL     1      -9.808  -0.929  40.130  0.00  0.00    -0.164 F 
ATOM      2  F   UNL     1      -8.317  -1.761  38.784  0.00  0.00    -0.164 F 
ATOM      3  F   UNL     1     -10.424  -1.911  38.291  0.00  0.00    -0.164 F 
ATOM     22  C   UNL     1      -9.545  -2.005  39.332  0.00  0.00    +0.434 C 
ENDBRANCH  18  22
TORSDOF 3
ENDMDL
MODEL 8
REMARK VINA RESULT:      -6.9     19.186     20.817
REMARK  Name = 51137943
REMARK  3 active torsions:
REMARK  status: ('A' for Active; 'I' for Inactive)
REMARK    1  A    between atoms: C_11  and  C_15
REMARK    2  A    between atoms: C_17  and  C_19
REMARK    3  A    between atoms: C_18  and  C_22
REMARK                            x       y       z     vdW  Elec       q    Type
REMARK                         _______ _______ _______ _____ _____    ______ ____
ROOT
ATOM      6  N   UNL     1      -4.469 -11.964  16.786  0.00  0.00    -0.299 N 
ATOM      8  N   UNL     1      -3.710 -11.356  14.681  0.00  0.00    -0.210 NA
ATOM      9  N   UNL     1      -4.019 -13.669  15.282  0.00  0.00    -0.223 NA
ATOM     11  C   UNL     1      -5.342 -10.645  18.559  0.00  0.00    +0.095 C 
ATOM     12  C   UNL     1      -4.964 -12.032  19.087  0.00  0.00    +0.033 C 
ATOM     13  C   UNL     1      -4.557 -10.573  17.235  0.00  0.00    +0.121 C 
ATOM     14  C   UNL     1      -4.873 -12.900  17.831  0.00  0.00    +0.109 C 
ATOM     16  C   UNL     1      -4.049 -12.346  15.529  0.00  0.00    +0.218 A 
ATOM     18  C   UNL     1      -3.304 -11.765  13.462  0.00  0.00    +0.149 A 
ATOM     20  C   UNL     1      -3.603 -14.008  14.044  0.00  0.00    +0.116 A 
ATOM     21  C   UNL     1      -3.228 -13.090  13.083  0.00  0.00    +0.052 A 
ENDROOT
BRANCH  11  15
ATOM      5  O   UNL     1      -7.314  -9.626  17.509  0.00  0.00    -0.420 OA
ATOM      7  N   UNL     1      -7.798 -11.025  19.185  0.00  0.00    -0.112 NA
ATOM     10  N   UNL     1      -8.988 -10.526  18.688  0.00  0.00    -0.107 NA
ATOM     15  C   UNL     1      -6.848 -10.473  18.467  0.00  0.00    +0.222 A 
ATOM     17  C   UNL     1      -8.657  -9.714  17.711  0.00  0.00    +0.251 A 
BRANCH  17  19
ATOM      4  F   UNL     1      -9.200 -10.485  15.072  0.00  0.00    -0.205 F 
ATOM     19  C   UNL     1      -9.476  -8.920  16.841  0.00  0.00    +0.074 A 
ATOM     23  C   UNL     1      -9.721  -9.339  15.533  0.00  0.00    +0.136 A 
ATOM     24  C   UNL     1     -10.025  -7.725  17.305  0.00  0.00    +0.016 A 
ATOM     25  C   UNL     1     -10.517  -8.564  14.691  0.00  0.00    +0.039 A 
ATOM     26  C   UNL     1     -10.821  -6.950  16.463  0.00  0.00    +0.001 A 
ATOM     27  C   UNL     1     -11.067  -7.368  15.155  0.00  0.00    +0.003 A 
ENDBRANCH  17  19
ENDBRANCH  11  15
BRANCH  18  22
ATOM      1  F   UNL     1      -1.883  -9.933  12.935  0.00  0.00    -0.164 F 
ATOM      2  F   UNL     1      -2.523 -11.185  11.277  0.00  0.00    -0.164 F 
ATOM      3  F   UNL     1      -3.929  -9.824  12.210  0.00  0.00    -0.164 F 
ATOM     22  C   UNL     1      -2.920 -10.701  12.491  0.00  0.00    +0.434 C 
ENDBRANCH  18  22
TORSDOF 3
ENDMDL
MODEL 9
REMARK VINA RESULT:      -6.8     21.013     23.273
REMARK  Name = 51137943
REMARK  3 active torsions:
REMARK  status: ('A' for Active; 'I' for Inactive)
REMARK    1  A    between atoms: C_11  and  C_15
REMARK    2  A    between atoms: C_17  and  C_19
REMARK    3  A    between atoms: C_18  and  C_22
REMARK                            x       y       z     vdW  Elec       q    Type
REMARK                         _______ _______ _______ _____ _____    ______ ____
ROOT
ATOM      6  N   UNL     1      -2.774 -11.671  12.538  0.00  0.00    -0.299 N 
ATOM      8  N   UNL     1      -3.688 -10.628  10.680  0.00  0.00    -0.210 NA
ATOM      9  N   UNL     1      -3.556 -13.029  10.830  0.00  0.00    -0.223 NA
ATOM     11  C   UNL     1      -2.119 -10.788  14.644  0.00  0.00    +0.095 C 
ATOM     12  C   UNL     1      -1.520 -12.186  14.463  0.00  0.00    +0.033 C 
ATOM     13  C   UNL     1      -2.483 -10.398  13.199  0.00  0.00    +0.121 C 
ATOM     14  C   UNL     1      -2.359 -12.812  13.349  0.00  0.00    +0.109 C 
ATOM     16  C   UNL     1      -3.365 -11.781  11.297  0.00  0.00    +0.218 A 
ATOM     18  C   UNL     1      -4.263 -10.772   9.468  0.00  0.00    +0.149 A 
ATOM     20  C   UNL     1      -4.134 -13.100   9.613  0.00  0.00    +0.116 A 
ATOM     21  C   UNL     1      -4.512 -11.994   8.879  0.00  0.00    +0.052 A 
ENDROOT
BRANCH  11  15
ATOM      5  O   UNL     1      -4.460 -10.334  15.226  0.00  0.00    -0.420 OA
ATOM      7  N   UNL     1      -3.254 -11.178  16.909  0.00  0.00    -0.112 NA
ATOM     10  N   UNL     1      -4.541 -10.971  17.368  0.00  0.00    -0.107 NA
ATOM     15  C   UNL     1      -3.253 -10.792  15.654  0.00  0.00    +0.222 A 
ATOM     17  C   UNL     1      -5.210 -10.477  16.352  0.00  0.00    +0.251 A 
BRANCH  17  19
ATOM      4  F   UNL     1      -6.703  -9.702  18.594  0.00  0.00    -0.205 F 
ATOM     19  C   UNL     1      -6.583 -10.074  16.248  0.00  0.00    +0.074 A 
ATOM     23  C   UNL     1      -7.291  -9.696  17.390  0.00  0.00    +0.136 A 
ATOM     24  C   UNL     1      -7.210 -10.062  15.003  0.00  0.00    +0.016 A 
ATOM     25  C   UNL     1      -8.625  -9.305  17.284  0.00  0.00    +0.039 A 
ATOM     26  C   UNL     1      -8.544  -9.671  14.898  0.00  0.00    +0.001 A 
ATOM     27  C   UNL     1      -9.253  -9.293  16.038  0.00  0.00    +0.003 A 
ENDBRANCH  17  19
ENDBRANCH  11  15
BRANCH  18  22
ATOM      1  F   UNL     1      -4.864  -9.725   7.420  0.00  0.00    -0.164 F 
ATOM      2  F   UNL     1      -5.775  -8.934   9.228  0.00  0.00    -0.164 F 
ATOM      3  F   UNL     1      -3.683  -8.545   8.813  0.00  0.00    -0.164 F 
ATOM     22  C   UNL     1      -4.637  -9.520   8.750  0.00  0.00    +0.434 C 
ENDBRANCH  18  22
TORSDOF 3
ENDMDL
MODEL 10
REMARK VINA RESULT:      -6.6     32.213     35.783
REMARK  Name = 51137943
REMARK  3 active torsions:
REMARK  status: ('A' for Active; 'I' for Inactive)
REMARK    1  A    between atoms: C_11  and  C_15
REMARK    2  A    between atoms: C_17  and  C_19
REMARK    3  A    between atoms: C_18  and  C_22
REMARK                            x       y       z     vdW  Elec       q    Type
REMARK                         _______ _______ _______ _____ _____    ______ ____
ROOT
ATOM      6  N   UNL     1      12.277   8.512   6.180  0.00  0.00    -0.299 N 
ATOM      8  N   UNL     1      11.035   7.007   7.431  0.00  0.00    -0.210 NA
ATOM      9  N   UNL     1       9.987   8.853   6.291  0.00  0.00    -0.223 NA
ATOM     11  C   UNL     1      14.554   8.458   5.505  0.00  0.00    +0.095 C 
ATOM     12  C   UNL     1      13.996   9.871   5.318  0.00  0.00    +0.033 C 
ATOM     13  C   UNL     1      13.538   7.829   6.477  0.00  0.00    +0.121 C 
ATOM     14  C   UNL     1      12.479   9.680   5.326  0.00  0.00    +0.109 C 
ATOM     16  C   UNL     1      11.047   8.106   6.654  0.00  0.00    +0.218 A 
ATOM     18  C   UNL     1       9.816   6.638   7.876  0.00  0.00    +0.149 A 
ATOM     20  C   UNL     1       8.800   8.429   6.772  0.00  0.00    +0.116 A 
ATOM     21  C   UNL     1       8.653   7.318   7.578  0.00  0.00    +0.052 A 
ENDROOT
BRANCH  11  15
ATOM      5  O   UNL     1      13.756   6.913   3.771  0.00  0.00    -0.420 OA
ATOM      7  N   UNL     1      15.750   7.825   3.327  0.00  0.00    -0.112 NA
ATOM     10  N   UNL     1      15.423   6.984   2.280  0.00  0.00    -0.107 NA
ATOM     15  C   UNL     1      14.749   7.752   4.173  0.00  0.00    +0.222 A 
ATOM     17  C   UNL     1      14.251   6.473   2.581  0.00  0.00    +0.251 A 
BRANCH  17  19
ATOM      4  F   UNL     1      15.053   3.826   2.133  0.00  0.00    -0.205 F 
ATOM     19  C   UNL     1      13.429   5.542   1.865  0.00  0.00    +0.074 A 
ATOM     23  C   UNL     1      13.865   4.232   1.663  0.00  0.00    +0.136 A 
ATOM     24  C   UNL     1      12.191   5.949   1.369  0.00  0.00    +0.016 A 
ATOM     25  C   UNL     1      13.063   3.331   0.965  0.00  0.00    +0.039 A 
ATOM     26  C   UNL     1      11.388   5.047   0.671  0.00  0.00    +0.001 A 
ATOM     27  C   UNL     1      11.824   3.737   0.468  0.00  0.00    +0.003 A 
ENDBRANCH  17  19
ENDBRANCH  11  15
BRANCH  18  22
ATOM      1  F   UNL     1      10.752   5.394   9.673  0.00  0.00    -0.164 F 
ATOM      2  F   UNL     1       8.591   5.311   9.444  0.00  0.00    -0.164 F 
ATOM      3  F   UNL     1       9.869   4.252   8.048  0.00  0.00    -0.164 F 
ATOM     22  C   UNL     1       9.756   5.424   8.740  0.00  0.00    +0.434 C 
ENDBRANCH  18  22
TORSDOF 3
ENDMDL
