MODEL 1
REMARK VINA RESULT:      -6.5      0.000      0.000
REMARK  Name = 44716348
REMARK  8 active torsions:
REMARK  status: ('A' for Active; 'I' for Inactive)
REMARK    1  A    between atoms: O_4  and  C_23
REMARK    2  A    between atoms: O_4  and  C_24
REMARK    3  A    between atoms: N_6  and  C_15
REMARK    4  A    between atoms: N_6  and  C_17
REMARK    5  A    between atoms: C_8  and  C_14
REMARK    6  A    between atoms: C_9  and  C_15
REMARK    7  A    between atoms: C_14  and  C_16
REMARK    8  A    between atoms: C_17  and  C_18
REMARK                            x       y       z     vdW  Elec       q    Type
REMARK                         _______ _______ _______ _____ _____    ______ ____
ROOT
ATOM      6  N   UNL     1      15.793   6.920  21.840  0.00  0.00    -0.311 NA
ATOM     25  H   UNL     1      16.153   5.986  22.036  0.00  0.00    +0.122 HD
ENDROOT
BRANCH   6  15
ATOM     15  C   UNL     1      14.788   6.841  20.793  0.00  0.00    +0.100 C 
BRANCH  15   9
ATOM      5  N   UNL     1      12.285   6.707  20.673  0.00  0.00    -0.298 NA
ATOM      7  C   UNL     1      11.966   9.284  20.508  0.00  0.00    -0.004 C 
ATOM      8  C   UNL     1      11.782   8.615  19.127  0.00  0.00    +0.006 C 
ATOM      9  C   UNL     1      13.451   7.404  21.280  0.00  0.00    +0.071 C 
ATOM     10  C   UNL     1      13.359   8.932  21.063  0.00  0.00    +0.024 C 
ATOM     11  C   UNL     1      12.124   7.113  19.256  0.00  0.00    +0.088 C 
ATOM     12  C   UNL     1      10.926   8.652  21.453  0.00  0.00    +0.019 C 
ATOM     13  C   UNL     1      11.068   7.120  21.414  0.00  0.00    +0.085 C 
BRANCH   8  14
ATOM     14  C   UNL     1      12.594   9.284  18.020  0.00  0.00    +0.002 C 
ATOM     16  C   UNL     1      13.561   8.309  17.376  0.00  0.00    +0.004 C 
ENDBRANCH   8  14
ENDBRANCH  15   9
ENDBRANCH   6  15
BRANCH   6  17
ATOM     17  C   UNL     1      16.891   7.795  21.445  0.00  0.00    +0.116 C 
BRANCH  17  18
ATOM     18  C   UNL     1      18.172   7.030  21.243  0.00  0.00    -0.033 A 
ATOM     19  C   UNL     1      18.274   6.101  20.207  0.00  0.00    +0.008 A 
ATOM     20  C   UNL     1      19.257   7.250  22.092  0.00  0.00    +0.008 A 
ATOM     21  C   UNL     1      19.462   5.393  20.020  0.00  0.00    +0.046 A 
ATOM     22  C   UNL     1      20.443   6.542  21.906  0.00  0.00    +0.046 A 
ATOM     23  C   UNL     1      20.545   5.613  20.870  0.00  0.00    +0.130 A 
BRANCH  23   4
ATOM      4  O   UNL     1      21.704   4.922  20.687  0.00  0.00    -0.406 OA
BRANCH   4  24
ATOM      1  F   UNL     1      23.031   3.117  20.965  0.00  0.00    -0.133 F 
ATOM      2  F   UNL     1      21.702   3.678  22.606  0.00  0.00    -0.133 F 
ATOM      3  F   UNL     1      20.880   2.789  20.756  0.00  0.00    -0.133 F 
ATOM     24  C   UNL     1      21.813   3.624  21.262  0.00  0.00    +0.575 C 
ENDBRANCH   4  24
ENDBRANCH  23   4
ENDBRANCH  17  18
ENDBRANCH   6  17
TORSDOF 7
ENDMDL
MODEL 2
REMARK VINA RESULT:      -6.5     15.764     18.801
REMARK  Name = 44716348
REMARK  8 active torsions:
REMARK  status: ('A' for Active; 'I' for Inactive)
REMARK    1  A    between atoms: O_4  and  C_23
REMARK    2  A    between atoms: O_4  and  C_24
REMARK    3  A    between atoms: N_6  and  C_15
REMARK    4  A    between atoms: N_6  and  C_17
REMARK    5  A    between atoms: C_8  and  C_14
REMARK    6  A    between atoms: C_9  and  C_15
REMARK    7  A    between atoms: C_14  and  C_16
REMARK    8  A    between atoms: C_17  and  C_18
REMARK                            x       y       z     vdW  Elec       q    Type
REMARK                         _______ _______ _______ _____ _____    ______ ____
ROOT
ATOM      6  N   UNL     1      13.101   6.386   3.797  0.00  0.00    -0.311 NA
ATOM     25  H   UNL     1      13.370   7.220   4.320  0.00  0.00    +0.122 HD
ENDROOT
BRANCH   6  15
ATOM     15  C   UNL     1      13.744   6.405   2.493  0.00  0.00    +0.100 C 
BRANCH  15   9
ATOM      5  N   UNL     1      13.669   3.972   1.885  0.00  0.00    -0.298 NA
ATOM      7  C   UNL     1      13.787   4.414  -0.676  0.00  0.00    -0.004 C 
ATOM      8  C   UNL     1      15.156   3.942  -0.133  0.00  0.00    +0.006 C 
ATOM      9  C   UNL     1      13.149   5.332   1.579  0.00  0.00    +0.071 C 
ATOM     10  C   UNL     1      13.346   5.678   0.085  0.00  0.00    +0.024 C 
ATOM     11  C   UNL     1      15.065   3.835   1.406  0.00  0.00    +0.088 C 
ATOM     12  C   UNL     1      12.769   3.305  -0.348  0.00  0.00    +0.019 C 
ATOM     13  C   UNL     1      12.831   2.988   1.157  0.00  0.00    +0.085 C 
BRANCH   8  14
ATOM     14  C   UNL     1      16.317   4.832  -0.569  0.00  0.00    +0.002 C 
ATOM     16  C   UNL     1      16.558   4.737  -2.063  0.00  0.00    +0.004 C 
ENDBRANCH   8  14
ENDBRANCH  15   9
ENDBRANCH   6  15
BRANCH   6  17
ATOM     17  C   UNL     1      11.650   6.338   3.664  0.00  0.00    +0.116 C 
BRANCH  17  18
ATOM     18  C   UNL     1      10.967   6.261   5.004  0.00  0.00    -0.033 A 
ATOM     19  C   UNL     1      11.687   6.521   6.170  0.00  0.00    +0.008 A 
ATOM     20  C   UNL     1       9.614   5.930   5.077  0.00  0.00    +0.008 A 
ATOM     21  C   UNL     1      11.053   6.450   7.411  0.00  0.00    +0.046 A 
ATOM     22  C   UNL     1       8.980   5.859   6.318  0.00  0.00    +0.046 A 
ATOM     23  C   UNL     1       9.700   6.119   7.484  0.00  0.00    +0.130 A 
BRANCH  23   4
ATOM      4  O   UNL     1       9.081   6.050   8.695  0.00  0.00    -0.406 OA
BRANCH   4  24
ATOM      1  F   UNL     1      10.416   5.105  10.251  0.00  0.00    -0.133 F 
ATOM      2  F   UNL     1       8.273   4.686  10.344  0.00  0.00    -0.133 F 
ATOM      3  F   UNL     1       9.517   3.805   8.742  0.00  0.00    -0.133 F 
ATOM     24  C   UNL     1       9.308   4.900   9.503  0.00  0.00    +0.575 C 
ENDBRANCH   4  24
ENDBRANCH  23   4
ENDBRANCH  17  18
ENDBRANCH   6  17
TORSDOF 7
ENDMDL
MODEL 3
REMARK VINA RESULT:      -6.4     16.927     19.560
REMARK  Name = 44716348
REMARK  8 active torsions:
REMARK  status: ('A' for Active; 'I' for Inactive)
REMARK    1  A    between atoms: O_4  and  C_23
REMARK    2  A    between atoms: O_4  and  C_24
REMARK    3  A    between atoms: N_6  and  C_15
REMARK    4  A    between atoms: N_6  and  C_17
REMARK    5  A    between atoms: C_8  and  C_14
REMARK    6  A    between atoms: C_9  and  C_15
REMARK    7  A    between atoms: C_14  and  C_16
REMARK    8  A    between atoms: C_17  and  C_18
REMARK                            x       y       z     vdW  Elec       q    Type
REMARK                         _______ _______ _______ _____ _____    ______ ____
ROOT
ATOM      6  N   UNL     1      10.318   5.247   3.463  0.00  0.00    -0.311 NA
ATOM     25  H   UNL     1      10.823   6.133   3.475  0.00  0.00    +0.122 HD
ENDROOT
BRANCH   6  15
ATOM     15  C   UNL     1       9.638   5.060   4.734  0.00  0.00    +0.100 C 
BRANCH  15   9
ATOM      5  N   UNL     1      10.930   6.584   6.252  0.00  0.00    -0.298 NA
ATOM      7  C   UNL     1       8.944   6.944   7.893  0.00  0.00    -0.004 C 
ATOM      8  C   UNL     1       9.975   5.954   8.482  0.00  0.00    +0.006 C 
ATOM      9  C   UNL     1       9.640   6.357   5.547  0.00  0.00    +0.071 C 
ATOM     10  C   UNL     1       8.451   6.417   6.533  0.00  0.00    +0.024 C 
ATOM     11  C   UNL     1      11.052   5.667   7.411  0.00  0.00    +0.088 C 
ATOM     12  C   UNL     1       9.694   8.264   7.626  0.00  0.00    +0.019 C 
ATOM     13  C   UNL     1      10.934   7.977   6.761  0.00  0.00    +0.085 C 
BRANCH   8  14
ATOM     14  C   UNL     1       9.342   4.665   9.003  0.00  0.00    +0.002 C 
ATOM     16  C   UNL     1       8.838   4.831  10.423  0.00  0.00    +0.004 C 
ENDBRANCH   8  14
ENDBRANCH  15   9
ENDBRANCH   6  15
BRANCH   6  17
ATOM     17  C   UNL     1      11.250   4.156   3.203  0.00  0.00    +0.116 C 
BRANCH  17  18
ATOM     18  C   UNL     1      11.573   4.033   1.738  0.00  0.00    -0.033 A 
ATOM     19  C   UNL     1      10.615   4.368   0.781  0.00  0.00    +0.008 A 
ATOM     20  C   UNL     1      12.832   3.584   1.337  0.00  0.00    +0.008 A 
ATOM     21  C   UNL     1      10.916   4.254  -0.577  0.00  0.00    +0.046 A 
ATOM     22  C   UNL     1      13.132   3.469  -0.020  0.00  0.00    +0.046 A 
ATOM     23  C   UNL     1      12.174   3.805  -0.977  0.00  0.00    +0.130 A 
BRANCH  23   4
ATOM      4  O   UNL     1      12.468   3.694  -2.301  0.00  0.00    -0.406 OA
BRANCH   4  24
ATOM      1  F   UNL     1      10.825   2.652  -3.446  0.00  0.00    -0.133 F 
ATOM      2  F   UNL     1      12.893   2.262  -4.034  0.00  0.00    -0.133 F 
ATOM      3  F   UNL     1      12.095   1.443  -2.142  0.00  0.00    -0.133 F 
ATOM     24  C   UNL     1      12.085   2.502  -2.979  0.00  0.00    +0.575 C 
ENDBRANCH   4  24
ENDBRANCH  23   4
ENDBRANCH  17  18
ENDBRANCH   6  17
TORSDOF 7
ENDMDL
MODEL 4
REMARK VINA RESULT:      -6.3      5.903      7.373
REMARK  Name = 44716348
REMARK  8 active torsions:
REMARK  status: ('A' for Active; 'I' for Inactive)
REMARK    1  A    between atoms: O_4  and  C_23
REMARK    2  A    between atoms: O_4  and  C_24
REMARK    3  A    between atoms: N_6  and  C_15
REMARK    4  A    between atoms: N_6  and  C_17
REMARK    5  A    between atoms: C_8  and  C_14
REMARK    6  A    between atoms: C_9  and  C_15
REMARK    7  A    between atoms: C_14  and  C_16
REMARK    8  A    between atoms: C_17  and  C_18
REMARK                            x       y       z     vdW  Elec       q    Type
REMARK                         _______ _______ _______ _____ _____    ______ ____
ROOT
ATOM      6  N   UNL     1      11.710   9.146  22.902  0.00  0.00    -0.311 NA
ATOM     25  H   UNL     1      11.971   8.848  23.842  0.00  0.00    +0.122 HD
ENDROOT
BRANCH   6  15
ATOM     15  C   UNL     1      10.788  10.267  22.988  0.00  0.00    +0.100 C 
BRANCH  15   9
ATOM      5  N   UNL     1      11.128  12.710  22.529  0.00  0.00    -0.298 NA
ATOM      7  C   UNL     1      13.721  12.571  22.675  0.00  0.00    -0.004 C 
ATOM      8  C   UNL     1      13.254  12.653  21.204  0.00  0.00    +0.006 C 
ATOM      9  C   UNL     1      11.528  11.550  23.371  0.00  0.00    +0.071 C 
ATOM     10  C   UNL     1      13.062  11.355  23.352  0.00  0.00    +0.024 C 
ATOM     11  C   UNL     1      11.710  12.587  21.172  0.00  0.00    +0.088 C 
ATOM     12  C   UNL     1      13.189  13.832  23.384  0.00  0.00    +0.019 C 
ATOM     13  C   UNL     1      11.671  13.939  23.157  0.00  0.00    +0.085 C 
BRANCH   8  14
ATOM     14  C   UNL     1      13.882  11.584  20.312  0.00  0.00    +0.002 C 
ATOM     16  C   UNL     1      13.327  11.643  18.902  0.00  0.00    +0.004 C 
ENDBRANCH   8  14
ENDBRANCH  15   9
ENDBRANCH   6  15
BRANCH   6  17
ATOM     17  C   UNL     1      11.109   8.028  22.183  0.00  0.00    +0.116 C 
BRANCH  17  18
ATOM     18  C   UNL     1      11.635   7.919  20.777  0.00  0.00    -0.033 A 
ATOM     19  C   UNL     1      12.746   7.121  20.507  0.00  0.00    +0.008 A 
ATOM     20  C   UNL     1      11.009   8.618  19.744  0.00  0.00    +0.008 A 
ATOM     21  C   UNL     1      13.232   7.021  19.202  0.00  0.00    +0.046 A 
ATOM     22  C   UNL     1      11.495   8.518  18.440  0.00  0.00    +0.046 A 
ATOM     23  C   UNL     1      12.606   7.719  18.170  0.00  0.00    +0.130 A 
BRANCH  23   4
ATOM      4  O   UNL     1      13.080   7.621  16.897  0.00  0.00    -0.406 OA
BRANCH   4  24
ATOM      1  F   UNL     1      14.659   9.176  17.329  0.00  0.00    -0.133 F 
ATOM      2  F   UNL     1      14.578   8.325  15.318  0.00  0.00    -0.133 F 
ATOM      3  F   UNL     1      13.011   9.726  16.003  0.00  0.00    -0.133 F 
ATOM     24  C   UNL     1      13.825   8.713  16.370  0.00  0.00    +0.575 C 
ENDBRANCH   4  24
ENDBRANCH  23   4
ENDBRANCH  17  18
ENDBRANCH   6  17
TORSDOF 7
ENDMDL
MODEL 5
REMARK VINA RESULT:      -6.3      4.677      9.514
REMARK  Name = 44716348
REMARK  8 active torsions:
REMARK  status: ('A' for Active; 'I' for Inactive)
REMARK    1  A    between atoms: O_4  and  C_23
REMARK    2  A    between atoms: O_4  and  C_24
REMARK    3  A    between atoms: N_6  and  C_15
REMARK    4  A    between atoms: N_6  and  C_17
REMARK    5  A    between atoms: C_8  and  C_14
REMARK    6  A    between atoms: C_9  and  C_15
REMARK    7  A    between atoms: C_14  and  C_16
REMARK    8  A    between atoms: C_17  and  C_18
REMARK                            x       y       z     vdW  Elec       q    Type
REMARK                         _______ _______ _______ _____ _____    ______ ____
ROOT
ATOM      6  N   UNL     1      20.586   5.634  20.035  0.00  0.00    -0.311 NA
ATOM     25  H   UNL     1      20.221   4.688  19.936  0.00  0.00    +0.122 HD
ENDROOT
BRANCH   6  15
ATOM     15  C   UNL     1      21.978   5.574  20.450  0.00  0.00    +0.100 C 
BRANCH  15   9
ATOM      5  N   UNL     1      23.408   5.181  22.474  0.00  0.00    -0.298 NA
ATOM      7  C   UNL     1      22.936   2.625  22.546  0.00  0.00    -0.004 C 
ATOM      8  C   UNL     1      24.339   2.911  21.964  0.00  0.00    +0.006 C 
ATOM      9  C   UNL     1      22.110   4.885  21.811  0.00  0.00    +0.071 C 
ATOM     10  C   UNL     1      21.876   3.361  21.706  0.00  0.00    +0.024 C 
ATOM     11  C   UNL     1      24.507   4.439  21.810  0.00  0.00    +0.088 C 
ATOM     12  C   UNL     1      22.904   3.238  23.960  0.00  0.00    +0.019 C 
ATOM     13  C   UNL     1      23.320   4.717  23.880  0.00  0.00    +0.085 C 
BRANCH   8  14
ATOM     14  C   UNL     1      24.606   2.180  20.650  0.00  0.00    +0.002 C 
ATOM     16  C   UNL     1      24.856   3.154  19.515  0.00  0.00    +0.004 C 
ENDBRANCH   8  14
ENDBRANCH  15   9
ENDBRANCH   6  15
BRANCH   6  17
ATOM     17  C   UNL     1      19.783   6.371  21.004  0.00  0.00    +0.116 C 
BRANCH  17  18
ATOM     18  C   UNL     1      18.352   6.508  20.557  0.00  0.00    -0.033 A 
ATOM     19  C   UNL     1      17.453   7.259  21.314  0.00  0.00    +0.008 A 
ATOM     20  C   UNL     1      17.926   5.884  19.384  0.00  0.00    +0.008 A 
ATOM     21  C   UNL     1      16.127   7.386  20.897  0.00  0.00    +0.046 A 
ATOM     22  C   UNL     1      16.601   6.011  18.968  0.00  0.00    +0.046 A 
ATOM     23  C   UNL     1      15.702   6.762  19.726  0.00  0.00    +0.130 A 
BRANCH  23   4
ATOM      4  O   UNL     1      14.408   6.886  19.319  0.00  0.00    -0.406 OA
BRANCH   4  24
ATOM      1  F   UNL     1      14.154   7.231  17.103  0.00  0.00    -0.133 F 
ATOM      2  F   UNL     1      12.867   8.347  18.471  0.00  0.00    -0.133 F 
ATOM      3  F   UNL     1      15.014   8.843  18.302  0.00  0.00    -0.133 F 
ATOM     24  C   UNL     1      14.108   7.842  18.309  0.00  0.00    +0.575 C 
ENDBRANCH   4  24
ENDBRANCH  23   4
ENDBRANCH  17  18
ENDBRANCH   6  17
TORSDOF 7
ENDMDL
MODEL 6
REMARK VINA RESULT:      -6.3     15.880     18.961
REMARK  Name = 44716348
REMARK  8 active torsions:
REMARK  status: ('A' for Active; 'I' for Inactive)
REMARK    1  A    between atoms: O_4  and  C_23
REMARK    2  A    between atoms: O_4  and  C_24
REMARK    3  A    between atoms: N_6  and  C_15
REMARK    4  A    between atoms: N_6  and  C_17
REMARK    5  A    between atoms: C_8  and  C_14
REMARK    6  A    between atoms: C_9  and  C_15
REMARK    7  A    between atoms: C_14  and  C_16
REMARK    8  A    between atoms: C_17  and  C_18
REMARK                            x       y       z     vdW  Elec       q    Type
REMARK                         _______ _______ _______ _____ _____    ______ ____
ROOT
ATOM      6  N   UNL     1      10.863   7.111   2.513  0.00  0.00    -0.311 NA
ATOM     25  H   UNL     1      10.610   8.060   2.241  0.00  0.00    +0.122 HD
ENDROOT
BRANCH   6  15
ATOM     15  C   UNL     1      11.357   6.390   1.350  0.00  0.00    +0.100 C 
BRANCH  15   9
ATOM      5  N   UNL     1      13.728   5.748   0.840  0.00  0.00    -0.298 NA
ATOM      7  C   UNL     1      13.287   3.195   1.073  0.00  0.00    -0.004 C 
ATOM      8  C   UNL     1      13.380   3.606  -0.414  0.00  0.00    +0.006 C 
ATOM      9  C   UNL     1      12.555   5.513   1.724  0.00  0.00    +0.071 C 
ATOM     10  C   UNL     1      12.179   4.015   1.760  0.00  0.00    +0.024 C 
ATOM     11  C   UNL     1      13.497   5.145  -0.494  0.00  0.00    +0.088 C 
ATOM     12  C   UNL     1      14.622   3.593   1.732  0.00  0.00    +0.019 C 
ATOM     13  C   UNL     1      14.903   5.080   1.453  0.00  0.00    +0.085 C 
BRANCH   8  14
ATOM     14  C   UNL     1      12.219   3.085  -1.257  0.00  0.00    +0.002 C 
ATOM     16  C   UNL     1      11.424   4.222  -1.868  0.00  0.00    +0.004 C 
ENDBRANCH   8  14
ENDBRANCH  15   9
ENDBRANCH   6  15
BRANCH   6  17
ATOM     17  C   UNL     1       9.703   6.441   3.089  0.00  0.00    +0.116 C 
BRANCH  17  18
ATOM     18  C   UNL     1       9.801   6.343   4.589  0.00  0.00    -0.033 A 
ATOM     19  C   UNL     1       8.660   6.507   5.375  0.00  0.00    +0.008 A 
ATOM     20  C   UNL     1      11.033   6.088   5.191  0.00  0.00    +0.008 A 
ATOM     21  C   UNL     1       8.752   6.416   6.764  0.00  0.00    +0.046 A 
ATOM     22  C   UNL     1      11.125   5.997   6.580  0.00  0.00    +0.046 A 
ATOM     23  C   UNL     1       9.984   6.161   7.366  0.00  0.00    +0.130 A 
BRANCH  23   4
ATOM      4  O   UNL     1      10.073   6.072   8.721  0.00  0.00    -0.406 OA
BRANCH   4  24
ATOM      1  F   UNL     1      10.267   4.625  10.443  0.00  0.00    -0.133 F 
ATOM      2  F   UNL     1       8.257   5.174   9.782  0.00  0.00    -0.133 F 
ATOM      3  F   UNL     1       9.525   3.859   8.536  0.00  0.00    -0.133 F 
ATOM     24  C   UNL     1       9.516   4.929   9.360  0.00  0.00    +0.575 C 
ENDBRANCH   4  24
ENDBRANCH  23   4
ENDBRANCH  17  18
ENDBRANCH   6  17
TORSDOF 7
ENDMDL
MODEL 7
REMARK VINA RESULT:      -6.2     16.354     18.948
REMARK  Name = 44716348
REMARK  8 active torsions:
REMARK  status: ('A' for Active; 'I' for Inactive)
REMARK    1  A    between atoms: O_4  and  C_23
REMARK    2  A    between atoms: O_4  and  C_24
REMARK    3  A    between atoms: N_6  and  C_15
REMARK    4  A    between atoms: N_6  and  C_17
REMARK    5  A    between atoms: C_8  and  C_14
REMARK    6  A    between atoms: C_9  and  C_15
REMARK    7  A    between atoms: C_14  and  C_16
REMARK    8  A    between atoms: C_17  and  C_18
REMARK                            x       y       z     vdW  Elec       q    Type
REMARK                         _______ _______ _______ _____ _____    ______ ____
ROOT
ATOM      6  N   UNL     1      13.210   6.714   4.471  0.00  0.00    -0.311 NA
ATOM     25  H   UNL     1      13.382   5.711   4.531  0.00  0.00    +0.122 HD
ENDROOT
BRANCH   6  15
ATOM     15  C   UNL     1      12.411   7.137   5.609  0.00  0.00    +0.100 C 
BRANCH  15   9
ATOM      5  N   UNL     1      10.075   7.969   5.986  0.00  0.00    -0.298 NA
ATOM      7  C   UNL     1       9.103   5.601   6.450  0.00  0.00    -0.004 C 
ATOM      8  C   UNL     1       9.290   6.389   7.767  0.00  0.00    +0.006 C 
ATOM      9  C   UNL     1      10.920   6.935   5.331  0.00  0.00    +0.071 C 
ATOM     10  C   UNL     1      10.452   5.512   5.714  0.00  0.00    +0.024 C 
ATOM     11  C   UNL     1      10.000   7.724   7.446  0.00  0.00    +0.088 C 
ATOM     12  C   UNL     1       8.153   6.430   5.564  0.00  0.00    +0.019 C 
ATOM     13  C   UNL     1       8.704   7.860   5.429  0.00  0.00    +0.085 C 
BRANCH   8  14
ATOM     14  C   UNL     1      10.033   5.599   8.841  0.00  0.00    +0.002 C 
ATOM     16  C   UNL     1       9.429   4.222   9.034  0.00  0.00    +0.004 C 
ENDBRANCH   8  14
ENDBRANCH  15   9
ENDBRANCH   6  15
BRANCH   6  17
ATOM     17  C   UNL     1      12.535   7.021   3.215  0.00  0.00    +0.116 C 
BRANCH  17  18
ATOM     18  C   UNL     1      12.690   5.911   2.210  0.00  0.00    -0.033 A 
ATOM     19  C   UNL     1      12.084   4.675   2.436  0.00  0.00    +0.008 A 
ATOM     20  C   UNL     1      13.439   6.120   1.051  0.00  0.00    +0.008 A 
ATOM     21  C   UNL     1      12.228   3.647   1.504  0.00  0.00    +0.046 A 
ATOM     22  C   UNL     1      13.583   5.092   0.120  0.00  0.00    +0.046 A 
ATOM     23  C   UNL     1      12.977   3.856   0.346  0.00  0.00    +0.130 A 
BRANCH  23   4
ATOM      4  O   UNL     1      13.117   2.853  -0.564  0.00  0.00    -0.406 OA
BRANCH   4  24
ATOM      1  F   UNL     1      12.941   3.473  -2.727  0.00  0.00    -0.133 F 
ATOM      2  F   UNL     1      11.978   1.611  -2.110  0.00  0.00    -0.133 F 
ATOM      3  F   UNL     1      11.146   3.561  -1.483  0.00  0.00    -0.133 F 
ATOM     24  C   UNL     1      12.280   2.866  -1.715  0.00  0.00    +0.575 C 
ENDBRANCH   4  24
ENDBRANCH  23   4
ENDBRANCH  17  18
ENDBRANCH   6  17
TORSDOF 7
ENDMDL
MODEL 8
REMARK VINA RESULT:      -6.2     27.587     29.469
REMARK  Name = 44716348
REMARK  8 active torsions:
REMARK  status: ('A' for Active; 'I' for Inactive)
REMARK    1  A    between atoms: O_4  and  C_23
REMARK    2  A    between atoms: O_4  and  C_24
REMARK    3  A    between atoms: N_6  and  C_15
REMARK    4  A    between atoms: N_6  and  C_17
REMARK    5  A    between atoms: C_8  and  C_14
REMARK    6  A    between atoms: C_9  and  C_15
REMARK    7  A    between atoms: C_14  and  C_16
REMARK    8  A    between atoms: C_17  and  C_18
REMARK                            x       y       z     vdW  Elec       q    Type
REMARK                         _______ _______ _______ _____ _____    ______ ____
ROOT
ATOM      6  N   UNL     1     -13.722  11.216  20.736  0.00  0.00    -0.311 NA
ATOM     25  H   UNL     1     -14.119  12.152  20.664  0.00  0.00    +0.122 HD
ENDROOT
BRANCH   6  15
ATOM     15  C   UNL     1     -13.915  10.511  19.479  0.00  0.00    +0.100 C 
BRANCH  15   9
ATOM      5  N   UNL     1     -12.614   9.140  17.829  0.00  0.00    -0.298 NA
ATOM      7  C   UNL     1     -10.493   9.001  19.330  0.00  0.00    -0.004 C 
ATOM      8  C   UNL     1     -11.288   7.675  19.372  0.00  0.00    +0.006 C 
ATOM      9  C   UNL     1     -12.577  10.294  18.767  0.00  0.00    +0.071 C 
ATOM     10  C   UNL     1     -11.410  10.158  19.770  0.00  0.00    +0.024 C 
ATOM     11  C   UNL     1     -12.603   7.864  18.583  0.00  0.00    +0.088 C 
ATOM     12  C   UNL     1     -10.118   9.252  17.856  0.00  0.00    +0.019 C 
ATOM     13  C   UNL     1     -11.390   9.192  16.992  0.00  0.00    +0.085 C 
BRANCH   8  14
ATOM     14  C   UNL     1     -11.548   7.173  20.790  0.00  0.00    +0.002 C 
ATOM     16  C   UNL     1     -13.032   7.116  21.094  0.00  0.00    +0.004 C 
ENDBRANCH   8  14
ENDBRANCH  15   9
ENDBRANCH   6  15
BRANCH   6  17
ATOM     17  C   UNL     1     -14.350  10.499  21.839  0.00  0.00    +0.116 C 
BRANCH  17  18
ATOM     18  C   UNL     1     -13.634  10.738  23.142  0.00  0.00    -0.033 A 
ATOM     19  C   UNL     1     -14.280  10.478  24.351  0.00  0.00    +0.008 A 
ATOM     20  C   UNL     1     -12.325  11.220  23.139  0.00  0.00    +0.008 A 
ATOM     21  C   UNL     1     -13.615  10.699  25.558  0.00  0.00    +0.046 A 
ATOM     22  C   UNL     1     -11.661  11.442  24.346  0.00  0.00    +0.046 A 
ATOM     23  C   UNL     1     -12.307  11.182  25.555  0.00  0.00    +0.130 A 
BRANCH  23   4
ATOM      4  O   UNL     1     -11.658  11.398  26.732  0.00  0.00    -0.406 OA
BRANCH   4  24
ATOM      1  F   UNL     1      -9.618  10.431  26.752  0.00  0.00    -0.133 F 
ATOM      2  F   UNL     1     -10.767  10.445  28.611  0.00  0.00    -0.133 F 
ATOM      3  F   UNL     1     -11.370   9.137  26.933  0.00  0.00    -0.133 F 
ATOM     24  C   UNL     1     -10.866  10.344  27.268  0.00  0.00    +0.575 C 
ENDBRANCH   4  24
ENDBRANCH  23   4
ENDBRANCH  17  18
ENDBRANCH   6  17
TORSDOF 7
ENDMDL
MODEL 9
REMARK VINA RESULT:      -6.1     26.579     29.170
REMARK  Name = 44716348
REMARK  8 active torsions:
REMARK  status: ('A' for Active; 'I' for Inactive)
REMARK    1  A    between atoms: O_4  and  C_23
REMARK    2  A    between atoms: O_4  and  C_24
REMARK    3  A    between atoms: N_6  and  C_15
REMARK    4  A    between atoms: N_6  and  C_17
REMARK    5  A    between atoms: C_8  and  C_14
REMARK    6  A    between atoms: C_9  and  C_15
REMARK    7  A    between atoms: C_14  and  C_16
REMARK    8  A    between atoms: C_17  and  C_18
REMARK                            x       y       z     vdW  Elec       q    Type
REMARK                         _______ _______ _______ _____ _____    ______ ____
ROOT
ATOM      6  N   UNL     1      -7.796 -10.715  19.701  0.00  0.00    -0.311 NA
ATOM     25  H   UNL     1      -8.072 -10.529  20.665  0.00  0.00    +0.122 HD
ENDROOT
BRANCH   6  15
ATOM     15  C   UNL     1      -8.952 -11.171  18.947  0.00  0.00    +0.100 C 
BRANCH  15   9
ATOM      5  N   UNL     1     -10.738 -10.413  17.355  0.00  0.00    -0.298 NA
ATOM      7  C   UNL     1      -9.298  -8.490  16.358  0.00  0.00    -0.004 C 
ATOM      8  C   UNL     1      -9.351  -9.697  15.393  0.00  0.00    +0.006 C 
ATOM      9  C   UNL     1      -9.707  -9.986  18.339  0.00  0.00    +0.071 C 
ATOM     10  C   UNL     1      -8.743  -8.950  17.719  0.00  0.00    +0.024 C 
ATOM     11  C   UNL     1     -10.094 -10.857  16.095  0.00  0.00    +0.088 C 
ATOM     12  C   UNL     1     -10.752  -8.036  16.588  0.00  0.00    +0.019 C 
ATOM     13  C   UNL     1     -11.592  -9.240  17.050  0.00  0.00    +0.085 C 
BRANCH   8  14
ATOM     14  C   UNL     1      -7.975 -10.131  14.893  0.00  0.00    +0.002 C 
ATOM     16  C   UNL     1      -7.713 -11.594  15.193  0.00  0.00    +0.004 C 
ENDBRANCH   8  14
ENDBRANCH  15   9
ENDBRANCH   6  15
BRANCH   6  17
ATOM     17  C   UNL     1      -6.731 -11.710  19.679  0.00  0.00    +0.116 C 
BRANCH  17  18
ATOM     18  C   UNL     1      -5.816 -11.526  18.498  0.00  0.00    -0.033 A 
ATOM     19  C   UNL     1      -5.271 -12.638  17.856  0.00  0.00    +0.008 A 
ATOM     20  C   UNL     1      -5.513 -10.241  18.046  0.00  0.00    +0.008 A 
ATOM     21  C   UNL     1      -4.423 -12.466  16.762  0.00  0.00    +0.046 A 
ATOM     22  C   UNL     1      -4.665 -10.069  16.952  0.00  0.00    +0.046 A 
ATOM     23  C   UNL     1      -4.120 -11.182  16.311  0.00  0.00    +0.130 A 
BRANCH  23   4
ATOM      4  O   UNL     1      -3.293 -11.013  15.242  0.00  0.00    -0.406 OA
BRANCH   4  24
ATOM      1  F   UNL     1      -1.683 -10.871  16.819  0.00  0.00    -0.133 F 
ATOM      2  F   UNL     1      -1.235 -11.979  14.989  0.00  0.00    -0.133 F 
ATOM      3  F   UNL     1      -1.392  -9.774  14.951  0.00  0.00    -0.133 F 
ATOM     24  C   UNL     1      -1.894 -10.909  15.483  0.00  0.00    +0.575 C 
ENDBRANCH   4  24
ENDBRANCH  23   4
ENDBRANCH  17  18
ENDBRANCH   6  17
TORSDOF 7
ENDMDL
MODEL 10
REMARK VINA RESULT:      -6.1     28.073     29.751
REMARK  Name = 44716348
REMARK  8 active torsions:
REMARK  status: ('A' for Active; 'I' for Inactive)
REMARK    1  A    between atoms: O_4  and  C_23
REMARK    2  A    between atoms: O_4  and  C_24
REMARK    3  A    between atoms: N_6  and  C_15
REMARK    4  A    between atoms: N_6  and  C_17
REMARK    5  A    between atoms: C_8  and  C_14
REMARK    6  A    between atoms: C_9  and  C_15
REMARK    7  A    between atoms: C_14  and  C_16
REMARK    8  A    between atoms: C_17  and  C_18
REMARK                            x       y       z     vdW  Elec       q    Type
REMARK                         _______ _______ _______ _____ _____    ______ ____
ROOT
ATOM      6  N   UNL     1      -9.707   9.622  17.830  0.00  0.00    -0.311 NA
ATOM     25  H   UNL     1      -8.700   9.465  17.808  0.00  0.00    +0.122 HD
ENDROOT
BRANCH   6  15
ATOM     15  C   UNL     1     -10.063  10.622  16.836  0.00  0.00    +0.100 C 
BRANCH  15   9
ATOM      5  N   UNL     1     -11.739  10.653  14.970  0.00  0.00    -0.298 NA
ATOM      7  C   UNL     1     -12.177   8.090  15.066  0.00  0.00    -0.004 C 
ATOM      8  C   UNL     1     -13.331   8.874  15.733  0.00  0.00    +0.006 C 
ATOM      9  C   UNL     1     -10.560   9.957  15.550  0.00  0.00    +0.071 C 
ATOM     10  C   UNL     1     -10.850   8.453  15.758  0.00  0.00    +0.024 C 
ATOM     11  C   UNL     1     -12.952  10.371  15.775  0.00  0.00    +0.088 C 
ATOM     12  C   UNL     1     -12.082   8.585  13.610  0.00  0.00    +0.019 C 
ATOM     13  C   UNL     1     -11.958  10.119  13.603  0.00  0.00    +0.085 C 
BRANCH   8  14
ATOM     14  C   UNL     1     -13.697   8.346  17.118  0.00  0.00    +0.002 C 
ATOM     16  C   UNL     1     -14.315   9.431  17.979  0.00  0.00    +0.004 C 
ENDBRANCH   8  14
ENDBRANCH  15   9
ENDBRANCH   6  15
BRANCH   6  17
ATOM     17  C   UNL     1     -10.107  10.047  19.166  0.00  0.00    +0.116 C 
BRANCH  17  18
ATOM     18  C   UNL     1     -11.049   9.063  19.808  0.00  0.00    -0.033 A 
ATOM     19  C   UNL     1     -11.970   9.499  20.761  0.00  0.00    +0.008 A 
ATOM     20  C   UNL     1     -10.999   7.716  19.450  0.00  0.00    +0.008 A 
ATOM     21  C   UNL     1     -12.843   8.586  21.355  0.00  0.00    +0.046 A 
ATOM     22  C   UNL     1     -11.870   6.804  20.045  0.00  0.00    +0.046 A 
ATOM     23  C   UNL     1     -12.792   7.239  20.997  0.00  0.00    +0.130 A 
BRANCH  23   4
ATOM      4  O   UNL     1     -13.643   6.348  21.577  0.00  0.00    -0.406 OA
BRANCH   4  24
ATOM      1  F   UNL     1     -15.045   6.719  19.846  0.00  0.00    -0.133 F 
ATOM      2  F   UNL     1     -15.516   5.085  21.219  0.00  0.00    -0.133 F 
ATOM      3  F   UNL     1     -15.752   7.187  21.860  0.00  0.00    -0.133 F 
ATOM     24  C   UNL     1     -14.998   6.329  21.141  0.00  0.00    +0.575 C 
ENDBRANCH   4  24
ENDBRANCH  23   4
ENDBRANCH  17  18
ENDBRANCH   6  17
TORSDOF 7
ENDMDL
