MODEL 1
REMARK VINA RESULT:      -6.7      0.000      0.000
REMARK  Name = 75536658
REMARK  8 active torsions:
REMARK  status: ('A' for Active; 'I' for Inactive)
REMARK    1  A    between atoms: S_1  and  N_7
REMARK    2  A    between atoms: S_1  and  C_16
REMARK    3  A    between atoms: O_3  and  C_10
REMARK    4  A    between atoms: N_6  and  C_9
REMARK    5  A    between atoms: N_6  and  C_14
REMARK    6  A    between atoms: N_7  and  C_13
REMARK    7  A    between atoms: C_11  and  C_13
REMARK    8  A    between atoms: C_14  and  C_15
REMARK                            x       y       z     vdW  Elec       q    Type
REMARK                         _______ _______ _______ _____ _____    ______ ____
ROOT
ATOM      2  O   UNL     1      10.919   8.729  20.139  0.00  0.00    -0.371 OA
ATOM      9  C   UNL     1      12.351   6.884  19.706  0.00  0.00    +0.111 C 
ATOM     10  C   UNL     1      11.999   6.902  21.183  0.00  0.00    +0.164 C 
ATOM     11  C   UNL     1      10.733   7.747  21.172  0.00  0.00    +0.164 C 
ATOM     12  C   UNL     1      12.007   8.307  19.298  0.00  0.00    +0.181 C 
ENDROOT
BRANCH  10   3
ATOM      3  O   UNL     1      11.767   5.608  21.704  0.00  0.00    -0.388 OA
ATOM     22  H   UNL     1      12.621   5.148  21.771  0.00  0.00    +0.210 HD
ENDBRANCH  10   3
BRANCH   9   6
ATOM      6  N   UNL     1      13.738   6.539  19.441  0.00  0.00    -0.303 NA
ATOM     21  H   UNL     1      14.005   6.904  18.527  0.00  0.00    +0.123 HD
BRANCH   6  14
ATOM     14  C   UNL     1      14.622   7.109  20.453  0.00  0.00    +0.137 C 
BRANCH  14  15
ATOM      8  N   UNL     1      16.333   6.012  19.115  0.00  0.00    -0.259 NA
ATOM     15  C   UNL     1      16.048   6.666  20.264  0.00  0.00    +0.055 A 
ATOM     17  C   UNL     1      16.981   6.943  21.250  0.00  0.00    +0.024 A 
ATOM     18  C   UNL     1      18.290   6.522  21.044  0.00  0.00    +0.003 A 
ATOM     19  C   UNL     1      17.614   5.618  18.950  0.00  0.00    +0.111 A 
ATOM     20  C   UNL     1      18.621   5.846  19.875  0.00  0.00    +0.020 A 
ENDBRANCH  14  15
ENDBRANCH   6  14
ENDBRANCH   9   6
BRANCH  11  13
ATOM     13  C   UNL     1      10.462   8.439  22.496  0.00  0.00    +0.139 C 
BRANCH  13   7
ATOM      7  N   UNL     1      11.625   9.267  22.871  0.00  0.00    -0.192 NA
ATOM     23  H   UNL     1      12.497   8.978  22.407  0.00  0.00    +0.148 HD
BRANCH   7   1
ATOM      1  S   UNL     1      11.413  10.944  23.102  0.00  0.00    +0.027 S 
ATOM      4  O   UNL     1      10.546  11.177  24.241  0.00  0.00    -0.158 OA
ATOM      5  O   UNL     1      11.128  11.552  21.816  0.00  0.00    -0.158 OA
ATOM     16  C   UNL     1      13.062  11.421  23.563  0.00  0.00    +0.214 C 
ENDBRANCH   7   1
ENDBRANCH  13   7
ENDBRANCH  11  13
TORSDOF 7
ENDMDL
MODEL 2
REMARK VINA RESULT:      -6.2      3.574      7.149
REMARK  Name = 75536658
REMARK  8 active torsions:
REMARK  status: ('A' for Active; 'I' for Inactive)
REMARK    1  A    between atoms: S_1  and  N_7
REMARK    2  A    between atoms: S_1  and  C_16
REMARK    3  A    between atoms: O_3  and  C_10
REMARK    4  A    between atoms: N_6  and  C_9
REMARK    5  A    between atoms: N_6  and  C_14
REMARK    6  A    between atoms: N_7  and  C_13
REMARK    7  A    between atoms: C_11  and  C_13
REMARK    8  A    between atoms: C_14  and  C_15
REMARK                            x       y       z     vdW  Elec       q    Type
REMARK                         _______ _______ _______ _____ _____    ______ ____
ROOT
ATOM      2  O   UNL     1      13.506   8.242  21.556  0.00  0.00    -0.371 OA
ATOM      9  C   UNL     1      11.395   8.922  22.404  0.00  0.00    +0.111 C 
ATOM     10  C   UNL     1      11.179   8.040  21.187  0.00  0.00    +0.164 C 
ATOM     11  C   UNL     1      12.509   7.303  21.121  0.00  0.00    +0.164 C 
ATOM     12  C   UNL     1      12.847   9.332  22.224  0.00  0.00    +0.181 C 
ENDROOT
BRANCH  10   3
ATOM      3  O   UNL     1      10.090   7.151  21.345  0.00  0.00    -0.388 OA
ATOM     22  H   UNL     1       9.286   7.594  21.025  0.00  0.00    +0.210 HD
ENDBRANCH  10   3
BRANCH   9   6
ATOM      6  N   UNL     1      10.490  10.058  22.468  0.00  0.00    -0.303 NA
ATOM     21  H   UNL     1      10.073  10.102  23.397  0.00  0.00    +0.123 HD
BRANCH   6  14
ATOM     14  C   UNL     1      11.197  11.307  22.210  0.00  0.00    +0.137 C 
BRANCH  14  15
ATOM      8  N   UNL     1      11.031  11.937  24.554  0.00  0.00    -0.259 NA
ATOM     15  C   UNL     1      10.916  12.340  23.269  0.00  0.00    +0.055 A 
ATOM     17  C   UNL     1      10.561  13.624  22.887  0.00  0.00    +0.024 A 
ATOM     18  C   UNL     1      10.309  14.554  23.890  0.00  0.00    +0.003 A 
ATOM     19  C   UNL     1      10.779  12.868  25.500  0.00  0.00    +0.111 A 
ATOM     20  C   UNL     1      10.417  14.177  25.223  0.00  0.00    +0.020 A 
ENDBRANCH  14  15
ENDBRANCH   6  14
ENDBRANCH   9   6
BRANCH  11  13
ATOM     13  C   UNL     1      12.848   6.801  19.728  0.00  0.00    +0.139 C 
BRANCH  13   7
ATOM      7  N   UNL     1      11.845   7.296  18.765  0.00  0.00    -0.192 NA
ATOM     23  H   UNL     1      10.973   7.611  19.211  0.00  0.00    +0.148 HD
BRANCH   7   1
ATOM      1  S   UNL     1      12.366   8.192  17.409  0.00  0.00    +0.027 S 
ATOM      4  O   UNL     1      11.231   8.504  16.561  0.00  0.00    -0.158 OA
ATOM      5  O   UNL     1      13.547   7.552  16.863  0.00  0.00    -0.158 OA
ATOM     16  C   UNL     1      12.892   9.697  18.195  0.00  0.00    +0.214 C 
ENDBRANCH   7   1
ENDBRANCH  13   7
ENDBRANCH  11  13
TORSDOF 7
ENDMDL
MODEL 3
REMARK VINA RESULT:      -6.1      1.740      2.043
REMARK  Name = 75536658
REMARK  8 active torsions:
REMARK  status: ('A' for Active; 'I' for Inactive)
REMARK    1  A    between atoms: S_1  and  N_7
REMARK    2  A    between atoms: S_1  and  C_16
REMARK    3  A    between atoms: O_3  and  C_10
REMARK    4  A    between atoms: N_6  and  C_9
REMARK    5  A    between atoms: N_6  and  C_14
REMARK    6  A    between atoms: N_7  and  C_13
REMARK    7  A    between atoms: C_11  and  C_13
REMARK    8  A    between atoms: C_14  and  C_15
REMARK                            x       y       z     vdW  Elec       q    Type
REMARK                         _______ _______ _______ _____ _____    ______ ____
ROOT
ATOM      2  O   UNL     1      10.463   8.591  21.914  0.00  0.00    -0.371 OA
ATOM      9  C   UNL     1      12.428   7.257  21.892  0.00  0.00    +0.111 C 
ATOM     10  C   UNL     1      12.824   8.723  21.880  0.00  0.00    +0.164 C 
ATOM     11  C   UNL     1      11.558   9.373  22.420  0.00  0.00    +0.164 C 
ATOM     12  C   UNL     1      10.978   7.334  21.442  0.00  0.00    +0.181 C 
ENDROOT
BRANCH  10   3
ATOM      3  O   UNL     1      13.946   8.991  22.698  0.00  0.00    -0.388 OA
ATOM     22  H   UNL     1      14.727   9.083  22.126  0.00  0.00    +0.210 HD
ENDBRANCH  10   3
BRANCH   9   6
ATOM      6  N   UNL     1      13.246   6.425  21.026  0.00  0.00    -0.303 NA
ATOM     21  H   UNL     1      12.641   5.808  20.485  0.00  0.00    +0.123 HD
BRANCH   6  14
ATOM     14  C   UNL     1      14.031   7.241  20.105  0.00  0.00    +0.137 C 
BRANCH  14  15
ATOM      8  N   UNL     1      15.882   6.232  18.889  0.00  0.00    -0.259 NA
ATOM     15  C   UNL     1      15.468   6.794  20.046  0.00  0.00    +0.055 A 
ATOM     17  C   UNL     1      16.281   6.977  21.153  0.00  0.00    +0.024 A 
ATOM     18  C   UNL     1      17.603   6.555  21.066  0.00  0.00    +0.003 A 
ATOM     19  C   UNL     1      17.172   5.834  18.841  0.00  0.00    +0.111 A 
ATOM     20  C   UNL     1      18.065   5.972  19.892  0.00  0.00    +0.020 A 
ENDBRANCH  14  15
ENDBRANCH   6  14
ENDBRANCH   9   6
BRANCH  11  13
ATOM     13  C   UNL     1      11.397  10.821  21.992  0.00  0.00    +0.139 C 
BRANCH  13   7
ATOM      7  N   UNL     1      12.246  11.685  22.835  0.00  0.00    -0.192 NA
ATOM     23  H   UNL     1      12.768  12.391  22.299  0.00  0.00    +0.148 HD
BRANCH   7   1
ATOM      1  S   UNL     1      11.674  12.170  24.368  0.00  0.00    +0.027 S 
ATOM      4  O   UNL     1      12.451  11.525  25.409  0.00  0.00    -0.158 OA
ATOM      5  O   UNL     1      10.226  12.088  24.364  0.00  0.00    -0.158 OA
ATOM     16  C   UNL     1      12.110  13.893  24.348  0.00  0.00    +0.214 C 
ENDBRANCH   7   1
ENDBRANCH  13   7
ENDBRANCH  11  13
TORSDOF 7
ENDMDL
MODEL 4
REMARK VINA RESULT:      -6.0      2.907      4.624
REMARK  Name = 75536658
REMARK  8 active torsions:
REMARK  status: ('A' for Active; 'I' for Inactive)
REMARK    1  A    between atoms: S_1  and  N_7
REMARK    2  A    between atoms: S_1  and  C_16
REMARK    3  A    between atoms: O_3  and  C_10
REMARK    4  A    between atoms: N_6  and  C_9
REMARK    5  A    between atoms: N_6  and  C_14
REMARK    6  A    between atoms: N_7  and  C_13
REMARK    7  A    between atoms: C_11  and  C_13
REMARK    8  A    between atoms: C_14  and  C_15
REMARK                            x       y       z     vdW  Elec       q    Type
REMARK                         _______ _______ _______ _____ _____    ______ ____
ROOT
ATOM      2  O   UNL     1      15.786   6.356  18.962  0.00  0.00    -0.371 OA
ATOM      9  C   UNL     1      16.920   6.375  21.049  0.00  0.00    +0.111 C 
ATOM     10  C   UNL     1      15.670   7.231  21.156  0.00  0.00    +0.164 C 
ATOM     11  C   UNL     1      14.846   6.692  19.995  0.00  0.00    +0.164 C 
ATOM     12  C   UNL     1      17.101   6.295  19.542  0.00  0.00    +0.181 C 
ENDROOT
BRANCH  10   3
ATOM      3  O   UNL     1      15.006   7.074  22.394  0.00  0.00    -0.388 OA
ATOM     22  H   UNL     1      14.606   6.188  22.416  0.00  0.00    +0.210 HD
ENDBRANCH  10   3
BRANCH   9   6
ATOM      6  N   UNL     1      18.073   6.941  21.728  0.00  0.00    -0.303 NA
ATOM     21  H   UNL     1      18.280   6.383  22.556  0.00  0.00    +0.123 HD
BRANCH   6  14
ATOM     14  C   UNL     1      19.244   6.946  20.858  0.00  0.00    +0.137 C 
BRANCH  14  15
ATOM      8  N   UNL     1      20.927   6.209  22.454  0.00  0.00    -0.259 NA
ATOM     15  C   UNL     1      20.275   5.942  21.301  0.00  0.00    +0.055 A 
ATOM     17  C   UNL     1      20.502   4.816  20.525  0.00  0.00    +0.024 A 
ATOM     18  C   UNL     1      21.460   3.907  20.963  0.00  0.00    +0.003 A 
ATOM     19  C   UNL     1      21.849   5.304  22.847  0.00  0.00    +0.111 A 
ATOM     20  C   UNL     1      22.150   4.149  22.145  0.00  0.00    +0.020 A 
ENDBRANCH  14  15
ENDBRANCH   6  14
ENDBRANCH   9   6
BRANCH  11  13
ATOM     13  C   UNL     1      13.832   7.691  19.464  0.00  0.00    +0.139 C 
BRANCH  13   7
ATOM      7  N   UNL     1      13.126   8.328  20.592  0.00  0.00    -0.192 NA
ATOM     23  H   UNL     1      13.557   9.212  20.895  0.00  0.00    +0.148 HD
BRANCH   7   1
ATOM      1  S   UNL     1      11.422   8.259  20.652  0.00  0.00    +0.027 S 
ATOM      4  O   UNL     1      10.884   8.212  19.306  0.00  0.00    -0.158 OA
ATOM      5  O   UNL     1      10.956   9.249  21.603  0.00  0.00    -0.158 OA
ATOM     16  C   UNL     1      11.187   6.659  21.391  0.00  0.00    +0.214 C 
ENDBRANCH   7   1
ENDBRANCH  13   7
ENDBRANCH  11  13
TORSDOF 7
ENDMDL
MODEL 5
REMARK VINA RESULT:      -5.7      1.765      2.301
REMARK  Name = 75536658
REMARK  8 active torsions:
REMARK  status: ('A' for Active; 'I' for Inactive)
REMARK    1  A    between atoms: S_1  and  N_7
REMARK    2  A    between atoms: S_1  and  C_16
REMARK    3  A    between atoms: O_3  and  C_10
REMARK    4  A    between atoms: N_6  and  C_9
REMARK    5  A    between atoms: N_6  and  C_14
REMARK    6  A    between atoms: N_7  and  C_13
REMARK    7  A    between atoms: C_11  and  C_13
REMARK    8  A    between atoms: C_14  and  C_15
REMARK                            x       y       z     vdW  Elec       q    Type
REMARK                         _______ _______ _______ _____ _____    ______ ____
ROOT
ATOM      2  O   UNL     1      13.478  11.394  20.937  0.00  0.00    -0.371 OA
ATOM      9  C   UNL     1      13.345   9.029  20.769  0.00  0.00    +0.111 C 
ATOM     10  C   UNL     1      12.056   9.556  21.375  0.00  0.00    +0.164 C 
ATOM     11  C   UNL     1      12.094  11.009  20.923  0.00  0.00    +0.164 C 
ATOM     12  C   UNL     1      14.284  10.203  20.991  0.00  0.00    +0.181 C 
ENDROOT
BRANCH  10   3
ATOM      3  O   UNL     1      10.911   8.882  20.891  0.00  0.00    -0.388 OA
ATOM     22  H   UNL     1      10.218   9.542  20.718  0.00  0.00    +0.210 HD
ENDBRANCH  10   3
BRANCH   9   6
ATOM      6  N   UNL     1      13.819   7.801  21.386  0.00  0.00    -0.303 NA
ATOM     21  H   UNL     1      13.095   7.436  22.004  0.00  0.00    +0.123 HD
BRANCH   6  14
ATOM     14  C   UNL     1      14.129   6.793  20.377  0.00  0.00    +0.137 C 
BRANCH  14  15
ATOM      8  N   UNL     1      16.058   6.067  19.084  0.00  0.00    -0.259 NA
ATOM     15  C   UNL     1      15.611   6.552  20.264  0.00  0.00    +0.055 A 
ATOM     17  C   UNL     1      16.429   6.832  21.347  0.00  0.00    +0.024 A 
ATOM     18  C   UNL     1      17.793   6.599  21.209  0.00  0.00    +0.003 A 
ATOM     19  C   UNL     1      17.389   5.854  18.987  0.00  0.00    +0.111 A 
ATOM     20  C   UNL     1      18.290   6.101  20.010  0.00  0.00    +0.020 A 
ENDBRANCH  14  15
ENDBRANCH   6  14
ENDBRANCH   9   6
BRANCH  11  13
ATOM     13  C   UNL     1      11.293  11.936  21.821  0.00  0.00    +0.139 C 
BRANCH  13   7
ATOM      7  N   UNL     1      10.873  11.211  23.035  0.00  0.00    -0.192 NA
ATOM     23  H   UNL     1      10.936  10.188  22.941  0.00  0.00    +0.148 HD
BRANCH   7   1
ATOM      1  S   UNL     1      11.266  11.854  24.566  0.00  0.00    +0.027 S 
ATOM      4  O   UNL     1      10.887  10.917  25.605  0.00  0.00    -0.158 OA
ATOM      5  O   UNL     1      10.821  13.234  24.612  0.00  0.00    -0.158 OA
ATOM     16  C   UNL     1      13.041  11.871  24.466  0.00  0.00    +0.214 C 
ENDBRANCH   7   1
ENDBRANCH  13   7
ENDBRANCH  11  13
TORSDOF 7
ENDMDL
MODEL 6
REMARK VINA RESULT:      -5.6      3.921      5.498
REMARK  Name = 75536658
REMARK  8 active torsions:
REMARK  status: ('A' for Active; 'I' for Inactive)
REMARK    1  A    between atoms: S_1  and  N_7
REMARK    2  A    between atoms: S_1  and  C_16
REMARK    3  A    between atoms: O_3  and  C_10
REMARK    4  A    between atoms: N_6  and  C_9
REMARK    5  A    between atoms: N_6  and  C_14
REMARK    6  A    between atoms: N_7  and  C_13
REMARK    7  A    between atoms: C_11  and  C_13
REMARK    8  A    between atoms: C_14  and  C_15
REMARK                            x       y       z     vdW  Elec       q    Type
REMARK                         _______ _______ _______ _____ _____    ______ ____
ROOT
ATOM      2  O   UNL     1      15.995   6.188  18.865  0.00  0.00    -0.371 OA
ATOM      9  C   UNL     1      17.028   6.300  21.001  0.00  0.00    +0.111 C 
ATOM     10  C   UNL     1      15.807   7.203  20.993  0.00  0.00    +0.164 C 
ATOM     11  C   UNL     1      15.020   6.620  19.828  0.00  0.00    +0.164 C 
ATOM     12  C   UNL     1      17.277   6.119  19.512  0.00  0.00    +0.181 C 
ENDROOT
BRANCH  10   3
ATOM      3  O   UNL     1      15.079   7.146  22.204  0.00  0.00    -0.388 OA
ATOM     22  H   UNL     1      14.397   6.459  22.118  0.00  0.00    +0.210 HD
ENDBRANCH  10   3
BRANCH   9   6
ATOM      6  N   UNL     1      18.168   6.867  21.701  0.00  0.00    -0.303 NA
ATOM     21  H   UNL     1      18.355   6.315  22.538  0.00  0.00    +0.123 HD
BRANCH   6  14
ATOM     14  C   UNL     1      19.358   6.862  20.857  0.00  0.00    +0.137 C 
BRANCH  14  15
ATOM      8  N   UNL     1      20.582   4.785  20.525  0.00  0.00    -0.259 NA
ATOM     15  C   UNL     1      20.373   5.853  21.327  0.00  0.00    +0.055 A 
ATOM     17  C   UNL     1      21.031   6.062  22.528  0.00  0.00    +0.024 A 
ATOM     18  C   UNL     1      21.964   5.113  22.932  0.00  0.00    +0.003 A 
ATOM     19  C   UNL     1      21.495   3.885  20.950  0.00  0.00    +0.111 A 
ATOM     20  C   UNL     1      22.206   4.001  22.134  0.00  0.00    +0.020 A 
ENDBRANCH  14  15
ENDBRANCH   6  14
ENDBRANCH   9   6
BRANCH  11  13
ATOM     13  C   UNL     1      14.071   7.617  19.186  0.00  0.00    +0.139 C 
BRANCH  13   7
ATOM      7  N   UNL     1      14.080   7.439  17.721  0.00  0.00    -0.192 NA
ATOM     23  H   UNL     1      13.675   6.544  17.418  0.00  0.00    +0.148 HD
BRANCH   7   1
ATOM      1  S   UNL     1      13.776   8.785  16.718  0.00  0.00    +0.027 S 
ATOM      4  O   UNL     1      13.879   8.394  15.325  0.00  0.00    -0.158 OA
ATOM      5  O   UNL     1      14.526   9.917  17.228  0.00  0.00    -0.158 OA
ATOM     16  C   UNL     1      12.060   9.079  17.078  0.00  0.00    +0.214 C 
ENDBRANCH   7   1
ENDBRANCH  13   7
ENDBRANCH  11  13
TORSDOF 7
ENDMDL
MODEL 7
REMARK VINA RESULT:      -5.6      2.809      4.244
REMARK  Name = 75536658
REMARK  8 active torsions:
REMARK  status: ('A' for Active; 'I' for Inactive)
REMARK    1  A    between atoms: S_1  and  N_7
REMARK    2  A    between atoms: S_1  and  C_16
REMARK    3  A    between atoms: O_3  and  C_10
REMARK    4  A    between atoms: N_6  and  C_9
REMARK    5  A    between atoms: N_6  and  C_14
REMARK    6  A    between atoms: N_7  and  C_13
REMARK    7  A    between atoms: C_11  and  C_13
REMARK    8  A    between atoms: C_14  and  C_15
REMARK                            x       y       z     vdW  Elec       q    Type
REMARK                         _______ _______ _______ _____ _____    ______ ____
ROOT
ATOM      2  O   UNL     1      15.289   6.862  19.007  0.00  0.00    -0.371 OA
ATOM      9  C   UNL     1      16.463   6.361  21.010  0.00  0.00    +0.111 C 
ATOM     10  C   UNL     1      15.369   7.369  21.315  0.00  0.00    +0.164 C 
ATOM     11  C   UNL     1      14.440   7.162  20.127  0.00  0.00    +0.164 C 
ATOM     12  C   UNL     1      16.592   6.505  19.502  0.00  0.00    +0.181 C 
ENDROOT
BRANCH  10   3
ATOM      3  O   UNL     1      14.718   7.112  22.544  0.00  0.00    -0.388 OA
ATOM     22  H   UNL     1      14.033   6.439  22.392  0.00  0.00    +0.210 HD
ENDBRANCH  10   3
BRANCH   9   6
ATOM      6  N   UNL     1      17.708   6.623  21.712  0.00  0.00    -0.303 NA
ATOM     21  H   UNL     1      18.408   5.943  21.416  0.00  0.00    +0.123 HD
BRANCH   6  14
ATOM     14  C   UNL     1      18.201   7.965  21.422  0.00  0.00    +0.137 C 
BRANCH  14  15
ATOM      8  N   UNL     1      20.324   9.146  21.277  0.00  0.00    -0.259 NA
ATOM     15  C   UNL     1      19.678   7.967  21.129  0.00  0.00    +0.055 A 
ATOM     17  C   UNL     1      20.293   6.791  20.731  0.00  0.00    +0.024 A 
ATOM     18  C   UNL     1      21.658   6.827  20.470  0.00  0.00    +0.003 A 
ATOM     19  C   UNL     1      21.649   9.142  21.014  0.00  0.00    +0.111 A 
ATOM     20  C   UNL     1      22.356   8.021  20.611  0.00  0.00    +0.020 A 
ENDBRANCH  14  15
ENDBRANCH   6  14
ENDBRANCH   9   6
BRANCH  11  13
ATOM     13  C   UNL     1      13.587   8.379  19.813  0.00  0.00    +0.139 C 
BRANCH  13   7
ATOM      7  N   UNL     1      12.780   8.737  20.997  0.00  0.00    -0.192 NA
ATOM     23  H   UNL     1      13.061   9.628  21.426  0.00  0.00    +0.148 HD
BRANCH   7   1
ATOM      1  S   UNL     1      11.110   8.389  21.000  0.00  0.00    +0.027 S 
ATOM      4  O   UNL     1      10.602   8.400  19.642  0.00  0.00    -0.158 OA
ATOM      5  O   UNL     1      10.478   9.186  22.035  0.00  0.00    -0.158 OA
ATOM     16  C   UNL     1      11.129   6.703  21.564  0.00  0.00    +0.214 C 
ENDBRANCH   7   1
ENDBRANCH  13   7
ENDBRANCH  11  13
TORSDOF 7
ENDMDL
MODEL 8
REMARK VINA RESULT:      -5.6      4.234      6.421
REMARK  Name = 75536658
REMARK  8 active torsions:
REMARK  status: ('A' for Active; 'I' for Inactive)
REMARK    1  A    between atoms: S_1  and  N_7
REMARK    2  A    between atoms: S_1  and  C_16
REMARK    3  A    between atoms: O_3  and  C_10
REMARK    4  A    between atoms: N_6  and  C_9
REMARK    5  A    between atoms: N_6  and  C_14
REMARK    6  A    between atoms: N_7  and  C_13
REMARK    7  A    between atoms: C_11  and  C_13
REMARK    8  A    between atoms: C_14  and  C_15
REMARK                            x       y       z     vdW  Elec       q    Type
REMARK                         _______ _______ _______ _____ _____    ______ ____
ROOT
ATOM      2  O   UNL     1      17.263   7.342  21.019  0.00  0.00    -0.371 OA
ATOM      9  C   UNL     1      18.989   6.067  19.999  0.00  0.00    +0.111 C 
ATOM     10  C   UNL     1      17.653   5.660  19.402  0.00  0.00    +0.164 C 
ATOM     11  C   UNL     1      16.799   6.873  19.742  0.00  0.00    +0.164 C 
ATOM     12  C   UNL     1      18.548   6.751  21.283  0.00  0.00    +0.181 C 
ENDROOT
BRANCH  10   3
ATOM      3  O   UNL     1      17.724   5.438  18.007  0.00  0.00    -0.388 OA
ATOM     22  H   UNL     1      17.545   4.498  17.838  0.00  0.00    +0.210 HD
ENDBRANCH  10   3
BRANCH   9   6
ATOM      6  N   UNL     1      19.887   4.949  20.232  0.00  0.00    -0.303 NA
ATOM     21  H   UNL     1      20.252   4.620  19.338  0.00  0.00    +0.123 HD
BRANCH   6  14
ATOM     14  C   UNL     1      21.007   5.345  21.080  0.00  0.00    +0.137 C 
BRANCH  14  15
ATOM      8  N   UNL     1      23.285   5.049  20.276  0.00  0.00    -0.259 NA
ATOM     15  C   UNL     1      22.213   4.470  20.861  0.00  0.00    +0.055 A 
ATOM     17  C   UNL     1      22.170   3.143  21.259  0.00  0.00    +0.024 A 
ATOM     18  C   UNL     1      23.300   2.363  21.044  0.00  0.00    +0.003 A 
ATOM     19  C   UNL     1      24.364   4.260  20.082  0.00  0.00    +0.111 A 
ATOM     20  C   UNL     1      24.422   2.924  20.445  0.00  0.00    +0.020 A 
ENDBRANCH  14  15
ENDBRANCH   6  14
ENDBRANCH   9   6
BRANCH  11  13
ATOM     13  C   UNL     1      15.315   6.559  19.819  0.00  0.00    +0.139 C 
BRANCH  13   7
ATOM      7  N   UNL     1      14.623   7.144  18.653  0.00  0.00    -0.192 NA
ATOM     23  H   UNL     1      14.872   6.692  17.763  0.00  0.00    +0.148 HD
BRANCH   7   1
ATOM      1  S   UNL     1      13.002   7.651  18.816  0.00  0.00    +0.027 S 
ATOM      4  O   UNL     1      12.206   7.108  17.733  0.00  0.00    -0.158 OA
ATOM      5  O   UNL     1      12.993   9.072  19.104  0.00  0.00    -0.158 OA
ATOM     16  C   UNL     1      12.544   6.803  20.310  0.00  0.00    +0.214 C 
ENDBRANCH   7   1
ENDBRANCH  13   7
ENDBRANCH  11  13
TORSDOF 7
ENDMDL
MODEL 9
REMARK VINA RESULT:      -5.6     26.793     28.623
REMARK  Name = 75536658
REMARK  8 active torsions:
REMARK  status: ('A' for Active; 'I' for Inactive)
REMARK    1  A    between atoms: S_1  and  N_7
REMARK    2  A    between atoms: S_1  and  C_16
REMARK    3  A    between atoms: O_3  and  C_10
REMARK    4  A    between atoms: N_6  and  C_9
REMARK    5  A    between atoms: N_6  and  C_14
REMARK    6  A    between atoms: N_7  and  C_13
REMARK    7  A    between atoms: C_11  and  C_13
REMARK    8  A    between atoms: C_14  and  C_15
REMARK                            x       y       z     vdW  Elec       q    Type
REMARK                         _______ _______ _______ _____ _____    ______ ____
ROOT
ATOM      2  O   UNL     1     -12.401  -7.507  16.571  0.00  0.00    -0.371 OA
ATOM      9  C   UNL     1     -10.031  -7.636  16.658  0.00  0.00    +0.111 C 
ATOM     10  C   UNL     1     -10.435  -6.712  15.523  0.00  0.00    +0.164 C 
ATOM     11  C   UNL     1     -11.851  -6.339  15.940  0.00  0.00    +0.164 C 
ATOM     12  C   UNL     1     -11.322  -8.401  16.898  0.00  0.00    +0.181 C 
ENDROOT
BRANCH  10   3
ATOM      3  O   UNL     1      -9.598  -5.577  15.420  0.00  0.00    -0.388 OA
ATOM     22  H   UNL     1     -10.131  -4.786  15.609  0.00  0.00    +0.210 HD
ENDBRANCH  10   3
BRANCH   9   6
ATOM      6  N   UNL     1      -8.911  -8.504  16.333  0.00  0.00    -0.303 NA
ATOM     21  H   UNL     1      -8.100  -7.930  16.100  0.00  0.00    +0.123 HD
BRANCH   6  14
ATOM     14  C   UNL     1      -8.571  -9.366  17.459  0.00  0.00    +0.137 C 
BRANCH  14  15
ATOM      8  N   UNL     1      -6.459  -9.561  16.266  0.00  0.00    -0.259 NA
ATOM     15  C   UNL     1      -7.132  -9.807  17.413  0.00  0.00    +0.055 A 
ATOM     17  C   UNL     1      -6.576 -10.428  18.519  0.00  0.00    +0.024 A 
ATOM     18  C   UNL     1      -5.245 -10.822  18.445  0.00  0.00    +0.003 A 
ATOM     19  C   UNL     1      -5.168  -9.957  16.231  0.00  0.00    +0.111 A 
ATOM     20  C   UNL     1      -4.520 -10.585  17.282  0.00  0.00    +0.020 A 
ENDBRANCH  14  15
ENDBRANCH   6  14
ENDBRANCH   9   6
BRANCH  11  13
ATOM     13  C   UNL     1     -12.729  -5.923  14.773  0.00  0.00    +0.139 C 
BRANCH  13   7
ATOM      7  N   UNL     1     -11.947  -5.097  13.833  0.00  0.00    -0.192 NA
ATOM     23  H   UNL     1     -11.045  -5.519  13.573  0.00  0.00    +0.148 HD
BRANCH   7   1
ATOM      1  S   UNL     1     -12.761  -4.239  12.603  0.00  0.00    +0.027 S 
ATOM      4  O   UNL     1     -12.171  -2.923  12.448  0.00  0.00    -0.158 OA
ATOM      5  O   UNL     1     -14.189  -4.394  12.804  0.00  0.00    -0.158 OA
ATOM     16  C   UNL     1     -12.316  -5.208  11.180  0.00  0.00    +0.214 C 
ENDBRANCH   7   1
ENDBRANCH  13   7
ENDBRANCH  11  13
TORSDOF 7
ENDMDL
MODEL 10
REMARK VINA RESULT:      -5.5      5.222      8.197
REMARK  Name = 75536658
REMARK  8 active torsions:
REMARK  status: ('A' for Active; 'I' for Inactive)
REMARK    1  A    between atoms: S_1  and  N_7
REMARK    2  A    between atoms: S_1  and  C_16
REMARK    3  A    between atoms: O_3  and  C_10
REMARK    4  A    between atoms: N_6  and  C_9
REMARK    5  A    between atoms: N_6  and  C_14
REMARK    6  A    between atoms: N_7  and  C_13
REMARK    7  A    between atoms: C_11  and  C_13
REMARK    8  A    between atoms: C_14  and  C_15
REMARK                            x       y       z     vdW  Elec       q    Type
REMARK                         _______ _______ _______ _____ _____    ______ ____
ROOT
ATOM      2  O   UNL     1      18.273   7.440  21.671  0.00  0.00    -0.371 OA
ATOM      9  C   UNL     1      16.884   6.189  20.206  0.00  0.00    +0.111 C 
ATOM     10  C   UNL     1      18.322   6.092  19.728  0.00  0.00    +0.164 C 
ATOM     11  C   UNL     1      19.077   6.457  20.999  0.00  0.00    +0.164 C 
ATOM     12  C   UNL     1      16.949   7.409  21.110  0.00  0.00    +0.181 C 
ENDROOT
BRANCH  10   3
ATOM      3  O   UNL     1      18.658   4.798  19.267  0.00  0.00    -0.388 OA
ATOM     22  H   UNL     1      18.000   4.530  18.603  0.00  0.00    +0.210 HD
ENDBRANCH  10   3
BRANCH   9   6
ATOM      6  N   UNL     1      15.921   6.334  19.127  0.00  0.00    -0.303 NA
ATOM     21  H   UNL     1      15.772   5.426  18.687  0.00  0.00    +0.123 HD
BRANCH   6  14
ATOM     14  C   UNL     1      14.643   6.828  19.628  0.00  0.00    +0.137 C 
BRANCH  14  15
ATOM      8  N   UNL     1      13.441   8.924  19.335  0.00  0.00    -0.259 NA
ATOM     15  C   UNL     1      14.060   7.886  18.729  0.00  0.00    +0.055 A 
ATOM     17  C   UNL     1      14.183   7.752  17.355  0.00  0.00    +0.024 A 
ATOM     18  C   UNL     1      13.636   8.747  16.553  0.00  0.00    +0.003 A 
ATOM     19  C   UNL     1      12.921   9.870  18.523  0.00  0.00    +0.111 A 
ATOM     20  C   UNL     1      12.991   9.829  17.140  0.00  0.00    +0.020 A 
ENDBRANCH  14  15
ENDBRANCH   6  14
ENDBRANCH   9   6
BRANCH  11  13
ATOM     13  C   UNL     1      20.462   7.021  20.733  0.00  0.00    +0.139 C 
BRANCH  13   7
ATOM      7  N   UNL     1      21.331   5.963  20.182  0.00  0.00    -0.192 NA
ATOM     23  H   UNL     1      22.051   6.321  19.540  0.00  0.00    +0.148 HD
BRANCH   7   1
ATOM      1  S   UNL     1      21.793   4.661  21.184  0.00  0.00    +0.027 S 
ATOM      4  O   UNL     1      21.034   3.477  20.832  0.00  0.00    -0.158 OA
ATOM      5  O   UNL     1      21.840   5.132  22.555  0.00  0.00    -0.158 OA
ATOM     16  C   UNL     1      23.470   4.416  20.648  0.00  0.00    +0.214 C 
ENDBRANCH   7   1
ENDBRANCH  13   7
ENDBRANCH  11  13
TORSDOF 7
ENDMDL
