MODEL 1
REMARK VINA RESULT:      -6.4      0.000      0.000
REMARK  Name = 11912809
REMARK  7 active torsions:
REMARK  status: ('A' for Active; 'I' for Inactive)
REMARK    1  A    between atoms: O_3  and  C_12
REMARK    2  A    between atoms: O_3  and  C_16
REMARK    3  A    between atoms: O_4  and  C_17
REMARK    4  A    between atoms: O_4  and  C_24
REMARK    5  A    between atoms: N_6  and  C_11
REMARK    6  A    between atoms: C_16  and  C_17
REMARK    7  A    between atoms: C_18  and  C_21
REMARK                            x       y       z     vdW  Elec       q    Type
REMARK                         _______ _______ _______ _____ _____    ______ ____
ROOT
ATOM      6  N   UNL     1      10.254   6.402   1.813  0.00  0.00    -0.306 N 
ATOM      7  N   UNL     1       9.700   6.370   4.094  0.00  0.00    -0.214 NA
ATOM      8  N   UNL     1       8.686   7.962   2.596  0.00  0.00    -0.223 NA
ATOM     15  C   UNL     1       9.525   6.927   2.865  0.00  0.00    +0.216 A 
ATOM     18  C   UNL     1       8.974   6.905   5.096  0.00  0.00    +0.076 A 
ATOM     19  C   UNL     1       7.990   8.449   3.644  0.00  0.00    +0.116 A 
ATOM     20  C   UNL     1       8.094   7.956   4.930  0.00  0.00    +0.048 A 
ATOM     28  H   UNL     1      10.155   6.860   0.913  0.00  0.00    +0.149 HD
ENDROOT
BRANCH   6  11
ATOM      1  O   UNL     1      10.577   3.705   0.300  0.00  0.00    -0.369 OA
ATOM      2  O   UNL     1      13.372   4.573   1.219  0.00  0.00    -0.369 OA
ATOM      9  C   UNL     1      12.209   5.338   0.843  0.00  0.00    +0.172 C 
ATOM     10  C   UNL     1      11.540   4.590  -0.294  0.00  0.00    +0.180 C 
ATOM     11  C   UNL     1      11.186   5.304   1.953  0.00  0.00    +0.130 C 
ATOM     12  C   UNL     1      12.692   3.831  -0.909  0.00  0.00    +0.176 C 
ATOM     13  C   UNL     1      10.483   3.981   1.706  0.00  0.00    +0.185 C 
ATOM     14  C   UNL     1      13.524   3.477   0.303  0.00  0.00    +0.194 C 
BRANCH  12   3
ATOM      3  O   UNL     1      12.292   2.689  -1.630  0.00  0.00    -0.360 OA
BRANCH   3  16
ATOM     16  C   UNL     1      11.916   3.007  -2.968  0.00  0.00    +0.280 C 
BRANCH  16  17
ATOM      5  O   UNL     1       9.976   1.568  -2.772  0.00  0.00    -0.248 OA
ATOM     17  C   UNL     1      10.480   2.605  -3.179  0.00  0.00    +0.333 C 
BRANCH  17   4
ATOM      4  O   UNL     1       9.845   3.583  -3.889  0.00  0.00    -0.466 OA
ATOM     24  C   UNL     1      10.502   4.854  -3.911  0.00  0.00    +0.280 C 
ENDBRANCH  17   4
ENDBRANCH  16  17
ENDBRANCH   3  16
ENDBRANCH  12   3
ENDBRANCH   6  11
BRANCH  18  21
ATOM     21  C   UNL     1       9.175   6.300   6.390  0.00  0.00    +0.001 A 
ATOM     22  C   UNL     1       8.879   7.014   7.553  0.00  0.00    +0.010 A 
ATOM     23  C   UNL     1       9.668   4.996   6.485  0.00  0.00    +0.010 A 
ATOM     25  C   UNL     1       9.074   6.428   8.804  0.00  0.00    +0.001 A 
ATOM     26  C   UNL     1       9.863   4.410   7.735  0.00  0.00    +0.001 A 
ATOM     27  C   UNL     1       9.566   5.127   8.895  0.00  0.00    +0.000 A 
ENDBRANCH  18  21
TORSDOF 6
ENDMDL
MODEL 2
REMARK VINA RESULT:      -6.3     23.071     24.610
REMARK  Name = 11912809
REMARK  7 active torsions:
REMARK  status: ('A' for Active; 'I' for Inactive)
REMARK    1  A    between atoms: O_3  and  C_12
REMARK    2  A    between atoms: O_3  and  C_16
REMARK    3  A    between atoms: O_4  and  C_17
REMARK    4  A    between atoms: O_4  and  C_24
REMARK    5  A    between atoms: N_6  and  C_11
REMARK    6  A    between atoms: C_16  and  C_17
REMARK    7  A    between atoms: C_18  and  C_21
REMARK                            x       y       z     vdW  Elec       q    Type
REMARK                         _______ _______ _______ _____ _____    ______ ____
ROOT
ATOM      6  N   UNL     1      -3.675 -10.622  12.473  0.00  0.00    -0.306 N 
ATOM      7  N   UNL     1      -4.110 -10.700  14.778  0.00  0.00    -0.214 NA
ATOM      8  N   UNL     1      -1.849 -10.683  13.945  0.00  0.00    -0.223 NA
ATOM     15  C   UNL     1      -3.197 -10.670  13.771  0.00  0.00    +0.216 A 
ATOM     18  C   UNL     1      -3.609 -10.746  16.030  0.00  0.00    +0.076 A 
ATOM     19  C   UNL     1      -1.417 -10.729  15.222  0.00  0.00    +0.116 A 
ATOM     20  C   UNL     1      -2.259 -10.763  16.316  0.00  0.00    +0.048 A 
ATOM     28  H   UNL     1      -2.987 -10.653  11.729  0.00  0.00    +0.149 HD
ENDROOT
BRANCH   6  11
ATOM      1  O   UNL     1      -5.553  -8.407  11.362  0.00  0.00    -0.369 OA
ATOM      2  O   UNL     1      -6.600 -11.095  10.318  0.00  0.00    -0.369 OA
ATOM      9  C   UNL     1      -5.267 -10.648  10.640  0.00  0.00    +0.172 C 
ATOM     10  C   UNL     1      -5.178  -9.194  10.220  0.00  0.00    +0.180 C 
ATOM     11  C   UNL     1      -5.083 -10.606  12.138  0.00  0.00    +0.130 C 
ATOM     12  C   UNL     1      -6.209  -9.108   9.119  0.00  0.00    +0.176 C 
ATOM     13  C   UNL     1      -5.697  -9.266  12.504  0.00  0.00    +0.185 C 
ATOM     14  C   UNL     1      -7.285 -10.046   9.616  0.00  0.00    +0.194 C 
BRANCH  12   3
ATOM      3  O   UNL     1      -6.699  -7.804   8.907  0.00  0.00    -0.360 OA
BRANCH   3  16
ATOM     16  C   UNL     1      -8.116  -7.784   8.755  0.00  0.00    +0.280 C 
BRANCH  16  17
ATOM      5  O   UNL     1      -8.548  -6.904   6.538  0.00  0.00    -0.248 OA
ATOM     17  C   UNL     1      -8.483  -6.727   7.746  0.00  0.00    +0.333 C 
BRANCH  17   4
ATOM      4  O   UNL     1      -8.728  -5.554   8.402  0.00  0.00    -0.466 OA
ATOM     24  C   UNL     1     -10.109  -5.225   8.579  0.00  0.00    +0.280 C 
ENDBRANCH  17   4
ENDBRANCH  16  17
ENDBRANCH   3  16
ENDBRANCH  12   3
ENDBRANCH   6  11
BRANCH  18  21
ATOM     21  C   UNL     1      -4.595 -10.778  17.083  0.00  0.00    +0.001 A 
ATOM     22  C   UNL     1      -4.323 -11.448  18.278  0.00  0.00    +0.010 A 
ATOM     23  C   UNL     1      -5.825 -10.138  16.912  0.00  0.00    +0.010 A 
ATOM     25  C   UNL     1      -5.276 -11.478  19.296  0.00  0.00    +0.001 A 
ATOM     26  C   UNL     1      -6.778 -10.168  17.930  0.00  0.00    +0.001 A 
ATOM     27  C   UNL     1      -6.503 -10.839  19.122  0.00  0.00    +0.000 A 
ENDBRANCH  18  21
TORSDOF 6
ENDMDL
MODEL 3
REMARK VINA RESULT:      -6.3     14.308     17.899
REMARK  Name = 11912809
REMARK  7 active torsions:
REMARK  status: ('A' for Active; 'I' for Inactive)
REMARK    1  A    between atoms: O_3  and  C_12
REMARK    2  A    between atoms: O_3  and  C_16
REMARK    3  A    between atoms: O_4  and  C_17
REMARK    4  A    between atoms: O_4  and  C_24
REMARK    5  A    between atoms: N_6  and  C_11
REMARK    6  A    between atoms: C_16  and  C_17
REMARK    7  A    between atoms: C_18  and  C_21
REMARK                            x       y       z     vdW  Elec       q    Type
REMARK                         _______ _______ _______ _____ _____    ______ ____
ROOT
ATOM      6  N   UNL     1      13.277   6.800  19.581  0.00  0.00    -0.306 N 
ATOM      7  N   UNL     1      12.275   8.448  20.919  0.00  0.00    -0.214 NA
ATOM      8  N   UNL     1      11.450   6.184  20.918  0.00  0.00    -0.223 NA
ATOM     15  C   UNL     1      12.305   7.155  20.500  0.00  0.00    +0.216 A 
ATOM     18  C   UNL     1      11.316   8.759  21.814  0.00  0.00    +0.076 A 
ATOM     19  C   UNL     1      10.516   6.564  21.815  0.00  0.00    +0.116 A 
ATOM     20  C   UNL     1      10.399   7.850  22.303  0.00  0.00    +0.048 A 
ATOM     28  H   UNL     1      13.256   5.846  19.237  0.00  0.00    +0.149 HD
ENDROOT
BRANCH   6  11
ATOM      1  O   UNL     1      13.899   7.772  16.694  0.00  0.00    -0.369 OA
ATOM      2  O   UNL     1      14.570  10.083  18.597  0.00  0.00    -0.369 OA
ATOM      9  C   UNL     1      13.585   9.032  18.679  0.00  0.00    +0.172 C 
ATOM     10  C   UNL     1      13.075   8.799  17.270  0.00  0.00    +0.180 C 
ATOM     11  C   UNL     1      14.250   7.728  19.046  0.00  0.00    +0.130 C 
ATOM     12  C   UNL     1      13.307  10.138  16.611  0.00  0.00    +0.176 C 
ATOM     13  C   UNL     1      14.766   7.236  17.705  0.00  0.00    +0.185 C 
ATOM     14  C   UNL     1      14.600  10.589  17.253  0.00  0.00    +0.194 C 
BRANCH  12   3
ATOM      3  O   UNL     1      13.409  10.064  15.208  0.00  0.00    -0.360 OA
BRANCH   3  16
ATOM     16  C   UNL     1      14.309  11.040  14.687  0.00  0.00    +0.280 C 
BRANCH  16  17
ATOM      5  O   UNL     1      13.725  13.343  14.207  0.00  0.00    -0.248 OA
ATOM     17  C   UNL     1      13.511  12.148  14.052  0.00  0.00    +0.333 C 
BRANCH  17   4
ATOM      4  O   UNL     1      12.524  11.601  13.283  0.00  0.00    -0.466 OA
ATOM     24  C   UNL     1      11.723  12.535  12.553  0.00  0.00    +0.280 C 
ENDBRANCH  17   4
ENDBRANCH  16  17
ENDBRANCH   3  16
ENDBRANCH  12   3
ENDBRANCH   6  11
BRANCH  18  21
ATOM     21  C   UNL     1      11.302  10.136  22.245  0.00  0.00    +0.001 A 
ATOM     22  C   UNL     1      11.700  11.149  21.369  0.00  0.00    +0.010 A 
ATOM     23  C   UNL     1      10.892  10.462  23.540  0.00  0.00    +0.010 A 
ATOM     25  C   UNL     1      11.686  12.480  21.786  0.00  0.00    +0.001 A 
ATOM     26  C   UNL     1      10.878  11.793  23.957  0.00  0.00    +0.001 A 
ATOM     27  C   UNL     1      11.276  12.802  23.079  0.00  0.00    +0.000 A 
ENDBRANCH  18  21
TORSDOF 6
ENDMDL
MODEL 4
REMARK VINA RESULT:      -6.2      3.463      9.045
REMARK  Name = 11912809
REMARK  7 active torsions:
REMARK  status: ('A' for Active; 'I' for Inactive)
REMARK    1  A    between atoms: O_3  and  C_12
REMARK    2  A    between atoms: O_3  and  C_16
REMARK    3  A    between atoms: O_4  and  C_17
REMARK    4  A    between atoms: O_4  and  C_24
REMARK    5  A    between atoms: N_6  and  C_11
REMARK    6  A    between atoms: C_16  and  C_17
REMARK    7  A    between atoms: C_18  and  C_21
REMARK                            x       y       z     vdW  Elec       q    Type
REMARK                         _______ _______ _______ _____ _____    ______ ____
ROOT
ATOM      6  N   UNL     1      12.632   5.281   2.785  0.00  0.00    -0.306 N 
ATOM      7  N   UNL     1      12.606   4.532   0.561  0.00  0.00    -0.214 NA
ATOM      8  N   UNL     1      14.674   4.705   1.784  0.00  0.00    -0.223 NA
ATOM     15  C   UNL     1      13.324   4.826   1.677  0.00  0.00    +0.216 A 
ATOM     18  C   UNL     1      13.313   4.091  -0.500  0.00  0.00    +0.076 A 
ATOM     19  C   UNL     1      15.318   4.258   0.686  0.00  0.00    +0.116 A 
ATOM     20  C   UNL     1      14.684   3.932  -0.496  0.00  0.00    +0.048 A 
ATOM     28  H   UNL     1      13.183   5.547   3.593  0.00  0.00    +0.149 HD
ENDROOT
BRANCH   6  11
ATOM      1  O   UNL     1      10.507   4.927   5.027  0.00  0.00    -0.369 OA
ATOM      2  O   UNL     1       9.509   7.157   3.172  0.00  0.00    -0.369 OA
ATOM      9  C   UNL     1      10.841   6.739   3.534  0.00  0.00    +0.172 C 
ATOM     10  C   UNL     1      10.792   6.334   4.994  0.00  0.00    +0.180 C 
ATOM     11  C   UNL     1      11.196   5.460   2.813  0.00  0.00    +0.130 C 
ATOM     12  C   UNL     1       9.637   7.151   5.522  0.00  0.00    +0.176 C 
ATOM     13  C   UNL     1      10.549   4.403   3.690  0.00  0.00    +0.185 C 
ATOM     14  C   UNL     1       8.684   7.153   4.348  0.00  0.00    +0.194 C 
BRANCH  12   3
ATOM      3  O   UNL     1       9.048   6.610   6.682  0.00  0.00    -0.360 OA
BRANCH   3  16
ATOM     16  C   UNL     1       9.892   6.748   7.823  0.00  0.00    +0.280 C 
BRANCH  16  17
ATOM      5  O   UNL     1      10.523   4.503   8.485  0.00  0.00    -0.248 OA
ATOM     17  C   UNL     1       9.812   5.486   8.642  0.00  0.00    +0.333 C 
BRANCH  17   4
ATOM      4  O   UNL     1       8.828   5.626   9.578  0.00  0.00    -0.466 OA
ATOM     24  C   UNL     1       8.703   4.544  10.506  0.00  0.00    +0.280 C 
ENDBRANCH  17   4
ENDBRANCH  16  17
ENDBRANCH   3  16
ENDBRANCH  12   3
ENDBRANCH   6  11
BRANCH  18  21
ATOM     21  C   UNL     1      12.531   3.785  -1.673  0.00  0.00    +0.001 A 
ATOM     22  C   UNL     1      13.165   3.422  -2.864  0.00  0.00    +0.010 A 
ATOM     23  C   UNL     1      11.137   3.851  -1.623  0.00  0.00    +0.010 A 
ATOM     25  C   UNL     1      12.408   3.127  -3.998  0.00  0.00    +0.001 A 
ATOM     26  C   UNL     1      10.380   3.556  -2.757  0.00  0.00    +0.001 A 
ATOM     27  C   UNL     1      11.017   3.194  -3.945  0.00  0.00    +0.000 A 
ENDBRANCH  18  21
TORSDOF 6
ENDMDL
MODEL 5
REMARK VINA RESULT:      -6.1     25.639     28.397
REMARK  Name = 11912809
REMARK  7 active torsions:
REMARK  status: ('A' for Active; 'I' for Inactive)
REMARK    1  A    between atoms: O_3  and  C_12
REMARK    2  A    between atoms: O_3  and  C_16
REMARK    3  A    between atoms: O_4  and  C_17
REMARK    4  A    between atoms: O_4  and  C_24
REMARK    5  A    between atoms: N_6  and  C_11
REMARK    6  A    between atoms: C_16  and  C_17
REMARK    7  A    between atoms: C_18  and  C_21
REMARK                            x       y       z     vdW  Elec       q    Type
REMARK                         _______ _______ _______ _____ _____    ______ ____
ROOT
ATOM      6  N   UNL     1      -8.581  -9.527  17.979  0.00  0.00    -0.306 N 
ATOM      7  N   UNL     1      -6.434 -10.115  17.234  0.00  0.00    -0.214 NA
ATOM      8  N   UNL     1      -7.156 -10.641  19.473  0.00  0.00    -0.223 NA
ATOM     15  C   UNL     1      -7.354 -10.112  18.236  0.00  0.00    +0.216 A 
ATOM     18  C   UNL     1      -5.250 -10.693  17.520  0.00  0.00    +0.076 A 
ATOM     19  C   UNL     1      -5.949 -11.203  19.690  0.00  0.00    +0.116 A 
ATOM     20  C   UNL     1      -4.947 -11.259  18.742  0.00  0.00    +0.048 A 
ATOM     28  H   UNL     1      -9.239  -9.484  18.749  0.00  0.00    +0.149 HD
ENDROOT
BRANCH   6  11
ATOM      1  O   UNL     1     -11.220  -9.448  16.336  0.00  0.00    -0.369 OA
ATOM      2  O   UNL     1      -9.711  -6.840  15.760  0.00  0.00    -0.369 OA
ATOM      9  C   UNL     1      -9.757  -7.679  16.932  0.00  0.00    +0.172 C 
ATOM     10  C   UNL     1     -11.177  -8.199  17.044  0.00  0.00    +0.180 C 
ATOM     11  C   UNL     1      -8.930  -8.923  16.711  0.00  0.00    +0.130 C 
ATOM     12  C   UNL     1     -11.974  -7.128  16.338  0.00  0.00    +0.176 C 
ATOM     13  C   UNL     1      -9.889  -9.819  15.946  0.00  0.00    +0.185 C 
ATOM     14  C   UNL     1     -11.038  -6.715  15.225  0.00  0.00    +0.194 C 
BRANCH  12   3
ATOM      3  O   UNL     1     -13.215  -7.582  15.847  0.00  0.00    -0.360 OA
BRANCH   3  16
ATOM     16  C   UNL     1     -13.347  -7.359  14.445  0.00  0.00    +0.280 C 
BRANCH  16  17
ATOM      5  O   UNL     1     -15.420  -6.195  14.921  0.00  0.00    -0.248 OA
ATOM     17  C   UNL     1     -14.431  -6.338  14.215  0.00  0.00    +0.333 C 
BRANCH  17   4
ATOM      4  O   UNL     1     -14.126  -5.609  13.101  0.00  0.00    -0.466 OA
ATOM     24  C   UNL     1     -13.410  -4.393  13.338  0.00  0.00    +0.280 C 
ENDBRANCH  17   4
ENDBRANCH  16  17
ENDBRANCH   3  16
ENDBRANCH  12   3
ENDBRANCH   6  11
BRANCH  18  21
ATOM     21  C   UNL     1      -4.289 -10.685  16.444  0.00  0.00    +0.001 A 
ATOM     22  C   UNL     1      -4.722 -10.679  15.116  0.00  0.00    +0.010 A 
ATOM     23  C   UNL     1      -2.921 -10.684  16.725  0.00  0.00    +0.010 A 
ATOM     25  C   UNL     1      -3.793 -10.671  14.076  0.00  0.00    +0.001 A 
ATOM     26  C   UNL     1      -1.991 -10.676  15.685  0.00  0.00    +0.001 A 
ATOM     27  C   UNL     1      -2.428 -10.670  14.360  0.00  0.00    +0.000 A 
ENDBRANCH  18  21
TORSDOF 6
ENDMDL
MODEL 6
REMARK VINA RESULT:      -6.1     16.201     20.451
REMARK  Name = 11912809
REMARK  7 active torsions:
REMARK  status: ('A' for Active; 'I' for Inactive)
REMARK    1  A    between atoms: O_3  and  C_12
REMARK    2  A    between atoms: O_3  and  C_16
REMARK    3  A    between atoms: O_4  and  C_17
REMARK    4  A    between atoms: O_4  and  C_24
REMARK    5  A    between atoms: N_6  and  C_11
REMARK    6  A    between atoms: C_16  and  C_17
REMARK    7  A    between atoms: C_18  and  C_21
REMARK                            x       y       z     vdW  Elec       q    Type
REMARK                         _______ _______ _______ _____ _____    ______ ____
ROOT
ATOM      6  N   UNL     1      14.921   7.439  21.397  0.00  0.00    -0.306 N 
ATOM      7  N   UNL     1      13.460   8.116  19.689  0.00  0.00    -0.214 NA
ATOM      8  N   UNL     1      12.653   7.724  21.925  0.00  0.00    -0.223 NA
ATOM     15  C   UNL     1      13.640   7.770  20.991  0.00  0.00    +0.216 A 
ATOM     18  C   UNL     1      12.199   8.433  19.329  0.00  0.00    +0.076 A 
ATOM     19  C   UNL     1      11.417   8.052  21.497  0.00  0.00    +0.116 A 
ATOM     20  C   UNL     1      11.127   8.418  20.198  0.00  0.00    +0.048 A 
ATOM     28  H   UNL     1      15.034   7.131  22.356  0.00  0.00    +0.149 HD
ENDROOT
BRANCH   6  11
ATOM      1  O   UNL     1      17.859   8.395  21.752  0.00  0.00    -0.369 OA
ATOM      2  O   UNL     1      17.900   6.038  19.788  0.00  0.00    -0.369 OA
ATOM      9  C   UNL     1      17.029   6.344  20.897  0.00  0.00    +0.172 C 
ATOM     10  C   UNL     1      17.893   6.975  21.971  0.00  0.00    +0.180 C 
ATOM     11  C   UNL     1      16.066   7.441  20.512  0.00  0.00    +0.130 C 
ATOM     12  C   UNL     1      19.256   6.397  21.677  0.00  0.00    +0.176 C 
ATOM     13  C   UNL     1      16.897   8.693  20.727  0.00  0.00    +0.185 C 
ATOM     14  C   UNL     1      19.254   6.326  20.167  0.00  0.00    +0.194 C 
BRANCH  12   3
ATOM      3  O   UNL     1      20.319   7.180  22.170  0.00  0.00    -0.360 OA
BRANCH   3  16
ATOM     16  C   UNL     1      20.824   6.677  23.405  0.00  0.00    +0.280 C 
BRANCH  16  17
ATOM      5  O   UNL     1      23.175   6.386  22.889  0.00  0.00    -0.248 OA
ATOM     17  C   UNL     1      22.082   5.894  23.132  0.00  0.00    +0.333 C 
BRANCH  17   4
ATOM      4  O   UNL     1      21.798   4.560  23.203  0.00  0.00    -0.466 OA
ATOM     24  C   UNL     1      21.929   3.837  21.975  0.00  0.00    +0.280 C 
ENDBRANCH  17   4
ENDBRANCH  16  17
ENDBRANCH   3  16
ENDBRANCH  12   3
ENDBRANCH   6  11
BRANCH  18  21
ATOM     21  C   UNL     1      12.031   8.797  17.943  0.00  0.00    +0.001 A 
ATOM     22  C   UNL     1      13.080   9.396  17.242  0.00  0.00    +0.010 A 
ATOM     23  C   UNL     1      10.817   8.553  17.297  0.00  0.00    +0.010 A 
ATOM     25  C   UNL     1      12.916   9.748  15.903  0.00  0.00    +0.001 A 
ATOM     26  C   UNL     1      10.653   8.905  15.957  0.00  0.00    +0.001 A 
ATOM     27  C   UNL     1      11.704   9.503  15.261  0.00  0.00    +0.000 A 
ENDBRANCH  18  21
TORSDOF 6
ENDMDL
MODEL 7
REMARK VINA RESULT:      -6.1     24.948     27.920
REMARK  Name = 11912809
REMARK  7 active torsions:
REMARK  status: ('A' for Active; 'I' for Inactive)
REMARK    1  A    between atoms: O_3  and  C_12
REMARK    2  A    between atoms: O_3  and  C_16
REMARK    3  A    between atoms: O_4  and  C_17
REMARK    4  A    between atoms: O_4  and  C_24
REMARK    5  A    between atoms: N_6  and  C_11
REMARK    6  A    between atoms: C_16  and  C_17
REMARK    7  A    between atoms: C_18  and  C_21
REMARK                            x       y       z     vdW  Elec       q    Type
REMARK                         _______ _______ _______ _____ _____    ______ ____
ROOT
ATOM      6  N   UNL     1      -4.323 -11.925  15.780  0.00  0.00    -0.306 N 
ATOM      7  N   UNL     1      -4.098 -10.969  13.648  0.00  0.00    -0.214 NA
ATOM      8  N   UNL     1      -2.321 -12.282  14.611  0.00  0.00    -0.223 NA
ATOM     15  C   UNL     1      -3.558 -11.720  14.646  0.00  0.00    +0.216 A 
ATOM     18  C   UNL     1      -3.324 -10.790  12.558  0.00  0.00    +0.076 A 
ATOM     19  C   UNL     1      -1.602 -12.063  13.491  0.00  0.00    +0.116 A 
ATOM     20  C   UNL     1      -2.056 -11.317  12.421  0.00  0.00    +0.048 A 
ATOM     28  H   UNL     1      -3.891 -12.441  16.538  0.00  0.00    +0.149 HD
ENDROOT
BRANCH   6  11
ATOM      1  O   UNL     1      -6.616 -12.578  17.777  0.00  0.00    -0.369 OA
ATOM      2  O   UNL     1      -6.837  -9.598  17.080  0.00  0.00    -0.369 OA
ATOM      9  C   UNL     1      -5.697 -10.479  17.163  0.00  0.00    +0.172 C 
ATOM     10  C   UNL     1      -5.956 -11.423  18.321  0.00  0.00    +0.180 C 
ATOM     11  C   UNL     1      -5.655 -11.385  15.956  0.00  0.00    +0.130 C 
ATOM     12  C   UNL     1      -6.880 -10.615  19.202  0.00  0.00    +0.176 C 
ATOM     13  C   UNL     1      -6.624 -12.488  16.344  0.00  0.00    +0.185 C 
ATOM     14  C   UNL     1      -7.712  -9.863  18.187  0.00  0.00    +0.194 C 
BRANCH  12   3
ATOM      3  O   UNL     1      -7.673 -11.404  20.058  0.00  0.00    -0.360 OA
BRANCH   3  16
ATOM     16  C   UNL     1      -9.058 -11.320  19.730  0.00  0.00    +0.280 C 
BRANCH  16  17
ATOM      5  O   UNL     1     -10.913 -12.863  19.971  0.00  0.00    -0.248 OA
ATOM     17  C   UNL     1      -9.710 -12.645  20.029  0.00  0.00    +0.333 C 
BRANCH  17   4
ATOM      4  O   UNL     1      -8.744 -13.548  20.369  0.00  0.00    -0.466 OA
ATOM     24  C   UNL     1      -9.165 -14.599  21.244  0.00  0.00    +0.280 C 
ENDBRANCH  17   4
ENDBRANCH  16  17
ENDBRANCH   3  16
ENDBRANCH  12   3
ENDBRANCH   6  11
BRANCH  18  21
ATOM     21  C   UNL     1      -3.916  -9.991  11.512  0.00  0.00    +0.001 A 
ATOM     22  C   UNL     1      -3.189  -9.698  10.356  0.00  0.00    +0.010 A 
ATOM     23  C   UNL     1      -5.219  -9.507  11.651  0.00  0.00    +0.010 A 
ATOM     25  C   UNL     1      -3.761  -8.926   9.345  0.00  0.00    +0.001 A 
ATOM     26  C   UNL     1      -5.792  -8.735  10.640  0.00  0.00    +0.001 A 
ATOM     27  C   UNL     1      -5.062  -8.445   9.487  0.00  0.00    +0.000 A 
ENDBRANCH  18  21
TORSDOF 6
ENDMDL
MODEL 8
REMARK VINA RESULT:      -6.1     26.897     29.111
REMARK  Name = 11912809
REMARK  7 active torsions:
REMARK  status: ('A' for Active; 'I' for Inactive)
REMARK    1  A    between atoms: O_3  and  C_12
REMARK    2  A    between atoms: O_3  and  C_16
REMARK    3  A    between atoms: O_4  and  C_17
REMARK    4  A    between atoms: O_4  and  C_24
REMARK    5  A    between atoms: N_6  and  C_11
REMARK    6  A    between atoms: C_16  and  C_17
REMARK    7  A    between atoms: C_18  and  C_21
REMARK                            x       y       z     vdW  Elec       q    Type
REMARK                         _______ _______ _______ _____ _____    ______ ____
ROOT
ATOM      6  N   UNL     1     -11.075  -8.876  17.523  0.00  0.00    -0.306 N 
ATOM      7  N   UNL     1      -8.908  -9.748  17.751  0.00  0.00    -0.214 NA
ATOM      8  N   UNL     1     -10.665 -10.386  19.272  0.00  0.00    -0.223 NA
ATOM     15  C   UNL     1     -10.190  -9.694  18.202  0.00  0.00    +0.216 A 
ATOM     18  C   UNL     1      -8.072 -10.556  18.436  0.00  0.00    +0.076 A 
ATOM     19  C   UNL     1      -9.776 -11.174  19.910  0.00  0.00    +0.116 A 
ATOM     20  C   UNL     1      -8.454 -11.300  19.534  0.00  0.00    +0.048 A 
ATOM     28  H   UNL     1     -12.013  -8.803  17.900  0.00  0.00    +0.149 HD
ENDROOT
BRANCH   6  11
ATOM      1  O   UNL     1     -12.489  -8.315  14.811  0.00  0.00    -0.369 OA
ATOM      2  O   UNL     1     -10.840  -5.823  15.510  0.00  0.00    -0.369 OA
ATOM      9  C   UNL     1     -11.502  -6.797  16.344  0.00  0.00    +0.172 C 
ATOM     10  C   UNL     1     -12.788  -7.178  15.637  0.00  0.00    +0.180 C 
ATOM     11  C   UNL     1     -10.708  -8.081  16.371  0.00  0.00    +0.130 C 
ATOM     12  C   UNL     1     -13.084  -5.949  14.811  0.00  0.00    +0.176 C 
ATOM     13  C   UNL     1     -11.155  -8.767  15.092  0.00  0.00    +0.185 C 
ATOM     14  C   UNL     1     -11.700  -5.495  14.408  0.00  0.00    +0.194 C 
BRANCH  12   3
ATOM      3  O   UNL     1     -13.905  -6.205  13.694  0.00  0.00    -0.360 OA
BRANCH   3  16
ATOM     16  C   UNL     1     -15.130  -5.479  13.755  0.00  0.00    +0.280 C 
BRANCH  16  17
ATOM      5  O   UNL     1     -14.364  -3.279  13.088  0.00  0.00    -0.248 OA
ATOM     17  C   UNL     1     -15.030  -4.278  12.852  0.00  0.00    +0.333 C 
BRANCH  17   4
ATOM      4  O   UNL     1     -15.796  -4.491  11.742  0.00  0.00    -0.466 OA
ATOM     24  C   UNL     1     -15.089  -4.948  10.585  0.00  0.00    +0.280 C 
ENDBRANCH  17   4
ENDBRANCH  16  17
ENDBRANCH   3  16
ENDBRANCH  12   3
ENDBRANCH   6  11
BRANCH  18  21
ATOM     21  C   UNL     1      -6.718 -10.598  17.941  0.00  0.00    +0.001 A 
ATOM     22  C   UNL     1      -6.379  -9.925  16.765  0.00  0.00    +0.010 A 
ATOM     23  C   UNL     1      -5.740 -11.313  18.636  0.00  0.00    +0.010 A 
ATOM     25  C   UNL     1      -5.069  -9.966  16.287  0.00  0.00    +0.001 A 
ATOM     26  C   UNL     1      -4.430 -11.354  18.159  0.00  0.00    +0.001 A 
ATOM     27  C   UNL     1      -4.095 -10.681  16.983  0.00  0.00    +0.000 A 
ENDBRANCH  18  21
TORSDOF 6
ENDMDL
MODEL 9
REMARK VINA RESULT:      -6.0     25.338     28.315
REMARK  Name = 11912809
REMARK  7 active torsions:
REMARK  status: ('A' for Active; 'I' for Inactive)
REMARK    1  A    between atoms: O_3  and  C_12
REMARK    2  A    between atoms: O_3  and  C_16
REMARK    3  A    between atoms: O_4  and  C_17
REMARK    4  A    between atoms: O_4  and  C_24
REMARK    5  A    between atoms: N_6  and  C_11
REMARK    6  A    between atoms: C_16  and  C_17
REMARK    7  A    between atoms: C_18  and  C_21
REMARK                            x       y       z     vdW  Elec       q    Type
REMARK                         _______ _______ _______ _____ _____    ______ ____
ROOT
ATOM      6  N   UNL     1      -4.040 -11.659  17.098  0.00  0.00    -0.306 N 
ATOM      7  N   UNL     1      -3.672 -10.999  14.875  0.00  0.00    -0.214 NA
ATOM      8  N   UNL     1      -1.913 -10.857  16.517  0.00  0.00    -0.223 NA
ATOM     15  C   UNL     1      -3.183 -11.157  16.134  0.00  0.00    +0.216 A 
ATOM     18  C   UNL     1      -2.809 -10.508  13.962  0.00  0.00    +0.076 A 
ATOM     19  C   UNL     1      -1.104 -10.370  15.553  0.00  0.00    +0.116 A 
ATOM     20  C   UNL     1      -1.500 -10.172  14.246  0.00  0.00    +0.048 A 
ATOM     28  H   UNL     1      -3.681 -11.722  18.043  0.00  0.00    +0.149 HD
ENDROOT
BRANCH   6  11
ATOM      1  O   UNL     1      -6.400 -12.466  18.955  0.00  0.00    -0.369 OA
ATOM      2  O   UNL     1      -7.604 -11.030  16.526  0.00  0.00    -0.369 OA
ATOM      9  C   UNL     1      -6.336 -10.876  17.196  0.00  0.00    +0.172 C 
ATOM     10  C   UNL     1      -6.596 -11.070  18.677  0.00  0.00    +0.180 C 
ATOM     11  C   UNL     1      -5.417 -12.018  16.835  0.00  0.00    +0.130 C 
ATOM     12  C   UNL     1      -8.047 -10.673  18.810  0.00  0.00    +0.176 C 
ATOM     13  C   UNL     1      -5.868 -13.112  17.787  0.00  0.00    +0.185 C 
ATOM     14  C   UNL     1      -8.636 -11.179  17.513  0.00  0.00    +0.194 C 
BRANCH  12   3
ATOM      3  O   UNL     1      -8.684 -11.232  19.935  0.00  0.00    -0.360 OA
BRANCH   3  16
ATOM     16  C   UNL     1     -10.071 -10.906  19.980  0.00  0.00    +0.280 C 
BRANCH  16  17
ATOM      5  O   UNL     1     -10.644 -13.002  21.055  0.00  0.00    -0.248 OA
ATOM     17  C   UNL     1     -10.862 -12.173  20.183  0.00  0.00    +0.333 C 
BRANCH  17   4
ATOM      4  O   UNL     1     -11.849 -12.235  19.241  0.00  0.00    -0.466 OA
ATOM     24  C   UNL     1     -12.825 -13.262  19.440  0.00  0.00    +0.280 C 
ENDBRANCH  17   4
ENDBRANCH  16  17
ENDBRANCH   3  16
ENDBRANCH  12   3
ENDBRANCH   6  11
BRANCH  18  21
ATOM     21  C   UNL     1      -3.348 -10.348  12.634  0.00  0.00    +0.001 A 
ATOM     22  C   UNL     1      -4.713 -10.536  12.402  0.00  0.00    +0.010 A 
ATOM     23  C   UNL     1      -2.507 -10.006  11.572  0.00  0.00    +0.010 A 
ATOM     25  C   UNL     1      -5.233 -10.381  11.117  0.00  0.00    +0.001 A 
ATOM     26  C   UNL     1      -3.027  -9.852  10.287  0.00  0.00    +0.001 A 
ATOM     27  C   UNL     1      -4.391 -10.040  10.060  0.00  0.00    +0.000 A 
ENDBRANCH  18  21
TORSDOF 6
ENDMDL
MODEL 10
REMARK VINA RESULT:      -5.8     18.537     23.708
REMARK  Name = 11912809
REMARK  7 active torsions:
REMARK  status: ('A' for Active; 'I' for Inactive)
REMARK    1  A    between atoms: O_3  and  C_12
REMARK    2  A    between atoms: O_3  and  C_16
REMARK    3  A    between atoms: O_4  and  C_17
REMARK    4  A    between atoms: O_4  and  C_24
REMARK    5  A    between atoms: N_6  and  C_11
REMARK    6  A    between atoms: C_16  and  C_17
REMARK    7  A    between atoms: C_18  and  C_21
REMARK                            x       y       z     vdW  Elec       q    Type
REMARK                         _______ _______ _______ _____ _____    ______ ____
ROOT
ATOM      6  N   UNL     1      10.875  10.330  23.378  0.00  0.00    -0.306 N 
ATOM      7  N   UNL     1      11.618   9.822  21.210  0.00  0.00    -0.214 NA
ATOM      8  N   UNL     1      10.621   8.129  22.605  0.00  0.00    -0.223 NA
ATOM     15  C   UNL     1      11.043   9.400  22.367  0.00  0.00    +0.216 A 
ATOM     18  C   UNL     1      11.766   8.890  20.247  0.00  0.00    +0.076 A 
ATOM     19  C   UNL     1      10.799   7.248  21.599  0.00  0.00    +0.116 A 
ATOM     20  C   UNL     1      11.372   7.574  20.386  0.00  0.00    +0.048 A 
ATOM     28  H   UNL     1      10.494   9.991  24.254  0.00  0.00    +0.149 HD
ENDROOT
BRANCH   6  11
ATOM      1  O   UNL     1      11.152  12.620  25.462  0.00  0.00    -0.369 OA
ATOM      2  O   UNL     1      13.250  13.117  23.280  0.00  0.00    -0.369 OA
ATOM      9  C   UNL     1      12.680  11.898  23.798  0.00  0.00    +0.172 C 
ATOM     10  C   UNL     1      12.481  12.104  25.287  0.00  0.00    +0.180 C 
ATOM     11  C   UNL     1      11.279  11.715  23.266  0.00  0.00    +0.130 C 
ATOM     12  C   UNL     1      13.531  13.139  25.616  0.00  0.00    +0.176 C 
ATOM     13  C   UNL     1      10.458  12.581  24.205  0.00  0.00    +0.185 C 
ATOM     14  C   UNL     1      13.528  14.003  24.376  0.00  0.00    +0.194 C 
BRANCH  12   3
ATOM      3  O   UNL     1      13.244  13.881  26.780  0.00  0.00    -0.360 OA
BRANCH   3  16
ATOM     16  C   UNL     1      14.421  14.176  27.528  0.00  0.00    +0.280 C 
BRANCH  16  17
ATOM      5  O   UNL     1      14.639  12.068  28.705  0.00  0.00    -0.248 OA
ATOM     17  C   UNL     1      14.466  13.279  28.737  0.00  0.00    +0.333 C 
BRANCH  17   4
ATOM      4  O   UNL     1      14.286  14.036  29.859  0.00  0.00    -0.466 OA
ATOM     24  C   UNL     1      13.629  13.378  30.947  0.00  0.00    +0.280 C 
ENDBRANCH  17   4
ENDBRANCH  16  17
ENDBRANCH   3  16
ENDBRANCH  12   3
ENDBRANCH   6  11
BRANCH  18  21
ATOM     21  C   UNL     1      12.377   9.359  19.027  0.00  0.00    +0.001 A 
ATOM     22  C   UNL     1      13.304  10.403  19.064  0.00  0.00    +0.010 A 
ATOM     23  C   UNL     1      12.044   8.772  17.805  0.00  0.00    +0.010 A 
ATOM     25  C   UNL     1      13.896  10.857  17.885  0.00  0.00    +0.001 A 
ATOM     26  C   UNL     1      12.635   9.225  16.625  0.00  0.00    +0.001 A 
ATOM     27  C   UNL     1      13.561  10.268  16.666  0.00  0.00    +0.000 A 
ENDBRANCH  18  21
TORSDOF 6
ENDMDL
