MODEL 1
REMARK VINA RESULT:      -8.6      0.000      0.000
REMARK  Name = 51136820
REMARK  5 active torsions:
REMARK  status: ('A' for Active; 'I' for Inactive)
REMARK    1  A    between atoms: N_3  and  C_10
REMARK    2  A    between atoms: N_4  and  C_20
REMARK    3  A    between atoms: C_11  and  C_19
REMARK    4  A    between atoms: C_21  and  C_24
REMARK    5  A    between atoms: C_30  and  C_32
REMARK                            x       y       z     vdW  Elec       q    Type
REMARK                         _______ _______ _______ _____ _____    ______ ____
ROOT
ATOM      1  O   UNL     1      15.815   6.094  18.546  0.00  0.00    -0.336 OA
ATOM      5  N   UNL     1      16.196   7.751  20.003  0.00  0.00    -0.190 NA
ATOM      6  N   UNL     1      17.071   5.836  19.110  0.00  0.00    -0.056 NA
ATOM     19  C   UNL     1      15.370   7.239  19.126  0.00  0.00    +0.245 A 
ATOM     21  C   UNL     1      17.225   6.856  19.959  0.00  0.00    +0.202 A 
ENDROOT
BRANCH  21  24
ATOM      2  O   UNL     1      24.613   1.359  20.905  0.00  0.00    -0.276 OA
ATOM      7  N   UNL     1      21.611   5.407  21.337  0.00  0.00    -0.312 N 
ATOM      8  N   UNL     1      23.786   3.530  20.987  0.00  0.00    -0.299 N 
ATOM      9  N   UNL     1      20.672   7.314  22.367  0.00  0.00    -0.240 NA
ATOM     22  C   UNL     1      21.356   4.010  20.975  0.00  0.00    +0.125 C 
ATOM     23  C   UNL     1      22.994   5.815  21.595  0.00  0.00    +0.125 C 
ATOM     24  C   UNL     1      18.394   7.011  20.776  0.00  0.00    +0.027 A 
ATOM     25  C   UNL     1      22.479   3.108  21.485  0.00  0.00    +0.126 C 
ATOM     26  C   UNL     1      23.970   4.967  20.778  0.00  0.00    +0.126 C 
ATOM     27  C   UNL     1      20.558   6.311  21.468  0.00  0.00    +0.122 A 
ATOM     28  C   UNL     1      19.452   6.117  20.656  0.00  0.00    +0.055 A 
ATOM     29  C   UNL     1      18.472   8.055  21.691  0.00  0.00    +0.031 A 
ATOM     30  C   UNL     1      24.766   2.571  20.730  0.00  0.00    +0.213 C 
ATOM     31  C   UNL     1      19.622   8.162  22.456  0.00  0.00    +0.113 A 
ATOM     32  C   UNL     1      26.085   3.088  20.211  0.00  0.00    +0.109 C 
ENDBRANCH  21  24
BRANCH  19  11
ATOM      3  N   UNL     1      13.749   9.127  19.109  0.00  0.00    -0.288 NA
ATOM     11  C   UNL     1      14.013   7.739  18.680  0.00  0.00    +0.146 C 
ATOM     12  C   UNL     1      12.853   9.706  18.108  0.00  0.00    +0.085 C 
ATOM     15  C   UNL     1      13.863   7.769  17.148  0.00  0.00    +0.030 C 
ATOM     16  C   UNL     1      13.456   9.198  16.815  0.00  0.00    +0.017 C 
BRANCH   3  10
ATOM      4  N   UNL     1      11.543  10.631  22.417  0.00  0.00    -0.305 NA
ATOM     10  C   UNL     1      13.197   9.218  20.459  0.00  0.00    +0.060 C 
ATOM     13  C   UNL     1      13.672  10.493  21.161  0.00  0.00    +0.034 C 
ATOM     14  C   UNL     1      11.667   9.188  20.409  0.00  0.00    +0.034 C 
ATOM     17  C   UNL     1      13.008  10.645  22.533  0.00  0.00    +0.085 C 
ATOM     18  C   UNL     1      11.069   9.382  21.805  0.00  0.00    +0.085 C 
ATOM     20  C   UNL     1      10.925  10.826  23.728  0.00  0.00    +0.104 C 
ENDBRANCH   3  10
ENDBRANCH  19  11
TORSDOF 3
ENDMDL
MODEL 2
REMARK VINA RESULT:      -7.9     27.773     31.385
REMARK  Name = 51136820
REMARK  5 active torsions:
REMARK  status: ('A' for Active; 'I' for Inactive)
REMARK    1  A    between atoms: N_3  and  C_10
REMARK    2  A    between atoms: N_4  and  C_20
REMARK    3  A    between atoms: C_11  and  C_19
REMARK    4  A    between atoms: C_21  and  C_24
REMARK    5  A    between atoms: C_30  and  C_32
REMARK                            x       y       z     vdW  Elec       q    Type
REMARK                         _______ _______ _______ _____ _____    ______ ____
ROOT
ATOM      1  O   UNL     1      -2.513 -10.711  14.744  0.00  0.00    -0.336 OA
ATOM      5  N   UNL     1      -4.740 -10.640  14.528  0.00  0.00    -0.190 NA
ATOM      6  N   UNL     1      -3.027 -10.619  16.043  0.00  0.00    -0.056 NA
ATOM     19  C   UNL     1      -3.587 -10.716  13.913  0.00  0.00    +0.245 A 
ATOM     21  C   UNL     1      -4.346 -10.582  15.833  0.00  0.00    +0.202 A 
ENDROOT
BRANCH  21  24
ATOM      2  O   UNL     1     -12.834  -6.891  15.963  0.00  0.00    -0.276 OA
ATOM      7  N   UNL     1      -8.739  -9.451  17.465  0.00  0.00    -0.312 N 
ATOM      8  N   UNL     1     -11.398  -8.487  16.854  0.00  0.00    -0.299 N 
ATOM      9  N   UNL     1      -7.148 -10.302  18.989  0.00  0.00    -0.240 NA
ATOM     22  C   UNL     1      -8.960  -8.445  16.422  0.00  0.00    +0.125 C 
ATOM     23  C   UNL     1      -9.892  -9.902  18.247  0.00  0.00    +0.125 C 
ATOM     24  C   UNL     1      -5.297 -10.486  16.904  0.00  0.00    +0.027 A 
ATOM     25  C   UNL     1     -10.221  -7.634  16.715  0.00  0.00    +0.126 C 
ATOM     26  C   UNL     1     -11.175  -9.818  17.420  0.00  0.00    +0.126 C 
ATOM     27  C   UNL     1      -7.458  -9.934  17.726  0.00  0.00    +0.122 A 
ATOM     28  C   UNL     1      -6.578 -10.006  16.658  0.00  0.00    +0.055 A 
ATOM     29  C   UNL     1      -4.939 -10.873  18.190  0.00  0.00    +0.031 A 
ATOM     30  C   UNL     1     -12.643  -8.011  16.441  0.00  0.00    +0.213 C 
ATOM     31  C   UNL     1      -5.893 -10.763  19.189  0.00  0.00    +0.113 A 
ATOM     32  C   UNL     1     -13.808  -8.957  16.611  0.00  0.00    +0.109 C 
ENDBRANCH  21  24
BRANCH  19  11
ATOM      3  N   UNL     1      -3.935  -9.730  11.655  0.00  0.00    -0.288 NA
ATOM     11  C   UNL     1      -3.294 -10.810  12.431  0.00  0.00    +0.146 C 
ATOM     12  C   UNL     1      -3.081  -9.493  10.492  0.00  0.00    +0.085 C 
ATOM     15  C   UNL     1      -1.793 -10.683  12.112  0.00  0.00    +0.030 C 
ATOM     16  C   UNL     1      -1.696  -9.545  11.104  0.00  0.00    +0.017 C 
BRANCH   3  10
ATOM      4  N   UNL     1      -7.714  -9.352   9.747  0.00  0.00    -0.305 NA
ATOM     10  C   UNL     1      -5.312 -10.035  11.272  0.00  0.00    +0.060 C 
ATOM     13  C   UNL     1      -6.262  -8.913  11.702  0.00  0.00    +0.034 C 
ATOM     14  C   UNL     1      -5.406 -10.248   9.759  0.00  0.00    +0.034 C 
ATOM     17  C   UNL     1      -7.686  -9.179  11.206  0.00  0.00    +0.085 C 
ATOM     18  C   UNL     1      -6.859 -10.470   9.327  0.00  0.00    +0.085 C 
ATOM     20  C   UNL     1      -9.087  -9.556   9.283  0.00  0.00    +0.104 C 
ENDBRANCH   3  10
ENDBRANCH  19  11
TORSDOF 3
ENDMDL
MODEL 3
REMARK VINA RESULT:      -7.8      3.016     10.584
REMARK  Name = 51136820
REMARK  5 active torsions:
REMARK  status: ('A' for Active; 'I' for Inactive)
REMARK    1  A    between atoms: N_3  and  C_10
REMARK    2  A    between atoms: N_4  and  C_20
REMARK    3  A    between atoms: C_11  and  C_19
REMARK    4  A    between atoms: C_21  and  C_24
REMARK    5  A    between atoms: C_30  and  C_32
REMARK                            x       y       z     vdW  Elec       q    Type
REMARK                         _______ _______ _______ _____ _____    ______ ____
ROOT
ATOM      1  O   UNL     1      21.731   3.544  20.857  0.00  0.00    -0.336 OA
ATOM      5  N   UNL     1      21.963   5.281  22.250  0.00  0.00    -0.190 NA
ATOM      6  N   UNL     1      20.701   4.438  20.539  0.00  0.00    -0.056 NA
ATOM     19  C   UNL     1      22.426   4.116  21.874  0.00  0.00    +0.245 A 
ATOM     21  C   UNL     1      20.905   5.437  21.402  0.00  0.00    +0.202 A 
ENDROOT
BRANCH  21  24
ATOM      2  O   UNL     1      11.910   6.409  19.441  0.00  0.00    -0.276 OA
ATOM      7  N   UNL     1      16.566   7.513  21.080  0.00  0.00    -0.312 N 
ATOM      8  N   UNL     1      13.719   7.175  20.683  0.00  0.00    -0.299 N 
ATOM      9  N   UNL     1      18.442   8.874  21.532  0.00  0.00    -0.240 NA
ATOM     22  C   UNL     1      16.042   6.477  20.185  0.00  0.00    +0.125 C 
ATOM     23  C   UNL     1      15.613   8.429  21.711  0.00  0.00    +0.125 C 
ATOM     24  C   UNL     1      20.069   6.603  21.446  0.00  0.00    +0.027 A 
ATOM     25  C   UNL     1      14.682   6.886  19.624  0.00  0.00    +0.126 C 
ATOM     26  C   UNL     1      14.261   7.745  21.918  0.00  0.00    +0.126 C 
ATOM     27  C   UNL     1      17.937   7.644  21.291  0.00  0.00    +0.122 A 
ATOM     28  C   UNL     1      18.700   6.487  21.237  0.00  0.00    +0.055 A 
ATOM     29  C   UNL     1      20.627   7.851  21.696  0.00  0.00    +0.031 A 
ATOM     30  C   UNL     1      12.369   6.890  20.480  0.00  0.00    +0.213 C 
ATOM     31  C   UNL     1      19.779   8.946  21.729  0.00  0.00    +0.113 A 
ATOM     32  C   UNL     1      11.440   7.209  21.626  0.00  0.00    +0.109 C 
ENDBRANCH  21  24
BRANCH  19  11
ATOM      3  N   UNL     1      23.230   1.997  22.901  0.00  0.00    -0.288 NA
ATOM     11  C   UNL     1      23.609   3.336  22.407  0.00  0.00    +0.146 C 
ATOM     12  C   UNL     1      24.401   1.141  22.712  0.00  0.00    +0.085 C 
ATOM     15  C   UNL     1      24.678   3.069  21.332  0.00  0.00    +0.030 C 
ATOM     16  C   UNL     1      24.878   1.559  21.336  0.00  0.00    +0.017 C 
BRANCH   3  10
ATOM      4  N   UNL     1      23.326   1.565  27.128  0.00  0.00    -0.305 NA
ATOM     10  C   UNL     1      22.772   2.002  24.288  0.00  0.00    +0.060 C 
ATOM     13  C   UNL     1      22.854   0.601  24.898  0.00  0.00    +0.034 C 
ATOM     14  C   UNL     1      23.606   2.982  25.118  0.00  0.00    +0.034 C 
ATOM     17  C   UNL     1      22.478   0.624  26.383  0.00  0.00    +0.085 C 
ATOM     18  C   UNL     1      23.205   2.928  26.595  0.00  0.00    +0.085 C 
ATOM     20  C   UNL     1      22.989   1.540  28.551  0.00  0.00    +0.104 C 
ENDBRANCH   3  10
ENDBRANCH  19  11
TORSDOF 3
ENDMDL
MODEL 4
REMARK VINA RESULT:      -7.7      1.562      3.203
REMARK  Name = 51136820
REMARK  5 active torsions:
REMARK  status: ('A' for Active; 'I' for Inactive)
REMARK    1  A    between atoms: N_3  and  C_10
REMARK    2  A    between atoms: N_4  and  C_20
REMARK    3  A    between atoms: C_11  and  C_19
REMARK    4  A    between atoms: C_21  and  C_24
REMARK    5  A    between atoms: C_30  and  C_32
REMARK                            x       y       z     vdW  Elec       q    Type
REMARK                         _______ _______ _______ _____ _____    ______ ____
ROOT
ATOM      1  O   UNL     1      14.951   6.785  20.401  0.00  0.00    -0.336 OA
ATOM      5  N   UNL     1      15.854   8.663  21.222  0.00  0.00    -0.190 NA
ATOM      6  N   UNL     1      16.315   6.520  20.568  0.00  0.00    -0.056 NA
ATOM     19  C   UNL     1      14.764   8.068  20.808  0.00  0.00    +0.245 A 
ATOM     21  C   UNL     1      16.780   7.674  21.056  0.00  0.00    +0.202 A 
ENDROOT
BRANCH  21  24
ATOM      2  O   UNL     1      23.817   1.660  21.148  0.00  0.00    -0.276 OA
ATOM      7  N   UNL     1      21.309   6.049  21.339  0.00  0.00    -0.312 N 
ATOM      8  N   UNL     1      23.157   3.871  20.869  0.00  0.00    -0.299 N 
ATOM      9  N   UNL     1      20.854   8.261  22.029  0.00  0.00    -0.240 NA
ATOM     22  C   UNL     1      20.889   4.652  21.485  0.00  0.00    +0.125 C 
ATOM     23  C   UNL     1      22.714   6.320  21.024  0.00  0.00    +0.125 C 
ATOM     24  C   UNL     1      18.162   7.873  21.387  0.00  0.00    +0.027 A 
ATOM     25  C   UNL     1      22.079   3.767  21.849  0.00  0.00    +0.126 C 
ATOM     26  C   UNL     1      23.319   5.172  20.216  0.00  0.00    +0.126 C 
ATOM     27  C   UNL     1      20.402   7.088  21.532  0.00  0.00    +0.122 A 
ATOM     28  C   UNL     1      19.079   6.845  21.198  0.00  0.00    +0.055 A 
ATOM     29  C   UNL     1      18.588   9.094  21.896  0.00  0.00    +0.031 A 
ATOM     30  C   UNL     1      23.952   2.757  20.600  0.00  0.00    +0.213 C 
ATOM     31  C   UNL     1      19.933   9.237  22.199  0.00  0.00    +0.113 A 
ATOM     32  C   UNL     1      25.038   2.945  19.569  0.00  0.00    +0.109 C 
ENDBRANCH  21  24
BRANCH  19  11
ATOM      3  N   UNL     1      12.605   8.063  19.570  0.00  0.00    -0.288 NA
ATOM     11  C   UNL     1      13.350   8.603  20.725  0.00  0.00    +0.146 C 
ATOM     12  C   UNL     1      11.195   8.047  19.960  0.00  0.00    +0.085 C 
ATOM     15  C   UNL     1      12.499   8.228  21.951  0.00  0.00    +0.030 C 
ATOM     16  C   UNL     1      11.268   7.534  21.384  0.00  0.00    +0.017 C 
BRANCH   3  10
ATOM      4  N   UNL     1      14.668  10.141  16.490  0.00  0.00    -0.305 NA
ATOM     10  C   UNL     1      12.826   8.816  18.338  0.00  0.00    +0.060 C 
ATOM     13  C   UNL     1      13.435  10.188  18.636  0.00  0.00    +0.034 C 
ATOM     14  C   UNL     1      13.742   8.031  17.396  0.00  0.00    +0.034 C 
ATOM     17  C   UNL     1      13.769  10.934  17.341  0.00  0.00    +0.085 C 
ATOM     18  C   UNL     1      14.065   8.847  16.141  0.00  0.00    +0.085 C 
ATOM     20  C   UNL     1      15.016  10.886  15.280  0.00  0.00    +0.104 C 
ENDBRANCH   3  10
ENDBRANCH  19  11
TORSDOF 3
ENDMDL
MODEL 5
REMARK VINA RESULT:      -7.6      2.383     10.870
REMARK  Name = 51136820
REMARK  5 active torsions:
REMARK  status: ('A' for Active; 'I' for Inactive)
REMARK    1  A    between atoms: N_3  and  C_10
REMARK    2  A    between atoms: N_4  and  C_20
REMARK    3  A    between atoms: C_11  and  C_19
REMARK    4  A    between atoms: C_21  and  C_24
REMARK    5  A    between atoms: C_30  and  C_32
REMARK                            x       y       z     vdW  Elec       q    Type
REMARK                         _______ _______ _______ _____ _____    ______ ____
ROOT
ATOM      1  O   UNL     1      21.683   3.438  20.943  0.00  0.00    -0.336 OA
ATOM      5  N   UNL     1      21.598   4.970  22.573  0.00  0.00    -0.190 NA
ATOM      6  N   UNL     1      20.788   4.421  20.506  0.00  0.00    -0.056 NA
ATOM     19  C   UNL     1      22.113   3.837  22.168  0.00  0.00    +0.245 A 
ATOM     21  C   UNL     1      20.791   5.291  21.520  0.00  0.00    +0.202 A 
ENDROOT
BRANCH  21  24
ATOM      2  O   UNL     1      11.828   6.509  19.550  0.00  0.00    -0.276 OA
ATOM      7  N   UNL     1      16.531   7.511  21.121  0.00  0.00    -0.312 N 
ATOM      8  N   UNL     1      13.671   7.261  20.750  0.00  0.00    -0.299 N 
ATOM      9  N   UNL     1      18.459   8.819  21.506  0.00  0.00    -0.240 NA
ATOM     22  C   UNL     1      15.965   6.456  20.275  0.00  0.00    +0.125 C 
ATOM     23  C   UNL     1      15.616   8.488  21.714  0.00  0.00    +0.125 C 
ATOM     24  C   UNL     1      20.000   6.488  21.515  0.00  0.00    +0.027 A 
ATOM     25  C   UNL     1      14.618   6.890  19.701  0.00  0.00    +0.126 C 
ATOM     26  C   UNL     1      14.240   7.865  21.956  0.00  0.00    +0.126 C 
ATOM     27  C   UNL     1      17.907   7.599  21.321  0.00  0.00    +0.122 A 
ATOM     28  C   UNL     1      18.626   6.414  21.317  0.00  0.00    +0.055 A 
ATOM     29  C   UNL     1      20.605   7.725  21.707  0.00  0.00    +0.031 A 
ATOM     30  C   UNL     1      12.310   7.018  20.565  0.00  0.00    +0.213 C 
ATOM     31  C   UNL     1      19.798   8.851  21.694  0.00  0.00    +0.113 A 
ATOM     32  C   UNL     1      11.400   7.422  21.699  0.00  0.00    +0.109 C 
ENDBRANCH  21  24
BRANCH  19  11
ATOM      3  N   UNL     1      24.270   3.664  23.396  0.00  0.00    -0.288 NA
ATOM     11  C   UNL     1      23.105   2.930  22.865  0.00  0.00    +0.146 C 
ATOM     12  C   UNL     1      24.733   2.915  24.565  0.00  0.00    +0.085 C 
ATOM     15  C   UNL     1      22.501   2.216  24.088  0.00  0.00    +0.030 C 
ATOM     16  C   UNL     1      23.428   2.559  25.246  0.00  0.00    +0.017 C 
BRANCH   3  10
ATOM      4  N   UNL     1      26.139   4.356  19.642  0.00  0.00    -0.305 NA
ATOM     10  C   UNL     1      25.331   3.854  22.410  0.00  0.00    +0.060 C 
ATOM     13  C   UNL     1      25.280   2.767  21.334  0.00  0.00    +0.034 C 
ATOM     14  C   UNL     1      25.211   5.236  21.762  0.00  0.00    +0.034 C 
ATOM     17  C   UNL     1      26.320   3.026  20.240  0.00  0.00    +0.085 C 
ATOM     18  C   UNL     1      26.254   5.415  20.655  0.00  0.00    +0.085 C 
ATOM     20  C   UNL     1      27.108   4.570  18.567  0.00  0.00    +0.104 C 
ENDBRANCH   3  10
ENDBRANCH  19  11
TORSDOF 3
ENDMDL
MODEL 6
REMARK VINA RESULT:      -7.6     27.658     30.944
REMARK  Name = 51136820
REMARK  5 active torsions:
REMARK  status: ('A' for Active; 'I' for Inactive)
REMARK    1  A    between atoms: N_3  and  C_10
REMARK    2  A    between atoms: N_4  and  C_20
REMARK    3  A    between atoms: C_11  and  C_19
REMARK    4  A    between atoms: C_21  and  C_24
REMARK    5  A    between atoms: C_30  and  C_32
REMARK                            x       y       z     vdW  Elec       q    Type
REMARK                         _______ _______ _______ _____ _____    ______ ____
ROOT
ATOM      1  O   UNL     1      -2.865 -10.132  10.411  0.00  0.00    -0.336 OA
ATOM      5  N   UNL     1      -4.396  -9.963  12.037  0.00  0.00    -0.190 NA
ATOM      6  N   UNL     1      -2.196 -10.418  11.607  0.00  0.00    -0.056 NA
ATOM     19  C   UNL     1      -4.154  -9.874  10.753  0.00  0.00    +0.245 A 
ATOM     21  C   UNL     1      -3.164 -10.298  12.520  0.00  0.00    +0.202 A 
ENDROOT
BRANCH  21  24
ATOM      2  O   UNL     1      -9.186 -10.906  19.525  0.00  0.00    -0.276 OA
ATOM      7  N   UNL     1      -4.820 -11.092  16.977  0.00  0.00    -0.312 N 
ATOM      8  N   UNL     1      -7.111 -11.537  18.689  0.00  0.00    -0.299 N 
ATOM      9  N   UNL     1      -2.488 -10.913  16.650  0.00  0.00    -0.240 NA
ATOM     22  C   UNL     1      -6.108 -10.445  16.705  0.00  0.00    +0.125 C 
ATOM     23  C   UNL     1      -4.698 -11.911  18.185  0.00  0.00    +0.125 C 
ATOM     24  C   UNL     1      -2.935 -10.506  13.921  0.00  0.00    +0.027 A 
ATOM     25  C   UNL     1      -6.905 -10.268  17.996  0.00  0.00    +0.126 C 
ATOM     26  C   UNL     1      -6.045 -12.532  18.557  0.00  0.00    +0.126 C 
ATOM     27  C   UNL     1      -3.734 -10.898  16.126  0.00  0.00    +0.122 A 
ATOM     28  C   UNL     1      -4.009 -10.701  14.782  0.00  0.00    +0.055 A 
ATOM     29  C   UNL     1      -1.639 -10.514  14.422  0.00  0.00    +0.031 A 
ATOM     30  C   UNL     1      -8.286 -11.742  19.412  0.00  0.00    +0.213 C 
ATOM     31  C   UNL     1      -1.469 -10.720  15.782  0.00  0.00    +0.113 A 
ATOM     32  C   UNL     1      -8.427 -13.083  20.091  0.00  0.00    +0.109 C 
ENDBRANCH  21  24
BRANCH  19  11
ATOM      3  N   UNL     1      -5.660 -10.732   8.967  0.00  0.00    -0.288 NA
ATOM     11  C   UNL     1      -5.099  -9.533   9.620  0.00  0.00    +0.146 C 
ATOM     12  C   UNL     1      -6.976 -10.347   8.457  0.00  0.00    +0.085 C 
ATOM     15  C   UNL     1      -6.327  -8.732  10.090  0.00  0.00    +0.030 C 
ATOM     16  C   UNL     1      -7.530  -9.528   9.605  0.00  0.00    +0.017 C 
BRANCH   3  10
ATOM      4  N   UNL     1      -4.420 -13.096   5.660  0.00  0.00    -0.305 NA
ATOM     10  C   UNL     1      -4.800 -11.273   7.917  0.00  0.00    +0.060 C 
ATOM     13  C   UNL     1      -4.580 -12.776   8.109  0.00  0.00    +0.034 C 
ATOM     14  C   UNL     1      -5.414 -11.007   6.540  0.00  0.00    +0.034 C 
ATOM     17  C   UNL     1      -3.770 -13.364   6.950  0.00  0.00    +0.085 C 
ATOM     18  C   UNL     1      -4.576 -11.652   5.433  0.00  0.00    +0.085 C 
ATOM     20  C   UNL     1      -3.661 -13.706   4.568  0.00  0.00    +0.104 C 
ENDBRANCH   3  10
ENDBRANCH  19  11
TORSDOF 3
ENDMDL
MODEL 7
REMARK VINA RESULT:      -7.5     27.675     30.759
REMARK  Name = 51136820
REMARK  5 active torsions:
REMARK  status: ('A' for Active; 'I' for Inactive)
REMARK    1  A    between atoms: N_3  and  C_10
REMARK    2  A    between atoms: N_4  and  C_20
REMARK    3  A    between atoms: C_11  and  C_19
REMARK    4  A    between atoms: C_21  and  C_24
REMARK    5  A    between atoms: C_30  and  C_32
REMARK                            x       y       z     vdW  Elec       q    Type
REMARK                         _______ _______ _______ _____ _____    ______ ____
ROOT
ATOM      1  O   UNL     1      -3.401  -9.869   9.975  0.00  0.00    -0.336 OA
ATOM      5  N   UNL     1      -4.686 -10.822  11.542  0.00  0.00    -0.190 NA
ATOM      6  N   UNL     1      -2.685  -9.777  11.175  0.00  0.00    -0.056 NA
ATOM     19  C   UNL     1      -4.567 -10.496  10.279  0.00  0.00    +0.245 A 
ATOM     21  C   UNL     1      -3.507 -10.361  12.051  0.00  0.00    +0.202 A 
ENDROOT
BRANCH  21  24
ATOM      2  O   UNL     1      -9.046 -10.817  19.455  0.00  0.00    -0.276 OA
ATOM      7  N   UNL     1      -4.849 -10.996  16.638  0.00  0.00    -0.312 N 
ATOM      8  N   UNL     1      -7.010 -11.428  18.514  0.00  0.00    -0.299 N 
ATOM      9  N   UNL     1      -2.549 -10.768  16.151  0.00  0.00    -0.240 NA
ATOM     22  C   UNL     1      -6.170 -10.399  16.423  0.00  0.00    +0.125 C 
ATOM     23  C   UNL     1      -4.624 -11.756  17.870  0.00  0.00    +0.125 C 
ATOM     24  C   UNL     1      -3.182 -10.498  13.442  0.00  0.00    +0.027 A 
ATOM     25  C   UNL     1      -6.888 -10.186  17.755  0.00  0.00    +0.126 C 
ATOM     26  C   UNL     1      -5.924 -12.397  18.356  0.00  0.00    +0.126 C 
ATOM     27  C   UNL     1      -3.826 -10.811  15.710  0.00  0.00    +0.122 A 
ATOM     28  C   UNL     1      -4.192 -10.683  14.379  0.00  0.00    +0.055 A 
ATOM     29  C   UNL     1      -1.857 -10.446  13.857  0.00  0.00    +0.031 A 
ATOM     30  C   UNL     1      -8.130 -11.632  19.321  0.00  0.00    +0.213 C 
ATOM     31  C   UNL     1      -1.594 -10.585  15.210  0.00  0.00    +0.113 A 
ATOM     32  C   UNL     1      -8.184 -12.944  20.065  0.00  0.00    +0.109 C 
ENDBRANCH  21  24
BRANCH  19  11
ATOM      3  N   UNL     1      -5.908  -9.465   8.454  0.00  0.00    -0.288 NA
ATOM     11  C   UNL     1      -5.532 -10.721   9.135  0.00  0.00    +0.146 C 
ATOM     12  C   UNL     1      -6.202  -9.821   7.066  0.00  0.00    +0.085 C 
ATOM     15  C   UNL     1      -4.941 -11.607   8.024  0.00  0.00    +0.030 C 
ATOM     16  C   UNL     1      -5.082 -10.791   6.746  0.00  0.00    +0.017 C 
BRANCH   3  10
ATOM      4  N   UNL     1      -9.883  -8.145   9.178  0.00  0.00    -0.305 NA
ATOM     10  C   UNL     1      -7.026  -8.776   9.093  0.00  0.00    +0.060 C 
ATOM     13  C   UNL     1      -7.670  -7.770   8.135  0.00  0.00    +0.034 C 
ATOM     14  C   UNL     1      -8.072  -9.788   9.567  0.00  0.00    +0.034 C 
ATOM     17  C   UNL     1      -8.908  -7.126   8.764  0.00  0.00    +0.085 C 
ATOM     18  C   UNL     1      -9.296  -9.078  10.151  0.00  0.00    +0.085 C 
ATOM     20  C   UNL     1     -11.080  -7.513   9.732  0.00  0.00    +0.104 C 
ENDBRANCH   3  10
ENDBRANCH  19  11
TORSDOF 3
ENDMDL
MODEL 8
REMARK VINA RESULT:      -7.4     27.724     31.652
REMARK  Name = 51136820
REMARK  5 active torsions:
REMARK  status: ('A' for Active; 'I' for Inactive)
REMARK    1  A    between atoms: N_3  and  C_10
REMARK    2  A    between atoms: N_4  and  C_20
REMARK    3  A    between atoms: C_11  and  C_19
REMARK    4  A    between atoms: C_21  and  C_24
REMARK    5  A    between atoms: C_30  and  C_32
REMARK                            x       y       z     vdW  Elec       q    Type
REMARK                         _______ _______ _______ _____ _____    ______ ____
ROOT
ATOM      1  O   UNL     1      -4.261 -13.411  15.543  0.00  0.00    -0.336 OA
ATOM      5  N   UNL     1      -4.684 -11.337  16.273  0.00  0.00    -0.190 NA
ATOM      6  N   UNL     1      -5.393 -13.510  16.362  0.00  0.00    -0.056 NA
ATOM     19  C   UNL     1      -3.907 -12.100  15.546  0.00  0.00    +0.245 A 
ATOM     21  C   UNL     1      -5.581 -12.246  16.754  0.00  0.00    +0.202 A 
ENDROOT
BRANCH  21  24
ATOM      2  O   UNL     1     -12.129  -5.795  15.657  0.00  0.00    -0.276 OA
ATOM      7  N   UNL     1      -9.576  -9.693  17.625  0.00  0.00    -0.312 N 
ATOM      8  N   UNL     1     -11.550  -7.828  16.624  0.00  0.00    -0.299 N 
ATOM      9  N   UNL     1      -8.742 -11.107  19.323  0.00  0.00    -0.240 NA
ATOM     22  C   UNL     1      -9.210  -8.636  16.677  0.00  0.00    +0.125 C 
ATOM     23  C   UNL     1     -10.955  -9.735  18.116  0.00  0.00    +0.125 C 
ATOM     24  C   UNL     1      -6.653 -11.859  17.625  0.00  0.00    +0.027 A 
ATOM     25  C   UNL     1     -10.153  -7.443  16.810  0.00  0.00    +0.126 C 
ATOM     26  C   UNL     1     -11.920  -9.172  17.072  0.00  0.00    +0.126 C 
ATOM     27  C   UNL     1      -8.625 -10.608  18.072  0.00  0.00    +0.122 A 
ATOM     28  C   UNL     1      -7.609 -10.948  17.192  0.00  0.00    +0.055 A 
ATOM     29  C   UNL     1      -6.739 -12.394  18.906  0.00  0.00    +0.031 A 
ATOM     30  C   UNL     1     -12.438  -6.928  16.035  0.00  0.00    +0.213 C 
ATOM     31  C   UNL     1      -7.793 -11.990  19.709  0.00  0.00    +0.113 A 
ATOM     32  C   UNL     1     -13.861  -7.405  15.872  0.00  0.00    +0.109 C 
ENDBRANCH  21  24
BRANCH  19  11
ATOM      3  N   UNL     1      -2.911 -10.513  13.908  0.00  0.00    -0.288 NA
ATOM     11  C   UNL     1      -2.693 -11.726  14.722  0.00  0.00    +0.146 C 
ATOM     12  C   UNL     1      -1.602  -9.879  13.755  0.00  0.00    +0.085 C 
ATOM     15  C   UNL     1      -1.464 -11.401  15.589  0.00  0.00    +0.030 C 
ATOM     16  C   UNL     1      -1.024 -10.011  15.150  0.00  0.00    +0.017 C 
BRANCH   3  10
ATOM      4  N   UNL     1      -4.637  -9.811  10.089  0.00  0.00    -0.305 NA
ATOM     10  C   UNL     1      -3.541 -10.789  12.620  0.00  0.00    +0.060 C 
ATOM     13  C   UNL     1      -4.916 -10.122  12.528  0.00  0.00    +0.034 C 
ATOM     14  C   UNL     1      -2.647 -10.302  11.477  0.00  0.00    +0.034 C 
ATOM     17  C   UNL     1      -5.531 -10.317  11.139  0.00  0.00    +0.085 C 
ATOM     18  C   UNL     1      -3.336 -10.493  10.123  0.00  0.00    +0.085 C 
ATOM     20  C   UNL     1      -5.259  -9.961   8.772  0.00  0.00    +0.104 C 
ENDBRANCH   3  10
ENDBRANCH  19  11
TORSDOF 3
ENDMDL
MODEL 9
REMARK VINA RESULT:      -7.4     27.602     30.619
REMARK  Name = 51136820
REMARK  5 active torsions:
REMARK  status: ('A' for Active; 'I' for Inactive)
REMARK    1  A    between atoms: N_3  and  C_10
REMARK    2  A    between atoms: N_4  and  C_20
REMARK    3  A    between atoms: C_11  and  C_19
REMARK    4  A    between atoms: C_21  and  C_24
REMARK    5  A    between atoms: C_30  and  C_32
REMARK                            x       y       z     vdW  Elec       q    Type
REMARK                         _______ _______ _______ _____ _____    ______ ____
ROOT
ATOM      1  O   UNL     1      -5.225 -11.356  19.158  0.00  0.00    -0.336 OA
ATOM      5  N   UNL     1      -5.784 -10.848  17.050  0.00  0.00    -0.190 NA
ATOM      6  N   UNL     1      -4.026 -11.323  18.434  0.00  0.00    -0.056 NA
ATOM     19  C   UNL     1      -6.209 -11.066  18.268  0.00  0.00    +0.245 A 
ATOM     21  C   UNL     1      -4.438 -11.017  17.201  0.00  0.00    +0.202 A 
ENDROOT
BRANCH  21  24
ATOM      2  O   UNL     1      -5.889 -12.048   8.116  0.00  0.00    -0.276 OA
ATOM      7  N   UNL     1      -3.579 -10.871  12.460  0.00  0.00    -0.312 N 
ATOM      8  N   UNL     1      -4.659 -10.984   9.776  0.00  0.00    -0.299 N 
ATOM      9  N   UNL     1      -1.768 -10.590  13.948  0.00  0.00    -0.240 NA
ATOM     22  C   UNL     1      -4.728 -11.724  12.139  0.00  0.00    +0.125 C 
ATOM     23  C   UNL     1      -2.938 -10.134  11.368  0.00  0.00    +0.125 C 
ATOM     24  C   UNL     1      -3.532 -10.873  16.097  0.00  0.00    +0.027 A 
ATOM     25  C   UNL     1      -4.697 -12.139  10.669  0.00  0.00    +0.126 C 
ATOM     26  C   UNL     1      -3.950  -9.802  10.271  0.00  0.00    +0.126 C 
ATOM     27  C   UNL     1      -3.090 -10.798  13.762  0.00  0.00    +0.122 A 
ATOM     28  C   UNL     1      -4.006 -10.944  14.792  0.00  0.00    +0.055 A 
ATOM     29  C   UNL     1      -2.178 -10.662  16.330  0.00  0.00    +0.031 A 
ATOM     30  C   UNL     1      -5.291 -11.054   8.535  0.00  0.00    +0.213 C 
ATOM     31  C   UNL     1      -1.344 -10.528  15.231  0.00  0.00    +0.113 A 
ATOM     32  C   UNL     1      -5.212  -9.815   7.676  0.00  0.00    +0.109 C 
ENDBRANCH  21  24
BRANCH  19  11
ATOM      3  N   UNL     1      -8.642 -11.106  17.744  0.00  0.00    -0.288 NA
ATOM     11  C   UNL     1      -7.623 -11.038  18.811  0.00  0.00    +0.146 C 
ATOM     12  C   UNL     1      -9.811 -11.761  18.332  0.00  0.00    +0.085 C 
ATOM     15  C   UNL     1      -7.933 -12.237  19.725  0.00  0.00    +0.030 C 
ATOM     16  C   UNL     1      -9.176 -12.882  19.129  0.00  0.00    +0.017 C 
BRANCH   3  10
ATOM      4  N   UNL     1     -10.895  -8.042  15.847  0.00  0.00    -0.305 NA
ATOM     10  C   UNL     1      -8.970  -9.801  17.177  0.00  0.00    +0.060 C 
ATOM     13  C   UNL     1      -9.288  -9.917  15.683  0.00  0.00    +0.034 C 
ATOM     14  C   UNL     1     -10.160  -9.185  17.917  0.00  0.00    +0.034 C 
ATOM     17  C   UNL     1      -9.738  -8.570  15.111  0.00  0.00    +0.085 C 
ATOM     18  C   UNL     1     -10.582  -7.862  17.272  0.00  0.00    +0.085 C 
ATOM     20  C   UNL     1     -11.344  -6.780  15.259  0.00  0.00    +0.104 C 
ENDBRANCH   3  10
ENDBRANCH  19  11
TORSDOF 3
ENDMDL
MODEL 10
REMARK VINA RESULT:      -7.4     28.103     31.502
REMARK  Name = 51136820
REMARK  5 active torsions:
REMARK  status: ('A' for Active; 'I' for Inactive)
REMARK    1  A    between atoms: N_3  and  C_10
REMARK    2  A    between atoms: N_4  and  C_20
REMARK    3  A    between atoms: C_11  and  C_19
REMARK    4  A    between atoms: C_21  and  C_24
REMARK    5  A    between atoms: C_30  and  C_32
REMARK                            x       y       z     vdW  Elec       q    Type
REMARK                         _______ _______ _______ _____ _____    ______ ____
ROOT
ATOM      1  O   UNL     1      -1.948 -11.157  15.935  0.00  0.00    -0.336 OA
ATOM      5  N   UNL     1      -4.130 -11.418  15.505  0.00  0.00    -0.190 NA
ATOM      6  N   UNL     1      -2.609 -10.976  17.155  0.00  0.00    -0.056 NA
ATOM     19  C   UNL     1      -2.916 -11.412  15.016  0.00  0.00    +0.245 A 
ATOM     21  C   UNL     1      -3.892 -11.146  16.821  0.00  0.00    +0.202 A 
ENDROOT
BRANCH  21  24
ATOM      2  O   UNL     1     -12.208  -7.145  16.088  0.00  0.00    -0.276 OA
ATOM      7  N   UNL     1      -8.407  -9.904  17.966  0.00  0.00    -0.312 N 
ATOM      8  N   UNL     1     -10.942  -8.821  17.083  0.00  0.00    -0.299 N 
ATOM      9  N   UNL     1      -7.037 -10.861  19.635  0.00  0.00    -0.240 NA
ATOM     22  C   UNL     1      -8.469  -8.857  16.941  0.00  0.00    +0.125 C 
ATOM     23  C   UNL     1      -9.659 -10.336  18.592  0.00  0.00    +0.125 C 
ATOM     24  C   UNL     1      -4.959 -11.048  17.775  0.00  0.00    +0.027 A 
ATOM     25  C   UNL     1      -9.728  -8.009  17.113  0.00  0.00    +0.126 C 
ATOM     26  C   UNL     1     -10.831 -10.178  17.623  0.00  0.00    +0.126 C 
ATOM     27  C   UNL     1      -7.183 -10.443  18.358  0.00  0.00    +0.122 A 
ATOM     28  C   UNL     1      -6.185 -10.513  17.399  0.00  0.00    +0.055 A 
ATOM     29  C   UNL     1      -4.769 -11.489  19.080  0.00  0.00    +0.031 A 
ATOM     30  C   UNL     1     -12.112  -8.287  16.545  0.00  0.00    +0.213 C 
ATOM     31  C   UNL     1      -5.830 -11.375  19.964  0.00  0.00    +0.113 A 
ATOM     32  C   UNL     1     -13.320  -9.193  16.543  0.00  0.00    +0.109 C 
ENDBRANCH  21  24
BRANCH  19  11
ATOM      3  N   UNL     1      -3.299 -12.622  12.875  0.00  0.00    -0.288 NA
ATOM     11  C   UNL     1      -2.452 -11.649  13.594  0.00  0.00    +0.146 C 
ATOM     12  C   UNL     1      -3.240 -12.255  11.460  0.00  0.00    +0.085 C 
ATOM     15  C   UNL     1      -2.503 -10.375  12.733  0.00  0.00    +0.030 C 
ATOM     16  C   UNL     1      -3.349 -10.745  11.523  0.00  0.00    +0.017 C 
BRANCH   3  10
ATOM      4  N   UNL     1      -1.821 -16.065  14.882  0.00  0.00    -0.305 NA
ATOM     10  C   UNL     1      -2.901 -14.009  13.100  0.00  0.00    +0.060 C 
ATOM     13  C   UNL     1      -1.408 -14.106  13.427  0.00  0.00    +0.034 C 
ATOM     14  C   UNL     1      -3.725 -14.619  14.238  0.00  0.00    +0.034 C 
ATOM     17  C   UNL     1      -1.013 -15.545  13.771  0.00  0.00    +0.085 C 
ATOM     18  C   UNL     1      -3.254 -16.041  14.554  0.00  0.00    +0.085 C 
ATOM     20  C   UNL     1      -1.399 -17.422  15.231  0.00  0.00    +0.104 C 
ENDBRANCH   3  10
ENDBRANCH  19  11
TORSDOF 3
ENDMDL
