MODEL 1
REMARK VINA RESULT:      -6.8      0.000      0.000
REMARK  Name = 45360959
REMARK  8 active torsions:
REMARK  status: ('A' for Active; 'I' for Inactive)
REMARK    1  A    between atoms: N_3  and  C_18
REMARK    2  A    between atoms: N_4  and  C_16
REMARK    3  A    between atoms: N_8  and  C_24
REMARK    4  A    between atoms: C_13  and  C_17
REMARK    5  A    between atoms: C_16  and  C_20
REMARK    6  A    between atoms: C_17  and  C_19
REMARK    7  A    between atoms: C_19  and  C_21
REMARK    8  A    between atoms: C_24  and  C_25
REMARK                            x       y       z     vdW  Elec       q    Type
REMARK                         _______ _______ _______ _____ _____    ______ ____
ROOT
ATOM      1  O   UNL     1      -5.642  -9.671   7.357  0.00  0.00    -0.274 OA
ATOM      3  N   UNL     1      -5.894 -10.146  11.191  0.00  0.00    -0.296 NA
ATOM      4  N   UNL     1      -7.672  -8.347   8.547  0.00  0.00    -0.283 NA
ATOM      5  N   UNL     1      -4.147  -9.313   9.051  0.00  0.00    -0.312 N 
ATOM      9  C   UNL     1      -6.755  -9.058  10.679  0.00  0.00    +0.084 C 
ATOM     10  C   UNL     1      -6.407  -8.422   9.301  0.00  0.00    +0.161 C 
ATOM     11  C   UNL     1      -8.227  -9.465  10.481  0.00  0.00    +0.036 C 
ATOM     12  C   UNL     1      -8.756  -8.421   9.521  0.00  0.00    +0.087 C 
ATOM     13  C   UNL     1      -4.487  -9.741  11.467  0.00  0.00    +0.074 C 
ATOM     14  C   UNL     1      -5.395  -9.203   8.468  0.00  0.00    +0.232 C 
ATOM     15  C   UNL     1      -3.846  -8.844  10.390  0.00  0.00    +0.123 C 
ATOM     18  C   UNL     1      -6.490 -10.768  12.386  0.00  0.00    +0.105 C 
ATOM     31  H   UNL     1      -3.419  -9.802   8.538  0.00  0.00    +0.149 HD
ENDROOT
BRANCH   4  16
ATOM     16  C   UNL     1      -7.773  -7.163   7.705  0.00  0.00    +0.159 C 
BRANCH  16  20
ATOM      6  N   UNL     1      -7.087  -7.951   5.431  0.00  0.00    -0.347 N 
ATOM      7  N   UNL     1      -9.237  -7.450   5.674  0.00  0.00    -0.239 NA
ATOM     20  C   UNL     1      -8.069  -7.512   6.275  0.00  0.00    +0.121 A 
ATOM     22  C   UNL     1      -7.665  -8.183   4.215  0.00  0.00    +0.104 A 
ATOM     23  C   UNL     1      -8.992  -7.866   4.390  0.00  0.00    +0.130 A 
ATOM     32  H   UNL     1      -6.111  -8.082   5.664  0.00  0.00    +0.167 HD
ENDBRANCH  16  20
ENDBRANCH   4  16
BRANCH  13  17
ATOM     17  C   UNL     1      -3.589 -10.985  11.629  0.00  0.00    +0.029 C 
BRANCH  17  19
ATOM     19  C   UNL     1      -2.350 -10.651  12.439  0.00  0.00    +0.097 C 
BRANCH  19  21
ATOM      2  O   UNL     1      -2.311 -12.501  14.002  0.00  0.00    -0.276 OA
ATOM      8  N   UNL     1      -2.534 -10.338  14.816  0.00  0.00    -0.311 N 
ATOM     21  C   UNL     1      -2.392 -11.290  13.816  0.00  0.00    +0.213 C 
ATOM     33  H   UNL     1      -2.576  -9.353  14.570  0.00  0.00    +0.149 HD
BRANCH   8  24
ATOM     24  C   UNL     1      -2.601 -10.694  16.214  0.00  0.00    +0.139 C 
BRANCH  24  25
ATOM     25  C   UNL     1      -4.003 -10.621  16.745  0.00  0.00    -0.030 A 
ATOM     26  C   UNL     1      -4.336 -11.277  17.929  0.00  0.00    +0.005 A 
ATOM     27  C   UNL     1      -4.974  -9.896  16.053  0.00  0.00    +0.005 A 
ATOM     28  C   UNL     1      -5.639 -11.209  18.422  0.00  0.00    +0.000 A 
ATOM     29  C   UNL     1      -6.277  -9.829  16.546  0.00  0.00    +0.000 A 
ATOM     30  C   UNL     1      -6.610 -10.485  17.730  0.00  0.00    +0.000 A 
ENDBRANCH  24  25
ENDBRANCH   8  24
ENDBRANCH  19  21
ENDBRANCH  17  19
ENDBRANCH  13  17
TORSDOF 7
ENDMDL
MODEL 2
REMARK VINA RESULT:      -6.6      2.916      5.951
REMARK  Name = 45360959
REMARK  8 active torsions:
REMARK  status: ('A' for Active; 'I' for Inactive)
REMARK    1  A    between atoms: N_3  and  C_18
REMARK    2  A    between atoms: N_4  and  C_16
REMARK    3  A    between atoms: N_8  and  C_24
REMARK    4  A    between atoms: C_13  and  C_17
REMARK    5  A    between atoms: C_16  and  C_20
REMARK    6  A    between atoms: C_17  and  C_19
REMARK    7  A    between atoms: C_19  and  C_21
REMARK    8  A    between atoms: C_24  and  C_25
REMARK                            x       y       z     vdW  Elec       q    Type
REMARK                         _______ _______ _______ _____ _____    ______ ____
ROOT
ATOM      1  O   UNL     1      -5.896  -9.756  13.029  0.00  0.00    -0.274 OA
ATOM      3  N   UNL     1      -3.182 -10.855  15.562  0.00  0.00    -0.296 NA
ATOM      4  N   UNL     1      -3.747 -10.984  11.949  0.00  0.00    -0.283 NA
ATOM      5  N   UNL     1      -5.978 -11.089  14.887  0.00  0.00    -0.312 N 
ATOM      9  C   UNL     1      -2.986 -11.426  14.212  0.00  0.00    +0.084 C 
ATOM     10  C   UNL     1      -4.210 -11.498  13.252  0.00  0.00    +0.161 C 
ATOM     11  C   UNL     1      -1.953 -10.668  13.357  0.00  0.00    +0.036 C 
ATOM     12  C   UNL     1      -2.292 -11.087  11.942  0.00  0.00    +0.087 C 
ATOM     13  C   UNL     1      -4.116 -11.628  16.429  0.00  0.00    +0.074 C 
ATOM     14  C   UNL     1      -5.422 -10.680  13.689  0.00  0.00    +0.232 C 
ATOM     15  C   UNL     1      -5.397 -12.118  15.727  0.00  0.00    +0.123 C 
ATOM     18  C   UNL     1      -1.890 -10.667  16.244  0.00  0.00    +0.105 C 
ATOM     31  H   UNL     1      -6.802 -10.600  15.224  0.00  0.00    +0.149 HD
ENDROOT
BRANCH   4  16
ATOM     16  C   UNL     1      -4.350 -11.667  10.812  0.00  0.00    +0.159 C 
BRANCH  16  20
ATOM      6  N   UNL     1      -5.653  -9.663  10.073  0.00  0.00    -0.347 N 
ATOM      7  N   UNL     1      -4.522 -10.723   8.483  0.00  0.00    -0.239 NA
ATOM     20  C   UNL     1      -4.822 -10.704   9.762  0.00  0.00    +0.121 A 
ATOM     22  C   UNL     1      -5.898  -8.976   8.918  0.00  0.00    +0.104 A 
ATOM     23  C   UNL     1      -5.190  -9.649   7.950  0.00  0.00    +0.130 A 
ATOM     32  H   UNL     1      -6.019  -9.441  10.989  0.00  0.00    +0.167 HD
ENDBRANCH  16  20
ENDBRANCH   4  16
BRANCH  13  17
ATOM     17  C   UNL     1      -4.547 -10.784  17.646  0.00  0.00    +0.029 C 
BRANCH  17  19
ATOM     19  C   UNL     1      -4.583 -11.633  18.903  0.00  0.00    +0.097 C 
BRANCH  19  21
ATOM      2  O   UNL     1      -5.912 -11.280  20.896  0.00  0.00    -0.276 OA
ATOM      8  N   UNL     1      -6.979 -11.444  18.841  0.00  0.00    -0.311 N 
ATOM     21  C   UNL     1      -5.873 -11.431  19.678  0.00  0.00    +0.213 C 
ATOM     33  H   UNL     1      -6.850 -11.559  17.840  0.00  0.00    +0.149 HD
BRANCH   8  24
ATOM     24  C   UNL     1      -8.324 -11.274  19.339  0.00  0.00    +0.139 C 
BRANCH  24  25
ATOM     25  C   UNL     1      -9.091 -10.256  18.546  0.00  0.00    -0.030 A 
ATOM     26  C   UNL     1      -8.441  -9.491  17.579  0.00  0.00    +0.005 A 
ATOM     27  C   UNL     1     -10.456 -10.076  18.778  0.00  0.00    +0.005 A 
ATOM     28  C   UNL     1      -9.155  -8.545  16.841  0.00  0.00    +0.000 A 
ATOM     29  C   UNL     1     -11.168  -9.130  18.041  0.00  0.00    +0.000 A 
ATOM     30  C   UNL     1     -10.518  -8.365  17.073  0.00  0.00    +0.000 A 
ENDBRANCH  24  25
ENDBRANCH   8  24
ENDBRANCH  19  21
ENDBRANCH  17  19
ENDBRANCH  13  17
TORSDOF 7
ENDMDL
MODEL 3
REMARK VINA RESULT:      -6.5      4.464      8.295
REMARK  Name = 45360959
REMARK  8 active torsions:
REMARK  status: ('A' for Active; 'I' for Inactive)
REMARK    1  A    between atoms: N_3  and  C_18
REMARK    2  A    between atoms: N_4  and  C_16
REMARK    3  A    between atoms: N_8  and  C_24
REMARK    4  A    between atoms: C_13  and  C_17
REMARK    5  A    between atoms: C_16  and  C_20
REMARK    6  A    between atoms: C_17  and  C_19
REMARK    7  A    between atoms: C_19  and  C_21
REMARK    8  A    between atoms: C_24  and  C_25
REMARK                            x       y       z     vdW  Elec       q    Type
REMARK                         _______ _______ _______ _____ _____    ______ ____
ROOT
ATOM      1  O   UNL     1      -8.585 -11.181  15.606  0.00  0.00    -0.274 OA
ATOM      3  N   UNL     1      -5.513 -11.466  17.945  0.00  0.00    -0.296 NA
ATOM      4  N   UNL     1      -9.072 -10.658  18.210  0.00  0.00    -0.283 NA
ATOM      5  N   UNL     1      -6.533 -10.170  15.578  0.00  0.00    -0.312 N 
ATOM      9  C   UNL     1      -6.680 -10.825  18.589  0.00  0.00    +0.084 C 
ATOM     10  C   UNL     1      -7.777 -10.195  17.680  0.00  0.00    +0.161 C 
ATOM     11  C   UNL     1      -7.507 -11.776  19.475  0.00  0.00    +0.036 C 
ATOM     12  C   UNL     1      -8.845 -11.077  19.589  0.00  0.00    +0.087 C 
ATOM     13  C   UNL     1      -4.658 -10.537  17.154  0.00  0.00    +0.074 C 
ATOM     14  C   UNL     1      -7.693 -10.582  16.206  0.00  0.00    +0.232 C 
ATOM     15  C   UNL     1      -5.430  -9.536  16.273  0.00  0.00    +0.123 C 
ATOM     18  C   UNL     1      -4.699 -12.189  18.937  0.00  0.00    +0.105 C 
ATOM     31  H   UNL     1      -6.424 -10.375  14.589  0.00  0.00    +0.149 HD
ENDROOT
BRANCH   4  16
ATOM     16  C   UNL     1     -10.128  -9.659  18.109  0.00  0.00    +0.159 C 
BRANCH  16  20
ATOM      6  N   UNL     1     -11.367 -11.419  16.831  0.00  0.00    -0.347 N 
ATOM      7  N   UNL     1     -12.571  -9.673  17.492  0.00  0.00    -0.239 NA
ATOM     20  C   UNL     1     -11.375 -10.219  17.489  0.00  0.00    +0.121 A 
ATOM     22  C   UNL     1     -12.638 -11.651  16.387  0.00  0.00    +0.104 A 
ATOM     23  C   UNL     1     -13.363 -10.560  16.806  0.00  0.00    +0.130 A 
ATOM     32  H   UNL     1     -10.568 -12.024  16.699  0.00  0.00    +0.167 HD
ENDBRANCH  16  20
ENDBRANCH   4  16
BRANCH  13  17
ATOM     17  C   UNL     1      -3.709 -11.331  16.232  0.00  0.00    +0.029 C 
BRANCH  17  19
ATOM     19  C   UNL     1      -2.324 -10.710  16.225  0.00  0.00    +0.097 C 
BRANCH  19  21
ATOM      2  O   UNL     1      -1.047  -9.526  14.543  0.00  0.00    -0.276 OA
ATOM      8  N   UNL     1      -2.437 -11.266  13.888  0.00  0.00    -0.311 N 
ATOM     21  C   UNL     1      -1.850 -10.415  14.813  0.00  0.00    +0.213 C 
ATOM     33  H   UNL     1      -3.080 -11.986  14.205  0.00  0.00    +0.149 HD
BRANCH   8  24
ATOM     24  C   UNL     1      -2.150 -11.185  12.475  0.00  0.00    +0.139 C 
BRANCH  24  25
ATOM     25  C   UNL     1      -3.143 -10.326  11.749  0.00  0.00    -0.030 A 
ATOM     26  C   UNL     1      -4.436 -10.179  12.249  0.00  0.00    +0.005 A 
ATOM     27  C   UNL     1      -2.772  -9.674  10.572  0.00  0.00    +0.005 A 
ATOM     28  C   UNL     1      -5.359  -9.380  11.573  0.00  0.00    +0.000 A 
ATOM     29  C   UNL     1      -3.696  -8.876   9.896  0.00  0.00    +0.000 A 
ATOM     30  C   UNL     1      -4.989  -8.729  10.397  0.00  0.00    +0.000 A 
ENDBRANCH  24  25
ENDBRANCH   8  24
ENDBRANCH  19  21
ENDBRANCH  17  19
ENDBRANCH  13  17
TORSDOF 7
ENDMDL
MODEL 4
REMARK VINA RESULT:      -6.4      4.550      9.513
REMARK  Name = 45360959
REMARK  8 active torsions:
REMARK  status: ('A' for Active; 'I' for Inactive)
REMARK    1  A    between atoms: N_3  and  C_18
REMARK    2  A    between atoms: N_4  and  C_16
REMARK    3  A    between atoms: N_8  and  C_24
REMARK    4  A    between atoms: C_13  and  C_17
REMARK    5  A    between atoms: C_16  and  C_20
REMARK    6  A    between atoms: C_17  and  C_19
REMARK    7  A    between atoms: C_19  and  C_21
REMARK    8  A    between atoms: C_24  and  C_25
REMARK                            x       y       z     vdW  Elec       q    Type
REMARK                         _______ _______ _______ _____ _____    ______ ____
ROOT
ATOM      1  O   UNL     1      -8.715 -10.098  18.228  0.00  0.00    -0.274 OA
ATOM      3  N   UNL     1      -5.900 -12.332  16.788  0.00  0.00    -0.296 NA
ATOM      4  N   UNL     1      -8.947 -12.732  18.775  0.00  0.00    -0.283 NA
ATOM      5  N   UNL     1      -6.439 -10.043  18.459  0.00  0.00    -0.312 N 
ATOM      9  C   UNL     1      -6.758 -13.033  17.768  0.00  0.00    +0.084 C 
ATOM     10  C   UNL     1      -7.580 -12.180  18.779  0.00  0.00    +0.161 C 
ATOM     11  C   UNL     1      -7.851 -13.910  17.128  0.00  0.00    +0.036 C 
ATOM     12  C   UNL     1      -8.859 -14.088  18.244  0.00  0.00    +0.087 C 
ATOM     13  C   UNL     1      -4.787 -11.549  17.393  0.00  0.00    +0.074 C 
ATOM     14  C   UNL     1      -7.660 -10.691  18.451  0.00  0.00    +0.232 C 
ATOM     15  C   UNL     1      -5.173 -10.726  18.638  0.00  0.00    +0.123 C 
ATOM     18  C   UNL     1      -5.375 -13.274  15.784  0.00  0.00    +0.105 C 
ATOM     31  H   UNL     1      -6.425  -9.045  18.271  0.00  0.00    +0.149 HD
ENDROOT
BRANCH   4  16
ATOM     16  C   UNL     1      -9.588 -12.697  20.083  0.00  0.00    +0.159 C 
BRANCH  16  20
ATOM      6  N   UNL     1     -10.789 -10.530  20.433  0.00  0.00    -0.347 N 
ATOM      7  N   UNL     1     -12.043 -12.234  19.756  0.00  0.00    -0.239 NA
ATOM     20  C   UNL     1     -10.828 -11.851  20.079  0.00  0.00    +0.121 A 
ATOM     22  C   UNL     1     -12.061 -10.041  20.330  0.00  0.00    +0.104 A 
ATOM     23  C   UNL     1     -12.817 -11.111  19.911  0.00  0.00    +0.130 A 
ATOM     32  H   UNL     1      -9.971 -10.010  20.719  0.00  0.00    +0.167 HD
ENDBRANCH  16  20
ENDBRANCH   4  16
BRANCH  13  17
ATOM     17  C   UNL     1      -4.190 -10.572  16.359  0.00  0.00    +0.029 C 
BRANCH  17  19
ATOM     19  C   UNL     1      -2.674 -10.638  16.370  0.00  0.00    +0.097 C 
BRANCH  19  21
ATOM      2  O   UNL     1      -1.134  -9.791  14.704  0.00  0.00    -0.276 OA
ATOM      8  N   UNL     1      -2.794 -11.278  14.055  0.00  0.00    -0.311 N 
ATOM     21  C   UNL     1      -2.098 -10.504  14.971  0.00  0.00    +0.213 C 
ATOM     33  H   UNL     1      -3.572 -11.852  14.370  0.00  0.00    +0.149 HD
BRANCH   8  24
ATOM     24  C   UNL     1      -2.441 -11.321  12.656  0.00  0.00    +0.139 C 
BRANCH  24  25
ATOM     25  C   UNL     1      -3.296 -10.403  11.832  0.00  0.00    -0.030 A 
ATOM     26  C   UNL     1      -4.618 -10.159  12.206  0.00  0.00    +0.005 A 
ATOM     27  C   UNL     1      -2.769  -9.793  10.693  0.00  0.00    +0.005 A 
ATOM     28  C   UNL     1      -5.413  -9.305  11.440  0.00  0.00    +0.000 A 
ATOM     29  C   UNL     1      -3.565  -8.941   9.928  0.00  0.00    +0.000 A 
ATOM     30  C   UNL     1      -4.886  -8.697  10.301  0.00  0.00    +0.000 A 
ENDBRANCH  24  25
ENDBRANCH   8  24
ENDBRANCH  19  21
ENDBRANCH  17  19
ENDBRANCH  13  17
TORSDOF 7
ENDMDL
MODEL 5
REMARK VINA RESULT:      -6.4     20.684     21.690
REMARK  Name = 45360959
REMARK  8 active torsions:
REMARK  status: ('A' for Active; 'I' for Inactive)
REMARK    1  A    between atoms: N_3  and  C_18
REMARK    2  A    between atoms: N_4  and  C_16
REMARK    3  A    between atoms: N_8  and  C_24
REMARK    4  A    between atoms: C_13  and  C_17
REMARK    5  A    between atoms: C_16  and  C_20
REMARK    6  A    between atoms: C_17  and  C_19
REMARK    7  A    between atoms: C_19  and  C_21
REMARK    8  A    between atoms: C_24  and  C_25
REMARK                            x       y       z     vdW  Elec       q    Type
REMARK                         _______ _______ _______ _____ _____    ______ ____
ROOT
ATOM      1  O   UNL     1     -12.889   4.890  22.518  0.00  0.00    -0.274 OA
ATOM      3  N   UNL     1     -16.689   4.385  21.973  0.00  0.00    -0.296 NA
ATOM      4  N   UNL     1     -14.160   6.946  21.313  0.00  0.00    -0.283 NA
ATOM      5  N   UNL     1     -14.600   4.415  23.962  0.00  0.00    -0.312 N 
ATOM      9  C   UNL     1     -16.244   5.775  21.735  0.00  0.00    +0.084 C 
ATOM     10  C   UNL     1     -14.906   6.247  22.375  0.00  0.00    +0.161 C 
ATOM     11  C   UNL     1     -16.025   6.116  20.248  0.00  0.00    +0.036 C 
ATOM     12  C   UNL     1     -15.130   7.336  20.295  0.00  0.00    +0.087 C 
ATOM     13  C   UNL     1     -16.986   4.068  23.398  0.00  0.00    +0.074 C 
ATOM     14  C   UNL     1     -14.026   5.128  22.926  0.00  0.00    +0.232 C 
ATOM     15  C   UNL     1     -15.963   4.616  24.412  0.00  0.00    +0.123 C 
ATOM     18  C   UNL     1     -17.846   4.052  21.124  0.00  0.00    +0.105 C 
ATOM     31  H   UNL     1     -14.057   3.670  24.390  0.00  0.00    +0.149 HD
ENDROOT
BRANCH   4  16
ATOM     16  C   UNL     1     -13.390   8.082  21.800  0.00  0.00    +0.159 C 
BRANCH  16  20
ATOM      6  N   UNL     1     -12.157   9.835  20.509  0.00  0.00    -0.347 N 
ATOM      7  N   UNL     1     -11.511   7.740  20.157  0.00  0.00    -0.239 NA
ATOM     20  C   UNL     1     -12.342   8.516  20.816  0.00  0.00    +0.121 A 
ATOM     22  C   UNL     1     -11.143   9.905  19.595  0.00  0.00    +0.104 A 
ATOM     23  C   UNL     1     -10.760   8.599  19.393  0.00  0.00    +0.130 A 
ATOM     32  H   UNL     1     -12.673  10.618  20.888  0.00  0.00    +0.167 HD
ENDBRANCH  16  20
ENDBRANCH   4  16
BRANCH  13  17
ATOM     17  C   UNL     1     -17.072   2.542  23.605  0.00  0.00    +0.029 C 
BRANCH  17  19
ATOM     19  C   UNL     1     -17.973   2.209  24.780  0.00  0.00    +0.097 C 
BRANCH  19  21
ATOM      2  O   UNL     1     -16.675   0.245  25.347  0.00  0.00    -0.276 OA
ATOM      8  N   UNL     1     -17.535   1.562  27.054  0.00  0.00    -0.311 N 
ATOM     21  C   UNL     1     -17.316   1.221  25.727  0.00  0.00    +0.213 C 
ATOM     33  H   UNL     1     -18.065   2.400  27.276  0.00  0.00    +0.149 HD
BRANCH   8  24
ATOM     24  C   UNL     1     -17.013   0.777  28.148  0.00  0.00    +0.139 C 
BRANCH  24  25
ATOM     25  C   UNL     1     -15.940   1.507  28.901  0.00  0.00    -0.030 A 
ATOM     26  C   UNL     1     -14.957   0.792  29.583  0.00  0.00    +0.005 A 
ATOM     27  C   UNL     1     -15.927   2.902  28.919  0.00  0.00    +0.005 A 
ATOM     28  C   UNL     1     -13.959   1.471  30.284  0.00  0.00    +0.000 A 
ATOM     29  C   UNL     1     -14.930   3.581  29.620  0.00  0.00    +0.000 A 
ATOM     30  C   UNL     1     -13.946   2.865  30.302  0.00  0.00    +0.000 A 
ENDBRANCH  24  25
ENDBRANCH   8  24
ENDBRANCH  19  21
ENDBRANCH  17  19
ENDBRANCH  13  17
TORSDOF 7
ENDMDL
MODEL 6
REMARK VINA RESULT:      -6.4     27.922     30.826
REMARK  Name = 45360959
REMARK  8 active torsions:
REMARK  status: ('A' for Active; 'I' for Inactive)
REMARK    1  A    between atoms: N_3  and  C_18
REMARK    2  A    between atoms: N_4  and  C_16
REMARK    3  A    between atoms: N_8  and  C_24
REMARK    4  A    between atoms: C_13  and  C_17
REMARK    5  A    between atoms: C_16  and  C_20
REMARK    6  A    between atoms: C_17  and  C_19
REMARK    7  A    between atoms: C_19  and  C_21
REMARK    8  A    between atoms: C_24  and  C_25
REMARK                            x       y       z     vdW  Elec       q    Type
REMARK                         _______ _______ _______ _____ _____    ______ ____
ROOT
ATOM      1  O   UNL     1      14.250   7.782  22.428  0.00  0.00    -0.274 OA
ATOM      3  N   UNL     1      17.591   9.270  21.160  0.00  0.00    -0.296 NA
ATOM      4  N   UNL     1      14.020   9.580  20.426  0.00  0.00    -0.283 NA
ATOM      5  N   UNL     1      16.152   6.810  21.609  0.00  0.00    -0.312 N 
ATOM      9  C   UNL     1      16.443   9.579  20.280  0.00  0.00    +0.084 C 
ATOM     10  C   UNL     1      15.180   8.672  20.362  0.00  0.00    +0.161 C 
ATOM     11  C   UNL     1      15.845  10.981  20.503  0.00  0.00    +0.036 C 
ATOM     12  C   UNL     1      14.457  10.871  19.907  0.00  0.00    +0.087 C 
ATOM     13  C   UNL     1      18.232   7.951  20.896  0.00  0.00    +0.074 C 
ATOM     14  C   UNL     1      15.132   7.742  21.571  0.00  0.00    +0.232 C 
ATOM     15  C   UNL     1      17.249   6.787  20.661  0.00  0.00    +0.123 C 
ATOM     18  C   UNL     1      18.597  10.345  21.106  0.00  0.00    +0.105 C 
ATOM     31  H   UNL     1      16.165   6.145  22.376  0.00  0.00    +0.149 HD
ENDROOT
BRANCH   4  16
ATOM     16  C   UNL     1      12.851   9.074  19.720  0.00  0.00    +0.159 C 
BRANCH  16  20
ATOM      6  N   UNL     1      11.426   9.033  21.777  0.00  0.00    -0.347 N 
ATOM      7  N   UNL     1      11.358   7.206  20.516  0.00  0.00    -0.239 NA
ATOM     20  C   UNL     1      11.878   8.406  20.649  0.00  0.00    +0.121 A 
ATOM     22  C   UNL     1      10.564   8.178  22.403  0.00  0.00    +0.104 A 
ATOM     23  C   UNL     1      10.538   7.057  21.606  0.00  0.00    +0.130 A 
ATOM     32  H   UNL     1      11.682   9.960  22.092  0.00  0.00    +0.167 HD
ENDBRANCH  16  20
ENDBRANCH   4  16
BRANCH  13  17
ATOM     17  C   UNL     1      19.150   7.552  22.070  0.00  0.00    +0.029 C 
BRANCH  17  19
ATOM     19  C   UNL     1      20.190   6.543  21.621  0.00  0.00    +0.097 C 
BRANCH  19  21
ATOM      2  O   UNL     1      20.819   6.347  23.951  0.00  0.00    -0.276 OA
ATOM      8  N   UNL     1      21.705   4.852  22.411  0.00  0.00    -0.311 N 
ATOM     21  C   UNL     1      20.921   5.928  22.801  0.00  0.00    +0.213 C 
ATOM     33  H   UNL     1      21.716   4.565  21.437  0.00  0.00    +0.149 HD
BRANCH   8  24
ATOM     24  C   UNL     1      22.502   4.099  23.351  0.00  0.00    +0.139 C 
BRANCH  24  25
ATOM     25  C   UNL     1      23.242   2.975  22.686  0.00  0.00    -0.030 A 
ATOM     26  C   UNL     1      23.411   2.975  21.302  0.00  0.00    +0.005 A 
ATOM     27  C   UNL     1      23.761   1.931  23.452  0.00  0.00    +0.005 A 
ATOM     28  C   UNL     1      24.099   1.930  20.683  0.00  0.00    +0.000 A 
ATOM     29  C   UNL     1      24.448   0.887  22.833  0.00  0.00    +0.000 A 
ATOM     30  C   UNL     1      24.617   0.887  21.449  0.00  0.00    +0.000 A 
ENDBRANCH  24  25
ENDBRANCH   8  24
ENDBRANCH  19  21
ENDBRANCH  17  19
ENDBRANCH  13  17
TORSDOF 7
ENDMDL
MODEL 7
REMARK VINA RESULT:      -6.3      5.413     10.086
REMARK  Name = 45360959
REMARK  8 active torsions:
REMARK  status: ('A' for Active; 'I' for Inactive)
REMARK    1  A    between atoms: N_3  and  C_18
REMARK    2  A    between atoms: N_4  and  C_16
REMARK    3  A    between atoms: N_8  and  C_24
REMARK    4  A    between atoms: C_13  and  C_17
REMARK    5  A    between atoms: C_16  and  C_20
REMARK    6  A    between atoms: C_17  and  C_19
REMARK    7  A    between atoms: C_19  and  C_21
REMARK    8  A    between atoms: C_24  and  C_25
REMARK                            x       y       z     vdW  Elec       q    Type
REMARK                         _______ _______ _______ _____ _____    ______ ____
ROOT
ATOM      1  O   UNL     1      -5.437  -9.419  16.183  0.00  0.00    -0.274 OA
ATOM      3  N   UNL     1      -8.824 -10.363  17.804  0.00  0.00    -0.296 NA
ATOM      4  N   UNL     1      -5.668 -12.001  16.939  0.00  0.00    -0.283 NA
ATOM      5  N   UNL     1      -7.597  -9.228  15.452  0.00  0.00    -0.312 N 
ATOM      9  C   UNL     1      -7.994 -11.537  17.459  0.00  0.00    +0.084 C 
ATOM     10  C   UNL     1      -6.879 -11.369  16.384  0.00  0.00    +0.161 C 
ATOM     11  C   UNL     1      -7.205 -12.117  18.649  0.00  0.00    +0.036 C 
ATOM     12  C   UNL     1      -6.105 -12.918  17.986  0.00  0.00    +0.087 C 
ATOM     13  C   UNL     1      -9.656  -9.846  16.682  0.00  0.00    +0.074 C 
ATOM     14  C   UNL     1      -6.547  -9.924  16.021  0.00  0.00    +0.232 C 
ATOM     15  C   UNL     1      -8.936  -9.768  15.321  0.00  0.00    +0.123 C 
ATOM     18  C   UNL     1      -9.668 -10.645  18.978  0.00  0.00    +0.105 C 
ATOM     31  H   UNL     1      -7.435  -8.267  15.165  0.00  0.00    +0.149 HD
ENDROOT
BRANCH   4  16
ATOM     16  C   UNL     1      -4.852 -12.667  15.933  0.00  0.00    +0.159 C 
BRANCH  16  20
ATOM      6  N   UNL     1      -3.024 -11.140  16.700  0.00  0.00    -0.347 N 
ATOM      7  N   UNL     1      -2.690 -12.145  14.748  0.00  0.00    -0.239 NA
ATOM     20  C   UNL     1      -3.518 -12.002  15.759  0.00  0.00    +0.121 A 
ATOM     22  C   UNL     1      -1.806 -10.706  16.259  0.00  0.00    +0.104 A 
ATOM     23  C   UNL     1      -1.621 -11.340  15.052  0.00  0.00    +0.130 A 
ATOM     32  H   UNL     1      -3.477 -10.873  17.564  0.00  0.00    +0.167 HD
ENDBRANCH  16  20
ENDBRANCH   4  16
BRANCH  13  17
ATOM     17  C   UNL     1     -10.185  -8.434  17.008  0.00  0.00    +0.029 C 
BRANCH  17  19
ATOM     19  C   UNL     1     -11.478  -8.159  16.264  0.00  0.00    +0.097 C 
BRANCH  19  21
ATOM      2  O   UNL     1     -11.189  -5.790  16.672  0.00  0.00    -0.276 OA
ATOM      8  N   UNL     1     -12.380  -6.476  14.802  0.00  0.00    -0.311 N 
ATOM     21  C   UNL     1     -11.648  -6.681  15.963  0.00  0.00    +0.213 C 
ATOM     33  H   UNL     1     -12.708  -7.276  14.267  0.00  0.00    +0.149 HD
BRANCH   8  24
ATOM     24  C   UNL     1     -12.680  -5.155  14.302  0.00  0.00    +0.139 C 
BRANCH  24  25
ATOM     25  C   UNL     1     -12.438  -5.045  12.825  0.00  0.00    -0.030 A 
ATOM     26  C   UNL     1     -12.433  -6.192  12.032  0.00  0.00    +0.005 A 
ATOM     27  C   UNL     1     -12.217  -3.795  12.246  0.00  0.00    +0.005 A 
ATOM     28  C   UNL     1     -12.208  -6.090  10.659  0.00  0.00    +0.000 A 
ATOM     29  C   UNL     1     -11.990  -3.694  10.873  0.00  0.00    +0.000 A 
ATOM     30  C   UNL     1     -11.986  -4.841  10.080  0.00  0.00    +0.000 A 
ENDBRANCH  24  25
ENDBRANCH   8  24
ENDBRANCH  19  21
ENDBRANCH  17  19
ENDBRANCH  13  17
TORSDOF 7
ENDMDL
MODEL 8
REMARK VINA RESULT:      -6.2     27.665     30.286
REMARK  Name = 45360959
REMARK  8 active torsions:
REMARK  status: ('A' for Active; 'I' for Inactive)
REMARK    1  A    between atoms: N_3  and  C_18
REMARK    2  A    between atoms: N_4  and  C_16
REMARK    3  A    between atoms: N_8  and  C_24
REMARK    4  A    between atoms: C_13  and  C_17
REMARK    5  A    between atoms: C_16  and  C_20
REMARK    6  A    between atoms: C_17  and  C_19
REMARK    7  A    between atoms: C_19  and  C_21
REMARK    8  A    between atoms: C_24  and  C_25
REMARK                            x       y       z     vdW  Elec       q    Type
REMARK                         _______ _______ _______ _____ _____    ______ ____
ROOT
ATOM      1  O   UNL     1      14.463  10.155  22.263  0.00  0.00    -0.274 OA
ATOM      3  N   UNL     1      14.755   7.604  19.365  0.00  0.00    -0.296 NA
ATOM      4  N   UNL     1      12.120   9.424  21.136  0.00  0.00    -0.283 NA
ATOM      5  N   UNL     1      15.406   8.074  22.136  0.00  0.00    -0.312 N 
ATOM      9  C   UNL     1      13.367   7.794  19.838  0.00  0.00    +0.084 C 
ATOM     10  C   UNL     1      13.142   8.369  21.268  0.00  0.00    +0.161 C 
ATOM     11  C   UNL     1      12.537   8.760  18.971  0.00  0.00    +0.036 C 
ATOM     12  C   UNL     1      11.406   9.174  19.888  0.00  0.00    +0.087 C 
ATOM     13  C   UNL     1      15.541   6.607  20.145  0.00  0.00    +0.074 C 
ATOM     14  C   UNL     1      14.381   8.975  21.921  0.00  0.00    +0.232 C 
ATOM     15  C   UNL     1      15.372   6.700  21.674  0.00  0.00    +0.123 C 
ATOM     18  C   UNL     1      14.778   7.263  17.932  0.00  0.00    +0.105 C 
ATOM     31  H   UNL     1      16.251   8.408  22.589  0.00  0.00    +0.149 HD
ENDROOT
BRANCH   4  16
ATOM     16  C   UNL     1      11.218   9.500  22.277  0.00  0.00    +0.159 C 
BRANCH  16  20
ATOM      6  N   UNL     1      10.433  11.181  23.956  0.00  0.00    -0.347 N 
ATOM      7  N   UNL     1      11.429  12.008  22.152  0.00  0.00    -0.239 NA
ATOM     20  C   UNL     1      11.044  10.910  22.763  0.00  0.00    +0.121 A 
ATOM     22  C   UNL     1      10.428  12.538  24.115  0.00  0.00    +0.104 A 
ATOM     23  C   UNL     1      11.048  13.027  22.989  0.00  0.00    +0.130 A 
ATOM     32  H   UNL     1      10.055  10.502  24.604  0.00  0.00    +0.167 HD
ENDBRANCH  16  20
ENDBRANCH   4  16
BRANCH  13  17
ATOM     17  C   UNL     1      17.046   6.744  19.835  0.00  0.00    +0.029 C 
BRANCH  17  19
ATOM     19  C   UNL     1      17.882   6.216  20.986  0.00  0.00    +0.097 C 
BRANCH  19  21
ATOM      2  O   UNL     1      19.842   7.636  20.932  0.00  0.00    -0.276 OA
ATOM      8  N   UNL     1      20.068   5.379  20.439  0.00  0.00    -0.311 N 
ATOM     21  C   UNL     1      19.357   6.516  20.792  0.00  0.00    +0.213 C 
ATOM     33  H   UNL     1      19.585   4.488  20.361  0.00  0.00    +0.149 HD
BRANCH   8  24
ATOM     24  C   UNL     1      21.492   5.404  20.196  0.00  0.00    +0.139 C 
BRANCH  24  25
ATOM     25  C   UNL     1      22.262   4.752  21.307  0.00  0.00    -0.030 A 
ATOM     26  C   UNL     1      22.246   3.365  21.446  0.00  0.00    +0.005 A 
ATOM     27  C   UNL     1      22.994   5.535  22.200  0.00  0.00    +0.005 A 
ATOM     28  C   UNL     1      22.962   2.759  22.479  0.00  0.00    +0.000 A 
ATOM     29  C   UNL     1      23.710   4.928  23.233  0.00  0.00    +0.000 A 
ATOM     30  C   UNL     1      23.693   3.541  23.372  0.00  0.00    +0.000 A 
ENDBRANCH  24  25
ENDBRANCH   8  24
ENDBRANCH  19  21
ENDBRANCH  17  19
ENDBRANCH  13  17
TORSDOF 7
ENDMDL
MODEL 9
REMARK VINA RESULT:      -6.2     28.265     31.150
REMARK  Name = 45360959
REMARK  8 active torsions:
REMARK  status: ('A' for Active; 'I' for Inactive)
REMARK    1  A    between atoms: N_3  and  C_18
REMARK    2  A    between atoms: N_4  and  C_16
REMARK    3  A    between atoms: N_8  and  C_24
REMARK    4  A    between atoms: C_13  and  C_17
REMARK    5  A    between atoms: C_16  and  C_20
REMARK    6  A    between atoms: C_17  and  C_19
REMARK    7  A    between atoms: C_19  and  C_21
REMARK    8  A    between atoms: C_24  and  C_25
REMARK                            x       y       z     vdW  Elec       q    Type
REMARK                         _______ _______ _______ _____ _____    ______ ____
ROOT
ATOM      1  O   UNL     1      16.238   9.909  21.355  0.00  0.00    -0.274 OA
ATOM      3  N   UNL     1      17.124   6.546  19.652  0.00  0.00    -0.296 NA
ATOM      4  N   UNL     1      14.136   8.296  20.835  0.00  0.00    -0.283 NA
ATOM      5  N   UNL     1      17.653   8.211  21.948  0.00  0.00    -0.312 N 
ATOM      9  C   UNL     1      15.733   6.600  20.150  0.00  0.00    +0.084 C 
ATOM     10  C   UNL     1      15.381   7.632  21.262  0.00  0.00    +0.161 C 
ATOM     11  C   UNL     1      14.692   6.934  19.064  0.00  0.00    +0.036 C 
ATOM     12  C   UNL     1      13.498   7.421  19.858  0.00  0.00    +0.087 C 
ATOM     13  C   UNL     1      18.130   6.141  20.675  0.00  0.00    +0.074 C 
ATOM     14  C   UNL     1      16.441   8.704  21.505  0.00  0.00    +0.232 C 
ATOM     15  C   UNL     1      17.949   6.796  22.058  0.00  0.00    +0.123 C 
ATOM     18  C   UNL     1      17.223   5.677  18.467  0.00  0.00    +0.105 C 
ATOM     31  H   UNL     1      18.395   8.875  22.151  0.00  0.00    +0.149 HD
ENDROOT
BRANCH   4  16
ATOM     16  C   UNL     1      13.246   8.621  21.942  0.00  0.00    +0.159 C 
BRANCH  16  20
ATOM      6  N   UNL     1      13.334  11.009  21.199  0.00  0.00    -0.347 N 
ATOM      7  N   UNL     1      11.456  10.375  22.200  0.00  0.00    -0.239 NA
ATOM     20  C   UNL     1      12.646   9.990  21.798  0.00  0.00    +0.121 A 
ATOM     22  C   UNL     1      12.530  12.114  21.221  0.00  0.00    +0.104 A 
ATOM     23  C   UNL     1      11.376  11.698  21.845  0.00  0.00    +0.130 A 
ATOM     32  H   UNL     1      14.266  10.956  20.809  0.00  0.00    +0.167 HD
ENDBRANCH  16  20
ENDBRANCH   4  16
BRANCH  13  17
ATOM     17  C   UNL     1      19.556   6.470  20.189  0.00  0.00    +0.029 C 
BRANCH  17  19
ATOM     19  C   UNL     1      20.593   5.876  21.124  0.00  0.00    +0.097 C 
BRANCH  19  21
ATOM      2  O   UNL     1      22.499   6.870  20.010  0.00  0.00    -0.276 OA
ATOM      8  N   UNL     1      22.557   4.614  20.550  0.00  0.00    -0.311 N 
ATOM     21  C   UNL     1      21.976   5.872  20.498  0.00  0.00    +0.213 C 
ATOM     33  H   UNL     1      22.056   3.847  20.990  0.00  0.00    +0.149 HD
BRANCH   8  24
ATOM     24  C   UNL     1      23.873   4.350  20.018  0.00  0.00    +0.139 C 
BRANCH  24  25
ATOM     25  C   UNL     1      24.521   3.171  20.683  0.00  0.00    -0.030 A 
ATOM     26  C   UNL     1      23.784   2.012  20.922  0.00  0.00    +0.005 A 
ATOM     27  C   UNL     1      25.863   3.235  21.063  0.00  0.00    +0.005 A 
ATOM     28  C   UNL     1      24.386   0.916  21.540  0.00  0.00    +0.000 A 
ATOM     29  C   UNL     1      26.464   2.139  21.683  0.00  0.00    +0.000 A 
ATOM     30  C   UNL     1      25.726   0.980  21.921  0.00  0.00    +0.000 A 
ENDBRANCH  24  25
ENDBRANCH   8  24
ENDBRANCH  19  21
ENDBRANCH  17  19
ENDBRANCH  13  17
TORSDOF 7
ENDMDL
MODEL 10
REMARK VINA RESULT:      -6.2      1.428      1.888
REMARK  Name = 45360959
REMARK  8 active torsions:
REMARK  status: ('A' for Active; 'I' for Inactive)
REMARK    1  A    between atoms: N_3  and  C_18
REMARK    2  A    between atoms: N_4  and  C_16
REMARK    3  A    between atoms: N_8  and  C_24
REMARK    4  A    between atoms: C_13  and  C_17
REMARK    5  A    between atoms: C_16  and  C_20
REMARK    6  A    between atoms: C_17  and  C_19
REMARK    7  A    between atoms: C_19  and  C_21
REMARK    8  A    between atoms: C_24  and  C_25
REMARK                            x       y       z     vdW  Elec       q    Type
REMARK                         _______ _______ _______ _____ _____    ______ ____
ROOT
ATOM      1  O   UNL     1      -4.930 -11.218   7.876  0.00  0.00    -0.274 OA
ATOM      3  N   UNL     1      -5.648 -10.609  11.631  0.00  0.00    -0.296 NA
ATOM      4  N   UNL     1      -7.174  -9.811   8.403  0.00  0.00    -0.283 NA
ATOM      5  N   UNL     1      -3.692 -10.253   9.541  0.00  0.00    -0.312 N 
ATOM      9  C   UNL     1      -6.500  -9.798  10.735  0.00  0.00    +0.084 C 
ATOM     10  C   UNL     1      -6.015  -9.548   9.276  0.00  0.00    +0.161 C 
ATOM     11  C   UNL     1      -7.906 -10.384  10.509  0.00  0.00    +0.036 C 
ATOM     12  C   UNL     1      -8.368  -9.710   9.234  0.00  0.00    +0.087 C 
ATOM     13  C   UNL     1      -4.316 -10.010  11.926  0.00  0.00    +0.074 C 
ATOM     14  C   UNL     1      -4.858 -10.433   8.821  0.00  0.00    +0.232 C 
ATOM     15  C   UNL     1      -3.597  -9.398  10.708  0.00  0.00    +0.123 C 
ATOM     18  C   UNL     1      -6.356 -10.921  12.886  0.00  0.00    +0.105 C 
ATOM     31  H   UNL     1      -2.875 -10.795   9.274  0.00  0.00    +0.149 HD
ENDROOT
BRANCH   4  16
ATOM     16  C   UNL     1      -7.236  -8.929   7.245  0.00  0.00    +0.159 C 
BRANCH  16  20
ATOM      6  N   UNL     1      -7.539  -6.602   8.114  0.00  0.00    -0.347 N 
ATOM      7  N   UNL     1      -9.341  -7.544   7.221  0.00  0.00    -0.239 NA
ATOM     20  C   UNL     1      -8.069  -7.709   7.511  0.00  0.00    +0.121 A 
ATOM     22  C   UNL     1      -8.535  -5.673   8.214  0.00  0.00    +0.104 A 
ATOM     23  C   UNL     1      -9.638  -6.277   7.657  0.00  0.00    +0.130 A 
ATOM     32  H   UNL     1      -6.583  -6.490   8.427  0.00  0.00    +0.167 HD
ENDBRANCH  16  20
ENDBRANCH   4  16
BRANCH  13  17
ATOM     17  C   UNL     1      -3.373 -11.065  12.540  0.00  0.00    +0.029 C 
BRANCH  17  19
ATOM     19  C   UNL     1      -2.174 -10.401  13.189  0.00  0.00    +0.097 C 
BRANCH  19  21
ATOM      2  O   UNL     1      -1.076 -11.220  15.186  0.00  0.00    -0.276 OA
ATOM      8  N   UNL     1      -3.255 -10.434  15.337  0.00  0.00    -0.311 N 
ATOM     21  C   UNL     1      -2.079 -10.737  14.667  0.00  0.00    +0.213 C 
ATOM     33  H   UNL     1      -4.031 -10.020  14.827  0.00  0.00    +0.149 HD
BRANCH   8  24
ATOM     24  C   UNL     1      -3.417 -10.664  16.753  0.00  0.00    +0.139 C 
BRANCH  24  25
ATOM     25  C   UNL     1      -4.819 -10.386  17.210  0.00  0.00    -0.030 A 
ATOM     26  C   UNL     1      -5.725  -9.772  16.346  0.00  0.00    +0.005 A 
ATOM     27  C   UNL     1      -5.216 -10.741  18.500  0.00  0.00    +0.005 A 
ATOM     28  C   UNL     1      -7.029  -9.513  16.772  0.00  0.00    +0.000 A 
ATOM     29  C   UNL     1      -6.519 -10.482  18.924  0.00  0.00    +0.000 A 
ATOM     30  C   UNL     1      -7.425  -9.868  18.061  0.00  0.00    +0.000 A 
ENDBRANCH  24  25
ENDBRANCH   8  24
ENDBRANCH  19  21
ENDBRANCH  17  19
ENDBRANCH  13  17
TORSDOF 7
ENDMDL
