MODEL 1
REMARK VINA RESULT:      -8.7      0.000      0.000
REMARK  Name = 40777157
REMARK  6 active torsions:
REMARK  status: ('A' for Active; 'I' for Inactive)
REMARK    1  A    between atoms: N_7  and  C_18
REMARK    2  A    between atoms: C_12  and  C_19
REMARK    3  A    between atoms: C_13  and  C_18
REMARK    4  A    between atoms: C_21  and  C_24
REMARK    5  A    between atoms: C_23  and  C_25
REMARK    6  A    between atoms: C_34  and  C_35
REMARK                            x       y       z     vdW  Elec       q    Type
REMARK                         _______ _______ _______ _____ _____    ______ ____
ROOT
ATOM      6  N   UNL     1      12.789   7.074  19.648  0.00  0.00    -0.297 NA
ATOM     11  C   UNL     1      14.281   9.072  18.899  0.00  0.00    +0.002 C 
ATOM     12  C   UNL     1      15.160   7.846  19.270  0.00  0.00    +0.055 C 
ATOM     13  C   UNL     1      12.393   8.306  20.381  0.00  0.00    +0.074 C 
ATOM     14  C   UNL     1      13.396   9.447  20.107  0.00  0.00    +0.024 C 
ATOM     15  C   UNL     1      13.336   8.617  17.768  0.00  0.00    +0.019 C 
ATOM     16  C   UNL     1      14.222   6.773  19.894  0.00  0.00    +0.094 C 
ATOM     17  C   UNL     1      12.611   7.330  18.200  0.00  0.00    +0.085 C 
ENDROOT
BRANCH  12  19
ATOM      8  N   UNL     1      16.526   9.295  20.690  0.00  0.00    -0.237 NA
ATOM     10  N   UNL     1      18.622   8.567  21.631  0.00  0.00    -0.232 NA
ATOM     19  C   UNL     1      16.406   8.082  20.111  0.00  0.00    +0.050 A 
ATOM     20  C   UNL     1      17.340   7.074  20.244  0.00  0.00    +0.052 A 
ATOM     21  C   UNL     1      18.438   7.376  21.024  0.00  0.00    +0.075 A 
ATOM     23  C   UNL     1      17.642   9.467  21.425  0.00  0.00    +0.127 A 
ATOM     25  C   UNL     1      17.810  10.797  22.079  0.00  0.00    +0.088 C 
BRANCH  21  24
ATOM     24  C   UNL     1      19.487   6.408  21.240  0.00  0.00    +0.000 A 
ATOM     30  C   UNL     1      19.703   5.395  20.307  0.00  0.00    +0.010 A 
ATOM     31  C   UNL     1      20.282   6.485  22.383  0.00  0.00    +0.010 A 
ATOM     32  C   UNL     1      20.716   4.458  20.516  0.00  0.00    +0.013 A 
ATOM     33  C   UNL     1      21.295   5.550  22.592  0.00  0.00    +0.013 A 
ATOM     34  C   UNL     1      21.512   4.536  21.659  0.00  0.00    +0.055 A 
BRANCH  34  35
ATOM      1  F   UNL     1      23.848   4.078  21.896  0.00  0.00    -0.166 F 
ATOM      2  F   UNL     1      22.624   2.569  20.920  0.00  0.00    -0.166 F 
ATOM      3  F   UNL     1      22.484   2.866  23.069  0.00  0.00    -0.166 F 
ATOM     35  C   UNL     1      22.595   3.536  21.883  0.00  0.00    +0.417 C 
ENDBRANCH  34  35
ENDBRANCH  21  24
ENDBRANCH  12  19
BRANCH  13  18
ATOM     18  C   UNL     1      12.208   8.058  21.880  0.00  0.00    +0.124 C 
BRANCH  18   7
ATOM      4  O   UNL     1      10.203   9.866  22.672  0.00  0.00    -0.253 OA
ATOM      5  O   UNL     1      12.233  13.231  25.678  0.00  0.00    -0.377 OA
ATOM      7  N   UNL     1      12.419   9.275  22.633  0.00  0.00    -0.298 N 
ATOM      9  N   UNL     1      11.735  11.263  23.712  0.00  0.00    -0.281 N 
ATOM     22  C   UNL     1      11.370  10.117  22.987  0.00  0.00    +0.302 C 
ATOM     26  C   UNL     1      10.694  12.211  24.120  0.00  0.00    +0.137 C 
ATOM     27  C   UNL     1      13.106  11.712  23.993  0.00  0.00    +0.137 C 
ATOM     28  C   UNL     1      10.919  12.686  25.546  0.00  0.00    +0.179 C 
ATOM     29  C   UNL     1      13.223  12.236  25.421  0.00  0.00    +0.179 C 
ATOM     36  H   UNL     1      13.374   9.478  22.888  0.00  0.00    +0.150 HD
ENDBRANCH  18   7
ENDBRANCH  13  18
TORSDOF 5
ENDMDL
MODEL 2
REMARK VINA RESULT:      -8.2     15.611     19.355
REMARK  Name = 40777157
REMARK  6 active torsions:
REMARK  status: ('A' for Active; 'I' for Inactive)
REMARK    1  A    between atoms: N_7  and  C_18
REMARK    2  A    between atoms: C_12  and  C_19
REMARK    3  A    between atoms: C_13  and  C_18
REMARK    4  A    between atoms: C_21  and  C_24
REMARK    5  A    between atoms: C_23  and  C_25
REMARK    6  A    between atoms: C_34  and  C_35
REMARK                            x       y       z     vdW  Elec       q    Type
REMARK                         _______ _______ _______ _____ _____    ______ ____
ROOT
ATOM      6  N   UNL     1      13.079   5.662  -0.447  0.00  0.00    -0.297 NA
ATOM     11  C   UNL     1      11.722   4.173   1.203  0.00  0.00    +0.002 C 
ATOM     12  C   UNL     1      10.906   5.436   0.813  0.00  0.00    +0.055 C 
ATOM     13  C   UNL     1      13.919   5.311   0.729  0.00  0.00    +0.074 C 
ATOM     14  C   UNL     1      13.072   4.607   1.812  0.00  0.00    +0.024 C 
ATOM     15  C   UNL     1      12.035   3.423  -0.108  0.00  0.00    +0.019 C 
ATOM     16  C   UNL     1      11.850   6.365  -0.003  0.00  0.00    +0.094 C 
ATOM     17  C   UNL     1      12.677   4.399  -1.110  0.00  0.00    +0.085 C 
ENDROOT
BRANCH  12  19
ATOM      8  N   UNL     1       9.509   7.304   1.551  0.00  0.00    -0.237 NA
ATOM     10  N   UNL     1       8.834   7.575   3.848  0.00  0.00    -0.232 NA
ATOM     19  C   UNL     1      10.170   6.186   1.915  0.00  0.00    +0.050 A 
ATOM     20  C   UNL     1      10.209   5.705   3.208  0.00  0.00    +0.052 A 
ATOM     21  C   UNL     1       9.515   6.449   4.142  0.00  0.00    +0.075 A 
ATOM     23  C   UNL     1       8.872   7.940   2.552  0.00  0.00    +0.127 A 
ATOM     25  C   UNL     1       8.132   9.183   2.188  0.00  0.00    +0.088 C 
BRANCH  21  24
ATOM     24  C   UNL     1       9.478   6.053   5.530  0.00  0.00    +0.000 A 
ATOM     30  C   UNL     1       9.056   6.959   6.502  0.00  0.00    +0.010 A 
ATOM     31  C   UNL     1       9.867   4.765   5.898  0.00  0.00    +0.010 A 
ATOM     32  C   UNL     1       9.021   6.576   7.844  0.00  0.00    +0.013 A 
ATOM     33  C   UNL     1       9.832   4.382   7.239  0.00  0.00    +0.013 A 
ATOM     34  C   UNL     1       9.409   5.288   8.212  0.00  0.00    +0.055 A 
BRANCH  34  35
ATOM      1  F   UNL     1       8.305   5.381  10.332  0.00  0.00    -0.166 F 
ATOM      2  F   UNL     1      10.477   5.287  10.336  0.00  0.00    -0.166 F 
ATOM      3  F   UNL     1       9.307   3.526   9.826  0.00  0.00    -0.166 F 
ATOM     35  C   UNL     1       9.373   4.878   9.645  0.00  0.00    +0.417 C 
ENDBRANCH  34  35
ENDBRANCH  21  24
ENDBRANCH  12  19
BRANCH  13  18
ATOM     18  C   UNL     1      14.670   6.521   1.291  0.00  0.00    +0.124 C 
BRANCH  18   7
ATOM      4  O   UNL     1      16.183   7.701   3.349  0.00  0.00    -0.253 OA
ATOM      5  O   UNL     1      13.127   8.881   7.056  0.00  0.00    -0.377 OA
ATOM      7  N   UNL     1      14.179   6.866   2.607  0.00  0.00    -0.298 N 
ATOM      9  N   UNL     1      14.376   7.721   4.802  0.00  0.00    -0.281 N 
ATOM     22  C   UNL     1      14.995   7.450   3.570  0.00  0.00    +0.302 C 
ATOM     26  C   UNL     1      15.163   8.329   5.878  0.00  0.00    +0.137 C 
ATOM     27  C   UNL     1      13.019   7.317   5.198  0.00  0.00    +0.137 C 
ATOM     28  C   UNL     1      14.367   9.412   6.589  0.00  0.00    +0.179 C 
ATOM     29  C   UNL     1      12.322   8.437   5.964  0.00  0.00    +0.179 C 
ATOM     36  H   UNL     1      13.209   6.659   2.787  0.00  0.00    +0.150 HD
ENDBRANCH  18   7
ENDBRANCH  13  18
TORSDOF 5
ENDMDL
MODEL 3
REMARK VINA RESULT:      -8.2     27.194     30.593
REMARK  Name = 40777157
REMARK  6 active torsions:
REMARK  status: ('A' for Active; 'I' for Inactive)
REMARK    1  A    between atoms: N_7  and  C_18
REMARK    2  A    between atoms: C_12  and  C_19
REMARK    3  A    between atoms: C_13  and  C_18
REMARK    4  A    between atoms: C_21  and  C_24
REMARK    5  A    between atoms: C_23  and  C_25
REMARK    6  A    between atoms: C_34  and  C_35
REMARK                            x       y       z     vdW  Elec       q    Type
REMARK                         _______ _______ _______ _____ _____    ______ ____
ROOT
ATOM      6  N   UNL     1      -7.389 -11.692  17.827  0.00  0.00    -0.297 NA
ATOM     11  C   UNL     1      -4.884 -11.586  18.530  0.00  0.00    +0.002 C 
ATOM     12  C   UNL     1      -5.160 -10.610  17.354  0.00  0.00    +0.055 C 
ATOM     13  C   UNL     1      -6.825 -13.066  17.904  0.00  0.00    +0.074 C 
ATOM     14  C   UNL     1      -5.296 -13.014  18.114  0.00  0.00    +0.024 C 
ATOM     15  C   UNL     1      -5.814 -11.164  19.687  0.00  0.00    +0.019 C 
ATOM     16  C   UNL     1      -6.612 -10.875  16.861  0.00  0.00    +0.094 C 
ATOM     17  C   UNL     1      -7.260 -11.072  19.167  0.00  0.00    +0.085 C 
ENDROOT
BRANCH  12  19
ATOM      8  N   UNL     1      -2.854 -10.549  16.540  0.00  0.00    -0.237 NA
ATOM     10  N   UNL     1      -2.321 -10.483  14.191  0.00  0.00    -0.232 NA
ATOM     19  C   UNL     1      -4.161 -10.566  16.206  0.00  0.00    +0.050 A 
ATOM     20  C   UNL     1      -4.620 -10.543  14.904  0.00  0.00    +0.052 A 
ATOM     21  C   UNL     1      -3.644 -10.501  13.928  0.00  0.00    +0.075 A 
ATOM     23  C   UNL     1      -2.001 -10.508  15.499  0.00  0.00    +0.127 A 
ATOM     25  C   UNL     1      -0.547 -10.487  15.829  0.00  0.00    +0.088 C 
BRANCH  21  24
ATOM     24  C   UNL     1      -3.993 -10.473  12.528  0.00  0.00    +0.000 A 
ATOM     30  C   UNL     1      -3.001 -10.292  11.565  0.00  0.00    +0.010 A 
ATOM     31  C   UNL     1      -5.324 -10.626  12.139  0.00  0.00    +0.010 A 
ATOM     32  C   UNL     1      -3.339 -10.264  10.212  0.00  0.00    +0.013 A 
ATOM     33  C   UNL     1      -5.662 -10.600  10.785  0.00  0.00    +0.013 A 
ATOM     34  C   UNL     1      -4.669 -10.418   9.822  0.00  0.00    +0.055 A 
BRANCH  34  35
ATOM      1  F   UNL     1      -6.340 -10.692   8.132  0.00  0.00    -0.166 F 
ATOM      2  F   UNL     1      -4.305 -11.276   7.636  0.00  0.00    -0.166 F 
ATOM      3  F   UNL     1      -4.832  -9.172   7.786  0.00  0.00    -0.166 F 
ATOM     35  C   UNL     1      -5.031 -10.388   8.376  0.00  0.00    +0.417 C 
ENDBRANCH  34  35
ENDBRANCH  21  24
ENDBRANCH  12  19
BRANCH  13  18
ATOM     18  C   UNL     1      -7.204 -13.921  16.693  0.00  0.00    +0.124 C 
BRANCH  18   7
ATOM      4  O   UNL     1      -6.600 -13.347  14.005  0.00  0.00    -0.253 OA
ATOM      5  O   UNL     1      -2.012 -14.943  13.061  0.00  0.00    -0.377 OA
ATOM      7  N   UNL     1      -6.024 -14.360  15.982  0.00  0.00    -0.298 N 
ATOM      9  N   UNL     1      -4.611 -14.538  14.095  0.00  0.00    -0.281 N 
ATOM     22  C   UNL     1      -5.799 -14.032  14.649  0.00  0.00    +0.302 C 
ATOM     26  C   UNL     1      -4.297 -14.248  12.694  0.00  0.00    +0.137 C 
ATOM     27  C   UNL     1      -3.686 -15.480  14.741  0.00  0.00    +0.137 C 
ATOM     28  C   UNL     1      -2.827 -13.898  12.527  0.00  0.00    +0.179 C 
ATOM     29  C   UNL     1      -2.237 -15.094  14.463  0.00  0.00    +0.179 C 
ATOM     36  H   UNL     1      -5.372 -14.920  16.509  0.00  0.00    +0.150 HD
ENDBRANCH  18   7
ENDBRANCH  13  18
TORSDOF 5
ENDMDL
MODEL 4
REMARK VINA RESULT:      -7.7     28.146     30.605
REMARK  Name = 40777157
REMARK  6 active torsions:
REMARK  status: ('A' for Active; 'I' for Inactive)
REMARK    1  A    between atoms: N_7  and  C_18
REMARK    2  A    between atoms: C_12  and  C_19
REMARK    3  A    between atoms: C_13  and  C_18
REMARK    4  A    between atoms: C_21  and  C_24
REMARK    5  A    between atoms: C_23  and  C_25
REMARK    6  A    between atoms: C_34  and  C_35
REMARK                            x       y       z     vdW  Elec       q    Type
REMARK                         _______ _______ _______ _____ _____    ______ ____
ROOT
ATOM      6  N   UNL     1      -9.912  -9.349  17.659  0.00  0.00    -0.297 NA
ATOM     11  C   UNL     1      -9.012 -11.736  18.185  0.00  0.00    +0.002 C 
ATOM     12  C   UNL     1      -7.923 -10.667  18.478  0.00  0.00    +0.055 C 
ATOM     13  C   UNL     1     -10.171 -10.255  16.508  0.00  0.00    +0.074 C 
ATOM     14  C   UNL     1      -9.464 -11.612  16.715  0.00  0.00    +0.024 C 
ATOM     15  C   UNL     1     -10.229 -11.384  19.066  0.00  0.00    +0.019 C 
ATOM     16  C   UNL     1      -8.458  -9.304  17.953  0.00  0.00    +0.094 C 
ATOM     17  C   UNL     1     -10.606  -9.909  18.843  0.00  0.00    +0.085 C 
ENDROOT
BRANCH  12  19
ATOM      8  N   UNL     1      -5.650 -11.446  18.935  0.00  0.00    -0.237 NA
ATOM     10  N   UNL     1      -3.932 -11.461  17.245  0.00  0.00    -0.232 NA
ATOM     19  C   UNL     1      -6.500 -10.945  18.015  0.00  0.00    +0.050 A 
ATOM     20  C   UNL     1      -6.144 -10.678  16.708  0.00  0.00    +0.052 A 
ATOM     21  C   UNL     1      -4.834 -10.959  16.376  0.00  0.00    +0.075 A 
ATOM     23  C   UNL     1      -4.400 -11.677  18.489  0.00  0.00    +0.127 A 
ATOM     25  C   UNL     1      -3.431 -12.230  19.479  0.00  0.00    +0.088 C 
BRANCH  21  24
ATOM     24  C   UNL     1      -4.337 -10.724  15.041  0.00  0.00    +0.000 A 
ATOM     30  C   UNL     1      -2.965 -10.737  14.796  0.00  0.00    +0.010 A 
ATOM     31  C   UNL     1      -5.231 -10.483  13.998  0.00  0.00    +0.010 A 
ATOM     32  C   UNL     1      -2.485 -10.510  13.506  0.00  0.00    +0.013 A 
ATOM     33  C   UNL     1      -4.752 -10.256  12.708  0.00  0.00    +0.013 A 
ATOM     34  C   UNL     1      -3.378 -10.269  12.462  0.00  0.00    +0.055 A 
BRANCH  34  35
ATOM      1  F   UNL     1      -1.539  -9.710  11.038  0.00  0.00    -0.166 F 
ATOM      2  F   UNL     1      -3.508  -8.994  10.460  0.00  0.00    -0.166 F 
ATOM      3  F   UNL     1      -3.006 -11.099  10.250  0.00  0.00    -0.166 F 
ATOM     35  C   UNL     1      -2.867 -10.025  11.083  0.00  0.00    +0.417 C 
ENDBRANCH  34  35
ENDBRANCH  21  24
ENDBRANCH  12  19
BRANCH  13  18
ATOM     18  C   UNL     1      -9.799  -9.617  15.168  0.00  0.00    +0.124 C 
BRANCH  18   7
ATOM      4  O   UNL     1     -10.152  -6.847  15.519  0.00  0.00    -0.253 OA
ATOM      5  O   UNL     1     -13.962  -5.392  12.718  0.00  0.00    -0.377 OA
ATOM      7  N   UNL     1     -10.897  -8.834  14.647  0.00  0.00    -0.298 N 
ATOM      9  N   UNL     1     -12.125  -6.845  14.300  0.00  0.00    -0.281 N 
ATOM     22  C   UNL     1     -10.998  -7.464  14.865  0.00  0.00    +0.302 C 
ATOM     26  C   UNL     1     -12.316  -5.404  14.487  0.00  0.00    +0.137 C 
ATOM     27  C   UNL     1     -13.251  -7.524  13.644  0.00  0.00    +0.137 C 
ATOM     28  C   UNL     1     -12.783  -4.745  13.199  0.00  0.00    +0.179 C 
ATOM     29  C   UNL     1     -13.698  -6.759  12.402  0.00  0.00    +0.179 C 
ATOM     36  H   UNL     1     -11.588  -9.340  14.114  0.00  0.00    +0.150 HD
ENDBRANCH  18   7
ENDBRANCH  13  18
TORSDOF 5
ENDMDL
MODEL 5
REMARK VINA RESULT:      -7.6     17.432     20.829
REMARK  Name = 40777157
REMARK  6 active torsions:
REMARK  status: ('A' for Active; 'I' for Inactive)
REMARK    1  A    between atoms: N_7  and  C_18
REMARK    2  A    between atoms: C_12  and  C_19
REMARK    3  A    between atoms: C_13  and  C_18
REMARK    4  A    between atoms: C_21  and  C_24
REMARK    5  A    between atoms: C_23  and  C_25
REMARK    6  A    between atoms: C_34  and  C_35
REMARK                            x       y       z     vdW  Elec       q    Type
REMARK                         _______ _______ _______ _____ _____    ______ ____
ROOT
ATOM      6  N   UNL     1       9.721   7.106   7.359  0.00  0.00    -0.297 NA
ATOM     11  C   UNL     1       9.946   5.088   5.729  0.00  0.00    +0.002 C 
ATOM     12  C   UNL     1      11.184   6.019   5.616  0.00  0.00    +0.055 C 
ATOM     13  C   UNL     1       8.477   6.959   6.558  0.00  0.00    +0.074 C 
ATOM     14  C   UNL     1       8.667   5.904   5.446  0.00  0.00    +0.024 C 
ATOM     15  C   UNL     1       9.872   4.622   7.198  0.00  0.00    +0.019 C 
ATOM     16  C   UNL     1      10.887   7.291   6.459  0.00  0.00    +0.094 C 
ATOM     17  C   UNL     1       9.921   5.851   8.122  0.00  0.00    +0.085 C 
ENDROOT
BRANCH  12  19
ATOM      8  N   UNL     1      12.342   7.538   4.087  0.00  0.00    -0.237 NA
ATOM     10  N   UNL     1      12.659   7.020   1.755  0.00  0.00    -0.232 NA
ATOM     19  C   UNL     1      11.705   6.357   4.226  0.00  0.00    +0.050 A 
ATOM     20  C   UNL     1      11.508   5.466   3.189  0.00  0.00    +0.052 A 
ATOM     21  C   UNL     1      12.012   5.855   1.964  0.00  0.00    +0.075 A 
ATOM     23  C   UNL     1      12.787   7.802   2.844  0.00  0.00    +0.127 A 
ATOM     25  C   UNL     1      13.496   9.100   2.652  0.00  0.00    +0.088 C 
BRANCH  21  24
ATOM     24  C   UNL     1      11.870   5.013   0.800  0.00  0.00    +0.000 A 
ATOM     30  C   UNL     1      10.758   5.150  -0.028  0.00  0.00    +0.010 A 
ATOM     31  C   UNL     1      12.847   4.061   0.506  0.00  0.00    +0.010 A 
ATOM     32  C   UNL     1      10.621   4.336  -1.153  0.00  0.00    +0.013 A 
ATOM     33  C   UNL     1      12.711   3.248  -0.619  0.00  0.00    +0.013 A 
ATOM     34  C   UNL     1      11.597   3.385  -1.448  0.00  0.00    +0.055 A 
BRANCH  34  35
ATOM      1  F   UNL     1      11.150   3.200  -3.791  0.00  0.00    -0.166 F 
ATOM      2  F   UNL     1      10.461   1.586  -2.508  0.00  0.00    -0.166 F 
ATOM      3  F   UNL     1      12.579   1.802  -2.950  0.00  0.00    -0.166 F 
ATOM     35  C   UNL     1      11.452   2.514  -2.650  0.00  0.00    +0.417 C 
ENDBRANCH  34  35
ENDBRANCH  21  24
ENDBRANCH  12  19
BRANCH  13  18
ATOM     18  C   UNL     1       7.983   8.294   5.998  0.00  0.00    +0.124 C 
BRANCH  18   7
ATOM      4  O   UNL     1       6.501   9.740   4.092  0.00  0.00    -0.253 OA
ATOM      5  O   UNL     1       9.051   9.804  -0.148  0.00  0.00    -0.377 OA
ATOM      7  N   UNL     1       8.305   8.415   4.593  0.00  0.00    -0.298 N 
ATOM      9  N   UNL     1       7.959   9.169   2.381  0.00  0.00    -0.281 N 
ATOM     22  C   UNL     1       7.519   9.152   3.715  0.00  0.00    +0.302 C 
ATOM     26  C   UNL     1       7.186   9.915   1.384  0.00  0.00    +0.137 C 
ATOM     27  C   UNL     1       9.064   8.378   1.821  0.00  0.00    +0.137 C 
ATOM     28  C   UNL     1       8.103  10.689   0.451  0.00  0.00    +0.179 C 
ATOM     29  C   UNL     1       9.888   9.211   0.845  0.00  0.00    +0.179 C 
ATOM     36  H   UNL     1       9.137   7.933   4.286  0.00  0.00    +0.150 HD
ENDBRANCH  18   7
ENDBRANCH  13  18
TORSDOF 5
ENDMDL
MODEL 6
REMARK VINA RESULT:      -7.6     29.443     31.934
REMARK  Name = 40777157
REMARK  6 active torsions:
REMARK  status: ('A' for Active; 'I' for Inactive)
REMARK    1  A    between atoms: N_7  and  C_18
REMARK    2  A    between atoms: C_12  and  C_19
REMARK    3  A    between atoms: C_13  and  C_18
REMARK    4  A    between atoms: C_21  and  C_24
REMARK    5  A    between atoms: C_23  and  C_25
REMARK    6  A    between atoms: C_34  and  C_35
REMARK                            x       y       z     vdW  Elec       q    Type
REMARK                         _______ _______ _______ _____ _____    ______ ____
ROOT
ATOM      6  N   UNL     1      -4.589  -9.449  11.284  0.00  0.00    -0.297 NA
ATOM     11  C   UNL     1      -5.504 -10.889   9.316  0.00  0.00    +0.002 C 
ATOM     12  C   UNL     1      -5.419  -9.394   8.903  0.00  0.00    +0.055 C 
ATOM     13  C   UNL     1      -5.700 -10.315  11.762  0.00  0.00    +0.074 C 
ATOM     14  C   UNL     1      -6.390 -11.019  10.573  0.00  0.00    +0.024 C 
ATOM     15  C   UNL     1      -4.079 -11.321   9.718  0.00  0.00    +0.019 C 
ATOM     16  C   UNL     1      -5.062  -8.578  10.179  0.00  0.00    +0.094 C 
ATOM     17  C   UNL     1      -3.522 -10.331  10.755  0.00  0.00    +0.085 C 
ENDROOT
BRANCH  12  19
ATOM      8  N   UNL     1      -6.701  -9.119   6.838  0.00  0.00    -0.237 NA
ATOM     10  N   UNL     1      -8.671  -7.735   6.722  0.00  0.00    -0.232 NA
ATOM     19  C   UNL     1      -6.590  -8.790   8.142  0.00  0.00    +0.050 A 
ATOM     20  C   UNL     1      -7.468  -7.950   8.797  0.00  0.00    +0.052 A 
ATOM     21  C   UNL     1      -8.500  -7.448   8.029  0.00  0.00    +0.075 A 
ATOM     23  C   UNL     1      -7.748  -8.564   6.198  0.00  0.00    +0.127 A 
ATOM     25  C   UNL     1      -7.902  -8.904   4.754  0.00  0.00    +0.088 C 
BRANCH  21  24
ATOM     24  C   UNL     1      -9.485  -6.558   8.597  0.00  0.00    +0.000 A 
ATOM     30  C   UNL     1      -9.337  -5.178   8.464  0.00  0.00    +0.010 A 
ATOM     31  C   UNL     1     -10.584  -7.080   9.279  0.00  0.00    +0.010 A 
ATOM     32  C   UNL     1     -10.288  -4.318   9.013  0.00  0.00    +0.013 A 
ATOM     33  C   UNL     1     -11.536  -6.220   9.828  0.00  0.00    +0.013 A 
ATOM     34  C   UNL     1     -11.387  -4.839   9.695  0.00  0.00    +0.055 A 
BRANCH  34  35
ATOM      1  F   UNL     1     -11.957  -3.231  11.371  0.00  0.00    -0.166 F 
ATOM      2  F   UNL     1     -13.525  -4.579  10.701  0.00  0.00    -0.166 F 
ATOM      3  F   UNL     1     -12.847  -2.965   9.411  0.00  0.00    -0.166 F 
ATOM     35  C   UNL     1     -12.405  -3.921  10.282  0.00  0.00    +0.417 C 
ENDBRANCH  34  35
ENDBRANCH  21  24
ENDBRANCH  12  19
BRANCH  13  18
ATOM     18  C   UNL     1      -6.702  -9.552  12.631  0.00  0.00    +0.124 C 
BRANCH  18   7
ATOM      4  O   UNL     1      -8.504  -9.544  14.792  0.00  0.00    -0.253 OA
ATOM      5  O   UNL     1      -5.978 -10.503  18.937  0.00  0.00    -0.377 OA
ATOM      7  N   UNL     1      -6.343  -9.639  14.029  0.00  0.00    -0.298 N 
ATOM      9  N   UNL     1      -6.793  -9.713  16.348  0.00  0.00    -0.281 N 
ATOM     22  C   UNL     1      -7.298  -9.629  15.040  0.00  0.00    +0.302 C 
ATOM     26  C   UNL     1      -7.728  -9.701  17.476  0.00  0.00    +0.137 C 
ATOM     27  C   UNL     1      -5.376  -9.663  16.736  0.00  0.00    +0.137 C 
ATOM     28  C   UNL     1      -7.327 -10.725  18.526  0.00  0.00    +0.179 C 
ATOM     29  C   UNL     1      -5.079 -10.673  17.840  0.00  0.00    +0.179 C 
ATOM     36  H   UNL     1      -5.356  -9.707  14.230  0.00  0.00    +0.150 HD
ENDBRANCH  18   7
ENDBRANCH  13  18
TORSDOF 5
ENDMDL
MODEL 7
REMARK VINA RESULT:      -7.6     27.287     30.458
REMARK  Name = 40777157
REMARK  6 active torsions:
REMARK  status: ('A' for Active; 'I' for Inactive)
REMARK    1  A    between atoms: N_7  and  C_18
REMARK    2  A    between atoms: C_12  and  C_19
REMARK    3  A    between atoms: C_13  and  C_18
REMARK    4  A    between atoms: C_21  and  C_24
REMARK    5  A    between atoms: C_23  and  C_25
REMARK    6  A    between atoms: C_34  and  C_35
REMARK                            x       y       z     vdW  Elec       q    Type
REMARK                         _______ _______ _______ _____ _____    ______ ____
ROOT
ATOM      6  N   UNL     1      -7.779 -10.299  17.669  0.00  0.00    -0.297 NA
ATOM     11  C   UNL     1      -5.873 -12.070  17.781  0.00  0.00    +0.002 C 
ATOM     12  C   UNL     1      -5.303 -10.683  17.376  0.00  0.00    +0.055 C 
ATOM     13  C   UNL     1      -8.164 -11.510  16.897  0.00  0.00    +0.074 C 
ATOM     14  C   UNL     1      -6.971 -12.482  16.777  0.00  0.00    +0.024 C 
ATOM     15  C   UNL     1      -6.556 -11.888  19.152  0.00  0.00    +0.019 C 
ATOM     16  C   UNL     1      -6.513  -9.736  17.135  0.00  0.00    +0.094 C 
ATOM     17  C   UNL     1      -7.545 -10.712  19.073  0.00  0.00    +0.085 C 
ENDROOT
BRANCH  12  19
ATOM      8  N   UNL     1      -2.989 -10.559  16.593  0.00  0.00    -0.237 NA
ATOM     10  N   UNL     1      -2.425 -10.515  14.250  0.00  0.00    -0.232 NA
ATOM     19  C   UNL     1      -4.290 -10.625  16.241  0.00  0.00    +0.050 A 
ATOM     20  C   UNL     1      -4.730 -10.638  14.933  0.00  0.00    +0.052 A 
ATOM     21  C   UNL     1      -3.743 -10.581  13.970  0.00  0.00    +0.075 A 
ATOM     23  C   UNL     1      -2.123 -10.508  15.562  0.00  0.00    +0.127 A 
ATOM     25  C   UNL     1      -0.675 -10.433  15.912  0.00  0.00    +0.088 C 
BRANCH  21  24
ATOM     24  C   UNL     1      -4.074 -10.587  12.565  0.00  0.00    +0.000 A 
ATOM     30  C   UNL     1      -3.189 -11.144  11.643  0.00  0.00    +0.010 A 
ATOM     31  C   UNL     1      -5.278 -10.034  12.130  0.00  0.00    +0.010 A 
ATOM     32  C   UNL     1      -3.508 -11.150  10.285  0.00  0.00    +0.013 A 
ATOM     33  C   UNL     1      -5.598 -10.041  10.772  0.00  0.00    +0.013 A 
ATOM     34  C   UNL     1      -4.712 -10.598   9.850  0.00  0.00    +0.055 A 
BRANCH  34  35
ATOM      1  F   UNL     1      -4.829  -9.408   7.777  0.00  0.00    -0.166 F 
ATOM      2  F   UNL     1      -6.369 -10.891   8.171  0.00  0.00    -0.166 F 
ATOM      3  F   UNL     1      -4.348 -11.521   7.673  0.00  0.00    -0.166 F 
ATOM     35  C   UNL     1      -5.055 -10.603   8.398  0.00  0.00    +0.417 C 
ENDBRANCH  34  35
ENDBRANCH  21  24
ENDBRANCH  12  19
BRANCH  13  18
ATOM     18  C   UNL     1      -8.756 -11.165  15.528  0.00  0.00    +0.124 C 
BRANCH  18   7
ATOM      4  O   UNL     1     -10.889 -10.308  13.905  0.00  0.00    -0.253 OA
ATOM      5  O   UNL     1     -12.282  -5.804  15.406  0.00  0.00    -0.377 OA
ATOM      7  N   UNL     1      -9.348  -9.845  15.540  0.00  0.00    -0.298 N 
ATOM      9  N   UNL     1     -10.865  -8.180  14.827  0.00  0.00    -0.281 N 
ATOM     22  C   UNL     1     -10.403  -9.501  14.704  0.00  0.00    +0.302 C 
ATOM     26  C   UNL     1     -11.970  -7.727  13.978  0.00  0.00    +0.137 C 
ATOM     27  C   UNL     1     -10.249  -7.118  15.636  0.00  0.00    +0.137 C 
ATOM     28  C   UNL     1     -12.959  -6.889  14.772  0.00  0.00    +0.179 C 
ATOM     29  C   UNL     1     -11.315  -6.285  16.340  0.00  0.00    +0.179 C 
ATOM     36  H   UNL     1      -8.949  -9.187  16.192  0.00  0.00    +0.150 HD
ENDBRANCH  18   7
ENDBRANCH  13  18
TORSDOF 5
ENDMDL
MODEL 8
REMARK VINA RESULT:      -7.4     28.692     31.657
REMARK  Name = 40777157
REMARK  6 active torsions:
REMARK  status: ('A' for Active; 'I' for Inactive)
REMARK    1  A    between atoms: N_7  and  C_18
REMARK    2  A    between atoms: C_12  and  C_19
REMARK    3  A    between atoms: C_13  and  C_18
REMARK    4  A    between atoms: C_21  and  C_24
REMARK    5  A    between atoms: C_23  and  C_25
REMARK    6  A    between atoms: C_34  and  C_35
REMARK                            x       y       z     vdW  Elec       q    Type
REMARK                         _______ _______ _______ _____ _____    ______ ____
ROOT
ATOM      6  N   UNL     1      -6.839  -9.643   8.365  0.00  0.00    -0.297 NA
ATOM     11  C   UNL     1      -7.729  -9.631  10.812  0.00  0.00    +0.002 C 
ATOM     12  C   UNL     1      -6.261  -9.126  10.765  0.00  0.00    +0.055 C 
ATOM     13  C   UNL     1      -7.458 -10.956   8.686  0.00  0.00    +0.074 C 
ATOM     14  C   UNL     1      -7.803 -11.041  10.189  0.00  0.00    +0.024 C 
ATOM     15  C   UNL     1      -8.552  -8.691   9.906  0.00  0.00    +0.019 C 
ATOM     16  C   UNL     1      -5.738  -9.352   9.317  0.00  0.00    +0.094 C 
ATOM     17  C   UNL     1      -7.879  -8.599   8.526  0.00  0.00    +0.085 C 
ENDROOT
BRANCH  12  19
ATOM      8  N   UNL     1      -4.043  -9.944  11.394  0.00  0.00    -0.237 NA
ATOM     10  N   UNL     1      -3.501 -10.577  13.656  0.00  0.00    -0.232 NA
ATOM     19  C   UNL     1      -5.289  -9.642  11.816  0.00  0.00    +0.050 A 
ATOM     20  C   UNL     1      -5.709  -9.779  13.124  0.00  0.00    +0.052 A 
ATOM     21  C   UNL     1      -4.762 -10.256  14.009  0.00  0.00    +0.075 A 
ATOM     23  C   UNL     1      -3.213 -10.400  12.352  0.00  0.00    +0.127 A 
ATOM     25  C   UNL     1      -1.827 -10.746  11.923  0.00  0.00    +0.088 C 
BRANCH  21  24
ATOM     24  C   UNL     1      -5.077 -10.445  15.405  0.00  0.00    +0.000 A 
ATOM     30  C   UNL     1      -4.243 -11.220  16.209  0.00  0.00    +0.010 A 
ATOM     31  C   UNL     1      -6.217  -9.853  15.948  0.00  0.00    +0.010 A 
ATOM     32  C   UNL     1      -4.547 -11.403  17.558  0.00  0.00    +0.013 A 
ATOM     33  C   UNL     1      -6.522 -10.035  17.297  0.00  0.00    +0.013 A 
ATOM     34  C   UNL     1      -5.687 -10.811  18.102  0.00  0.00    +0.055 A 
BRANCH  34  35
ATOM      1  F   UNL     1      -6.264  -9.841  20.211  0.00  0.00    -0.166 F 
ATOM      2  F   UNL     1      -5.003 -11.612  20.233  0.00  0.00    -0.166 F 
ATOM      3  F   UNL     1      -7.118 -11.782  19.755  0.00  0.00    -0.166 F 
ATOM     35  C   UNL     1      -6.013 -11.006  19.544  0.00  0.00    +0.417 C 
ENDBRANCH  34  35
ENDBRANCH  21  24
ENDBRANCH  12  19
BRANCH  13  18
ATOM     18  C   UNL     1      -6.593 -12.135   8.234  0.00  0.00    +0.124 C 
BRANCH  18   7
ATOM      4  O   UNL     1      -4.075 -12.323   6.992  0.00  0.00    -0.253 OA
ATOM      5  O   UNL     1      -4.762 -12.587   2.100  0.00  0.00    -0.377 OA
ATOM      7  N   UNL     1      -6.349 -12.078   6.810  0.00  0.00    -0.298 N 
ATOM      9  N   UNL     1      -4.993 -12.100   4.874  0.00  0.00    -0.281 N 
ATOM     22  C   UNL     1      -5.070 -12.180   6.274  0.00  0.00    +0.302 C 
ATOM     26  C   UNL     1      -3.683 -12.190   4.225  0.00  0.00    +0.137 C 
ATOM     27  C   UNL     1      -6.100 -11.780   3.962  0.00  0.00    +0.137 C 
ATOM     28  C   UNL     1      -3.749 -13.067   2.985  0.00  0.00    +0.179 C 
ATOM     29  C   UNL     1      -6.048 -12.658   2.716  0.00  0.00    +0.179 C 
ATOM     36  H   UNL     1      -7.162 -11.960   6.225  0.00  0.00    +0.150 HD
ENDBRANCH  18   7
ENDBRANCH  13  18
TORSDOF 5
ENDMDL
MODEL 9
REMARK VINA RESULT:      -7.4     28.951     32.337
REMARK  Name = 40777157
REMARK  6 active torsions:
REMARK  status: ('A' for Active; 'I' for Inactive)
REMARK    1  A    between atoms: N_7  and  C_18
REMARK    2  A    between atoms: C_12  and  C_19
REMARK    3  A    between atoms: C_13  and  C_18
REMARK    4  A    between atoms: C_21  and  C_24
REMARK    5  A    between atoms: C_23  and  C_25
REMARK    6  A    between atoms: C_34  and  C_35
REMARK                            x       y       z     vdW  Elec       q    Type
REMARK                         _______ _______ _______ _____ _____    ______ ____
ROOT
ATOM      6  N   UNL     1      -6.691 -11.917  16.955  0.00  0.00    -0.297 NA
ATOM     11  C   UNL     1      -7.540 -11.245  19.323  0.00  0.00    +0.002 C 
ATOM     12  C   UNL     1      -8.736 -11.601  18.398  0.00  0.00    +0.055 C 
ATOM     13  C   UNL     1      -6.069 -10.632  17.372  0.00  0.00    +0.074 C 
ATOM     14  C   UNL     1      -6.714 -10.113  18.675  0.00  0.00    +0.024 C 
ATOM     15  C   UNL     1      -6.634 -12.493  19.381  0.00  0.00    +0.019 C 
ATOM     16  C   UNL     1      -8.170 -11.793  16.962  0.00  0.00    +0.094 C 
ATOM     17  C   UNL     1      -6.309 -12.949  17.948  0.00  0.00    +0.085 C 
ENDROOT
BRANCH  12  19
ATOM      8  N   UNL     1     -10.772 -10.800  19.491  0.00  0.00    -0.237 NA
ATOM     10  N   UNL     1     -12.169  -9.095  18.516  0.00  0.00    -0.232 NA
ATOM     19  C   UNL     1      -9.958 -10.694  18.421  0.00  0.00    +0.050 A 
ATOM     20  C   UNL     1     -10.180  -9.824  17.372  0.00  0.00    +0.052 A 
ATOM     21  C   UNL     1     -11.312  -9.041  17.475  0.00  0.00    +0.075 A 
ATOM     23  C   UNL     1     -11.843  -9.984  19.475  0.00  0.00    +0.127 A 
ATOM     25  C   UNL     1     -12.768 -10.074  20.641  0.00  0.00    +0.088 C 
BRANCH  21  24
ATOM     24  C   UNL     1     -11.657  -8.092  16.444  0.00  0.00    +0.000 A 
ATOM     30  C   UNL     1     -12.421  -8.497  15.350  0.00  0.00    +0.010 A 
ATOM     31  C   UNL     1     -11.225  -6.769  16.543  0.00  0.00    +0.010 A 
ATOM     32  C   UNL     1     -12.753  -7.579  14.354  0.00  0.00    +0.013 A 
ATOM     33  C   UNL     1     -11.558  -5.851  15.547  0.00  0.00    +0.013 A 
ATOM     34  C   UNL     1     -12.322  -6.257  14.451  0.00  0.00    +0.055 A 
BRANCH  34  35
ATOM      1  F   UNL     1     -13.655  -4.396  13.755  0.00  0.00    -0.166 F 
ATOM      2  F   UNL     1     -13.135  -5.877  12.251  0.00  0.00    -0.166 F 
ATOM      3  F   UNL     1     -11.628  -4.495  12.990  0.00  0.00    -0.166 F 
ATOM     35  C   UNL     1     -12.677  -5.275  13.387  0.00  0.00    +0.417 C 
ENDBRANCH  34  35
ENDBRANCH  21  24
ENDBRANCH  12  19
BRANCH  13  18
ATOM     18  C   UNL     1      -6.105  -9.580  16.261  0.00  0.00    +0.124 C 
BRANCH  18   7
ATOM      4  O   UNL     1      -6.842  -9.736  13.551  0.00  0.00    -0.253 OA
ATOM      5  O   UNL     1      -2.761 -10.523  10.865  0.00  0.00    -0.377 OA
ATOM      7  N   UNL     1      -5.232  -9.951  15.170  0.00  0.00    -0.298 N 
ATOM      9  N   UNL     1      -4.711 -10.388  12.907  0.00  0.00    -0.281 N 
ATOM     22  C   UNL     1      -5.675 -10.004  13.853  0.00  0.00    +0.302 C 
ATOM     26  C   UNL     1      -5.094 -10.478  11.495  0.00  0.00    +0.137 C 
ATOM     27  C   UNL     1      -3.353 -10.869  13.198  0.00  0.00    +0.137 C 
ATOM     28  C   UNL     1      -4.014  -9.890  10.600  0.00  0.00    +0.179 C 
ATOM     29  C   UNL     1      -2.348 -10.284  12.211  0.00  0.00    +0.179 C 
ATOM     36  H   UNL     1      -4.279 -10.171  15.420  0.00  0.00    +0.150 HD
ENDBRANCH  18   7
ENDBRANCH  13  18
TORSDOF 5
ENDMDL
MODEL 10
REMARK VINA RESULT:      -7.3     29.799     33.376
REMARK  Name = 40777157
REMARK  6 active torsions:
REMARK  status: ('A' for Active; 'I' for Inactive)
REMARK    1  A    between atoms: N_7  and  C_18
REMARK    2  A    between atoms: C_12  and  C_19
REMARK    3  A    between atoms: C_13  and  C_18
REMARK    4  A    between atoms: C_21  and  C_24
REMARK    5  A    between atoms: C_23  and  C_25
REMARK    6  A    between atoms: C_34  and  C_35
REMARK                            x       y       z     vdW  Elec       q    Type
REMARK                         _______ _______ _______ _____ _____    ______ ____
ROOT
ATOM      6  N   UNL     1     -12.341 -12.146  19.842  0.00  0.00    -0.297 NA
ATOM     11  C   UNL     1     -12.448  -9.633  19.171  0.00  0.00    +0.002 C 
ATOM     12  C   UNL     1     -12.780 -10.536  17.951  0.00  0.00    +0.055 C 
ATOM     13  C   UNL     1     -11.107 -11.448  20.290  0.00  0.00    +0.074 C 
ATOM     14  C   UNL     1     -11.058 -10.013  19.722  0.00  0.00    +0.024 C 
ATOM     15  C   UNL     1     -13.479  -9.968  20.268  0.00  0.00    +0.019 C 
ATOM     16  C   UNL     1     -12.500 -12.007  18.373  0.00  0.00    +0.094 C 
ATOM     17  C   UNL     1     -13.497 -11.490  20.497  0.00  0.00    +0.085 C 
ENDROOT
BRANCH  12  19
ATOM      8  N   UNL     1     -11.337 -11.119  16.064  0.00  0.00    -0.237 NA
ATOM     10  N   UNL     1     -10.991  -9.629  14.202  0.00  0.00    -0.232 NA
ATOM     19  C   UNL     1     -12.151 -10.191  16.608  0.00  0.00    +0.050 A 
ATOM     20  C   UNL     1     -12.429  -8.975  16.018  0.00  0.00    +0.052 A 
ATOM     21  C   UNL     1     -11.815  -8.746  14.803  0.00  0.00    +0.075 A 
ATOM     23  C   UNL     1     -10.799 -10.778  14.877  0.00  0.00    +0.127 A 
ATOM     25  C   UNL     1      -9.892 -11.779  14.245  0.00  0.00    +0.088 C 
BRANCH  21  24
ATOM     24  C   UNL     1     -12.023  -7.512  14.084  0.00  0.00    +0.000 A 
ATOM     30  C   UNL     1     -12.375  -7.541  12.736  0.00  0.00    +0.010 A 
ATOM     31  C   UNL     1     -11.872  -6.290  14.740  0.00  0.00    +0.010 A 
ATOM     32  C   UNL     1     -12.576  -6.348  12.041  0.00  0.00    +0.013 A 
ATOM     33  C   UNL     1     -12.074  -5.097  14.046  0.00  0.00    +0.013 A 
ATOM     34  C   UNL     1     -12.425  -5.126  12.696  0.00  0.00    +0.055 A 
BRANCH  34  35
ATOM      1  F   UNL     1     -11.796  -2.847  12.335  0.00  0.00    -0.166 F 
ATOM      2  F   UNL     1     -13.899  -3.353  12.121  0.00  0.00    -0.166 F 
ATOM      3  F   UNL     1     -12.469  -3.967  10.603  0.00  0.00    -0.166 F 
ATOM     35  C   UNL     1     -12.640  -3.851  11.954  0.00  0.00    +0.417 C 
ENDBRANCH  34  35
ENDBRANCH  21  24
ENDBRANCH  12  19
BRANCH  13  18
ATOM     18  C   UNL     1      -9.838 -12.236  19.958  0.00  0.00    +0.124 C 
BRANCH  18   7
ATOM      4  O   UNL     1      -7.042 -12.065  20.225  0.00  0.00    -0.253 OA
ATOM      5  O   UNL     1      -5.251  -9.583  16.337  0.00  0.00    -0.377 OA
ATOM      7  N   UNL     1      -8.956 -11.461  19.114  0.00  0.00    -0.298 N 
ATOM      9  N   UNL     1      -6.858 -10.627  18.415  0.00  0.00    -0.281 N 
ATOM     22  C   UNL     1      -7.580 -11.430  19.312  0.00  0.00    +0.302 C 
ATOM     26  C   UNL     1      -5.403 -10.529  18.555  0.00  0.00    +0.137 C 
ATOM     27  C   UNL     1      -7.431  -9.725  17.405  0.00  0.00    +0.137 C 
ATOM     28  C   UNL     1      -4.720 -10.591  17.199  0.00  0.00    +0.179 C 
ATOM     29  C   UNL     1      -6.643  -9.800  16.101  0.00  0.00    +0.179 C 
ATOM     36  H   UNL     1      -9.398 -10.942  18.370  0.00  0.00    +0.150 HD
ENDBRANCH  18   7
ENDBRANCH  13  18
TORSDOF 5
ENDMDL
