MODEL 1
REMARK VINA RESULT:      -7.6      0.000      0.000
REMARK  Name = 26744148
REMARK  7 active torsions:
REMARK  status: ('A' for Active; 'I' for Inactive)
REMARK    1  A    between atoms: O_2  and  C_10
REMARK    2  A    between atoms: O_4  and  C_26
REMARK    3  A    between atoms: O_4  and  C_27
REMARK    4  A    between atoms: N_5  and  C_12
REMARK    5  A    between atoms: C_8  and  C_13
REMARK    6  A    between atoms: C_12  and  C_14
REMARK    7  A    between atoms: C_17  and  C_18
REMARK                            x       y       z     vdW  Elec       q    Type
REMARK                         _______ _______ _______ _____ _____    ______ ____
ROOT
ATOM      5  N   UNL     1      12.587   8.418  18.709  0.00  0.00    -0.285 NA
ATOM      8  C   UNL     1      13.701   7.592  18.200  0.00  0.00    +0.149 C 
ATOM      9  C   UNL     1      13.925   8.079  16.757  0.00  0.00    +0.061 C 
ATOM     10  C   UNL     1      12.862   9.146  16.531  0.00  0.00    +0.130 C 
ATOM     11  C   UNL     1      11.788   8.798  17.544  0.00  0.00    +0.116 C 
ENDROOT
BRANCH   8  13
ATOM      3  O   UNL     1      15.085   8.842  19.779  0.00  0.00    -0.336 OA
ATOM      6  N   UNL     1      15.926   6.846  19.207  0.00  0.00    -0.190 NA
ATOM      7  N   UNL     1      16.292   8.712  20.478  0.00  0.00    -0.056 NA
ATOM     13  C   UNL     1      14.945   7.700  19.056  0.00  0.00    +0.245 A 
ATOM     17  C   UNL     1      16.728   7.510  20.089  0.00  0.00    +0.202 A 
BRANCH  17  18
ATOM     18  C   UNL     1      17.958   6.944  20.562  0.00  0.00    +0.023 A 
ATOM     22  C   UNL     1      18.620   7.522  21.644  0.00  0.00    +0.015 A 
ATOM     23  C   UNL     1      18.491   5.816  19.939  0.00  0.00    +0.015 A 
ATOM     24  C   UNL     1      19.818   6.974  22.104  0.00  0.00    +0.046 A 
ATOM     25  C   UNL     1      19.689   5.267  20.397  0.00  0.00    +0.046 A 
ATOM     26  C   UNL     1      20.351   5.845  21.480  0.00  0.00    +0.120 A 
BRANCH  26   4
ATOM      4  O   UNL     1      21.520   5.309  21.928  0.00  0.00    -0.495 OA
ATOM     27  C   UNL     1      21.790   3.953  21.574  0.00  0.00    +0.277 C 
ENDBRANCH  26   4
ENDBRANCH  17  18
ENDBRANCH   8  13
BRANCH  10   2
ATOM      2  O   UNL     1      12.370   9.092  15.206  0.00  0.00    -0.390 OA
ATOM     28  H   UNL     1      12.340   8.157  14.943  0.00  0.00    +0.210 HD
ENDBRANCH  10   2
BRANCH   5  12
ATOM     12  C   UNL     1      11.788   7.743  19.724  0.00  0.00    +0.120 C 
BRANCH  12  14
ATOM      1  F   UNL     1      10.645  11.124  24.085  0.00  0.00    -0.205 F 
ATOM     14  C   UNL     1      11.483   8.646  20.889  0.00  0.00    -0.033 A 
ATOM     15  C   UNL     1      11.857   9.990  20.847  0.00  0.00    +0.008 A 
ATOM     16  C   UNL     1      10.826   8.140  22.010  0.00  0.00    +0.008 A 
ATOM     19  C   UNL     1      11.574  10.826  21.927  0.00  0.00    +0.038 A 
ATOM     20  C   UNL     1      10.543   8.977  23.090  0.00  0.00    +0.038 A 
ATOM     21  C   UNL     1      10.918  10.320  23.048  0.00  0.00    +0.123 A 
ENDBRANCH  12  14
ENDBRANCH   5  12
TORSDOF 6
ENDMDL
MODEL 2
REMARK VINA RESULT:      -7.5      2.756      4.426
REMARK  Name = 26744148
REMARK  7 active torsions:
REMARK  status: ('A' for Active; 'I' for Inactive)
REMARK    1  A    between atoms: O_2  and  C_10
REMARK    2  A    between atoms: O_4  and  C_26
REMARK    3  A    between atoms: O_4  and  C_27
REMARK    4  A    between atoms: N_5  and  C_12
REMARK    5  A    between atoms: C_8  and  C_13
REMARK    6  A    between atoms: C_12  and  C_14
REMARK    7  A    between atoms: C_17  and  C_18
REMARK                            x       y       z     vdW  Elec       q    Type
REMARK                         _______ _______ _______ _____ _____    ______ ____
ROOT
ATOM      5  N   UNL     1      12.357   8.629  20.006  0.00  0.00    -0.285 NA
ATOM      8  C   UNL     1      13.138   8.173  21.175  0.00  0.00    +0.149 C 
ATOM      9  C   UNL     1      12.209   7.191  21.911  0.00  0.00    +0.061 C 
ATOM     10  C   UNL     1      10.914   7.195  21.108  0.00  0.00    +0.130 C 
ATOM     11  C   UNL     1      10.949   8.529  20.387  0.00  0.00    +0.116 C 
ENDROOT
BRANCH   8  13
ATOM      3  O   UNL     1      14.426   6.636  19.777  0.00  0.00    -0.336 OA
ATOM      6  N   UNL     1      15.656   7.757  21.275  0.00  0.00    -0.190 NA
ATOM      7  N   UNL     1      15.746   6.205  19.598  0.00  0.00    -0.056 NA
ATOM     13  C   UNL     1      14.461   7.548  20.783  0.00  0.00    +0.245 A 
ATOM     17  C   UNL     1      16.411   6.911  20.517  0.00  0.00    +0.202 A 
BRANCH  17  18
ATOM     18  C   UNL     1      17.829   6.796  20.702  0.00  0.00    +0.023 A 
ATOM     22  C   UNL     1      18.530   5.759  20.089  0.00  0.00    +0.015 A 
ATOM     23  C   UNL     1      18.505   7.721  21.498  0.00  0.00    +0.015 A 
ATOM     24  C   UNL     1      19.909   5.645  20.270  0.00  0.00    +0.046 A 
ATOM     25  C   UNL     1      19.883   7.607  21.680  0.00  0.00    +0.046 A 
ATOM     26  C   UNL     1      20.585   6.570  21.065  0.00  0.00    +0.120 A 
BRANCH  26   4
ATOM      4  O   UNL     1      21.931   6.460  21.243  0.00  0.00    -0.495 OA
ATOM     27  C   UNL     1      22.588   5.385  20.574  0.00  0.00    +0.277 C 
ENDBRANCH  26   4
ENDBRANCH  17  18
ENDBRANCH   8  13
BRANCH  10   2
ATOM      2  O   UNL     1       9.793   7.089  21.963  0.00  0.00    -0.390 OA
ATOM     28  H   UNL     1      10.127   6.995  22.871  0.00  0.00    +0.210 HD
ENDBRANCH  10   2
BRANCH   5  12
ATOM     12  C   UNL     1      12.712   9.972  19.567  0.00  0.00    +0.120 C 
BRANCH  12  14
ATOM      1  F   UNL     1      15.206   9.937  14.514  0.00  0.00    -0.205 F 
ATOM     14  C   UNL     1      13.378   9.963  18.216  0.00  0.00    -0.033 A 
ATOM     15  C   UNL     1      14.076  11.087  17.775  0.00  0.00    +0.008 A 
ATOM     16  C   UNL     1      13.297   8.830  17.407  0.00  0.00    +0.008 A 
ATOM     19  C   UNL     1      14.693  11.078  16.525  0.00  0.00    +0.038 A 
ATOM     20  C   UNL     1      13.915   8.821  16.156  0.00  0.00    +0.038 A 
ATOM     21  C   UNL     1      14.612   9.945  15.715  0.00  0.00    +0.123 A 
ENDBRANCH  12  14
ENDBRANCH   5  12
TORSDOF 6
ENDMDL
MODEL 3
REMARK VINA RESULT:      -7.0      3.621      6.975
REMARK  Name = 26744148
REMARK  7 active torsions:
REMARK  status: ('A' for Active; 'I' for Inactive)
REMARK    1  A    between atoms: O_2  and  C_10
REMARK    2  A    between atoms: O_4  and  C_26
REMARK    3  A    between atoms: O_4  and  C_27
REMARK    4  A    between atoms: N_5  and  C_12
REMARK    5  A    between atoms: C_8  and  C_13
REMARK    6  A    between atoms: C_12  and  C_14
REMARK    7  A    between atoms: C_17  and  C_18
REMARK                            x       y       z     vdW  Elec       q    Type
REMARK                         _______ _______ _______ _____ _____    ______ ____
ROOT
ATOM      5  N   UNL     1      13.127   7.803  20.621  0.00  0.00    -0.285 NA
ATOM      8  C   UNL     1      12.242   7.795  19.438  0.00  0.00    +0.149 C 
ATOM      9  C   UNL     1      10.980   8.554  19.886  0.00  0.00    +0.061 C 
ATOM     10  C   UNL     1      11.230   8.909  21.347  0.00  0.00    +0.130 C 
ATOM     11  C   UNL     1      12.254   7.882  21.791  0.00  0.00    +0.116 C 
ENDROOT
BRANCH   8  13
ATOM      3  O   UNL     1      12.648   7.801  17.028  0.00  0.00    -0.336 OA
ATOM      6  N   UNL     1      13.673   9.458  18.132  0.00  0.00    -0.190 NA
ATOM      7  N   UNL     1      13.348   8.538  16.064  0.00  0.00    -0.056 NA
ATOM     13  C   UNL     1      12.894   8.410  18.218  0.00  0.00    +0.245 A 
ATOM     17  C   UNL     1      13.926   9.498  16.793  0.00  0.00    +0.202 A 
BRANCH  17  18
ATOM     18  C   UNL     1      14.760  10.510  16.212  0.00  0.00    +0.023 A 
ATOM     22  C   UNL     1      15.163  10.403  14.882  0.00  0.00    +0.015 A 
ATOM     23  C   UNL     1      15.170  11.600  16.981  0.00  0.00    +0.015 A 
ATOM     24  C   UNL     1      15.976  11.387  14.317  0.00  0.00    +0.046 A 
ATOM     25  C   UNL     1      15.983  12.583  16.417  0.00  0.00    +0.046 A 
ATOM     26  C   UNL     1      16.385  12.477  15.086  0.00  0.00    +0.120 A 
BRANCH  26   4
ATOM      4  O   UNL     1      17.179  13.437  14.536  0.00  0.00    -0.495 OA
ATOM     27  C   UNL     1      17.309  13.437  13.115  0.00  0.00    +0.277 C 
ENDBRANCH  26   4
ENDBRANCH  17  18
ENDBRANCH   8  13
BRANCH  10   2
ATOM      2  O   UNL     1      10.035   8.818  22.098  0.00  0.00    -0.390 OA
ATOM     28  H   UNL     1      10.278   8.863  23.038  0.00  0.00    +0.210 HD
ENDBRANCH  10   2
BRANCH   5  12
ATOM     12  C   UNL     1      14.018   6.652  20.679  0.00  0.00    +0.120 C 
BRANCH  12  14
ATOM      1  F   UNL     1      19.429   8.196  20.982  0.00  0.00    -0.205 F 
ATOM     14  C   UNL     1      15.464   7.065  20.760  0.00  0.00    -0.033 A 
ATOM     15  C   UNL     1      15.826   8.199  21.487  0.00  0.00    +0.008 A 
ATOM     16  C   UNL     1      16.441   6.312  20.108  0.00  0.00    +0.008 A 
ATOM     19  C   UNL     1      17.165   8.581  21.562  0.00  0.00    +0.038 A 
ATOM     20  C   UNL     1      17.781   6.695  20.183  0.00  0.00    +0.038 A 
ATOM     21  C   UNL     1      18.142   7.829  20.909  0.00  0.00    +0.123 A 
ENDBRANCH  12  14
ENDBRANCH   5  12
TORSDOF 6
ENDMDL
MODEL 4
REMARK VINA RESULT:      -6.9     25.876     28.839
REMARK  Name = 26744148
REMARK  7 active torsions:
REMARK  status: ('A' for Active; 'I' for Inactive)
REMARK    1  A    between atoms: O_2  and  C_10
REMARK    2  A    between atoms: O_4  and  C_26
REMARK    3  A    between atoms: O_4  and  C_27
REMARK    4  A    between atoms: N_5  and  C_12
REMARK    5  A    between atoms: C_8  and  C_13
REMARK    6  A    between atoms: C_12  and  C_14
REMARK    7  A    between atoms: C_17  and  C_18
REMARK                            x       y       z     vdW  Elec       q    Type
REMARK                         _______ _______ _______ _____ _____    ______ ____
ROOT
ATOM      5  N   UNL     1      -3.176 -10.542  14.228  0.00  0.00    -0.285 NA
ATOM      8  C   UNL     1      -3.501 -11.219  15.500  0.00  0.00    +0.149 C 
ATOM      9  C   UNL     1      -2.326 -10.883  16.436  0.00  0.00    +0.061 C 
ATOM     10  C   UNL     1      -1.371 -10.053  15.588  0.00  0.00    +0.130 C 
ATOM     11  C   UNL     1      -1.719 -10.454  14.167  0.00  0.00    +0.116 C 
ENDROOT
BRANCH   8  13
ATOM      3  O   UNL     1      -5.096 -11.139  17.351  0.00  0.00    -0.336 OA
ATOM      6  N   UNL     1      -5.808 -10.124  15.486  0.00  0.00    -0.190 NA
ATOM      7  N   UNL     1      -6.373 -10.642  17.641  0.00  0.00    -0.056 NA
ATOM     13  C   UNL     1      -4.840 -10.791  16.063  0.00  0.00    +0.245 A 
ATOM     17  C   UNL     1      -6.726 -10.056  16.493  0.00  0.00    +0.202 A 
BRANCH  17  18
ATOM     18  C   UNL     1      -7.988  -9.395  16.320  0.00  0.00    +0.023 A 
ATOM     22  C   UNL     1      -8.586  -8.743  17.396  0.00  0.00    +0.015 A 
ATOM     23  C   UNL     1      -8.615  -9.408  15.074  0.00  0.00    +0.015 A 
ATOM     24  C   UNL     1      -9.814  -8.101  17.228  0.00  0.00    +0.046 A 
ATOM     25  C   UNL     1      -9.843  -8.768  14.906  0.00  0.00    +0.046 A 
ATOM     26  C   UNL     1     -10.442  -8.114  15.982  0.00  0.00    +0.120 A 
BRANCH  26   4
ATOM      4  O   UNL     1     -11.640  -7.489  15.818  0.00  0.00    -0.495 OA
ATOM     27  C   UNL     1     -11.634  -6.062  15.826  0.00  0.00    +0.277 C 
ENDBRANCH  26   4
ENDBRANCH  17  18
ENDBRANCH   8  13
BRANCH  10   2
ATOM      2  O   UNL     1      -0.026 -10.355  15.905  0.00  0.00    -0.390 OA
ATOM     28  H   UNL     1       0.298 -10.980  15.234  0.00  0.00    +0.210 HD
ENDBRANCH  10   2
BRANCH   5  12
ATOM     12  C   UNL     1      -3.734 -11.214  13.061  0.00  0.00    +0.120 C 
BRANCH  12  14
ATOM      1  F   UNL     1      -5.735  -7.547   9.280  0.00  0.00    -0.205 F 
ATOM     14  C   UNL     1      -4.268 -10.234  12.051  0.00  0.00    -0.033 A 
ATOM     15  C   UNL     1      -3.471  -9.833  10.979  0.00  0.00    +0.008 A 
ATOM     16  C   UNL     1      -5.561  -9.728  12.187  0.00  0.00    +0.008 A 
ATOM     19  C   UNL     1      -3.967  -8.925  10.043  0.00  0.00    +0.038 A 
ATOM     20  C   UNL     1      -6.057  -8.820  11.250  0.00  0.00    +0.038 A 
ATOM     21  C   UNL     1      -5.259  -8.419  10.179  0.00  0.00    +0.123 A 
ENDBRANCH  12  14
ENDBRANCH   5  12
TORSDOF 6
ENDMDL
MODEL 5
REMARK VINA RESULT:      -6.7      2.221      3.114
REMARK  Name = 26744148
REMARK  7 active torsions:
REMARK  status: ('A' for Active; 'I' for Inactive)
REMARK    1  A    between atoms: O_2  and  C_10
REMARK    2  A    between atoms: O_4  and  C_26
REMARK    3  A    between atoms: O_4  and  C_27
REMARK    4  A    between atoms: N_5  and  C_12
REMARK    5  A    between atoms: C_8  and  C_13
REMARK    6  A    between atoms: C_12  and  C_14
REMARK    7  A    between atoms: C_17  and  C_18
REMARK                            x       y       z     vdW  Elec       q    Type
REMARK                         _______ _______ _______ _____ _____    ______ ____
ROOT
ATOM      5  N   UNL     1      12.517   9.226  20.807  0.00  0.00    -0.285 NA
ATOM      8  C   UNL     1      13.167   8.212  21.663  0.00  0.00    +0.149 C 
ATOM      9  C   UNL     1      12.088   7.137  21.889  0.00  0.00    +0.061 C 
ATOM     10  C   UNL     1      10.855   7.657  21.161  0.00  0.00    +0.130 C 
ATOM     11  C   UNL     1      11.086   9.155  21.097  0.00  0.00    +0.116 C 
ENDROOT
BRANCH   8  13
ATOM      3  O   UNL     1      14.305   7.074  19.822  0.00  0.00    -0.336 OA
ATOM      6  N   UNL     1      15.652   7.640  21.519  0.00  0.00    -0.190 NA
ATOM      7  N   UNL     1      15.586   6.638  19.464  0.00  0.00    -0.056 NA
ATOM     13  C   UNL     1      14.432   7.652  21.045  0.00  0.00    +0.245 A 
ATOM     17  C   UNL     1      16.325   7.008  20.515  0.00  0.00    +0.202 A 
BRANCH  17  18
ATOM     18  C   UNL     1      17.736   6.763  20.591  0.00  0.00    +0.023 A 
ATOM     22  C   UNL     1      18.288   5.661  19.939  0.00  0.00    +0.015 A 
ATOM     23  C   UNL     1      18.555   7.626  21.319  0.00  0.00    +0.015 A 
ATOM     24  C   UNL     1      19.660   5.421  20.014  0.00  0.00    +0.046 A 
ATOM     25  C   UNL     1      19.927   7.386  21.394  0.00  0.00    +0.046 A 
ATOM     26  C   UNL     1      20.480   6.284  20.742  0.00  0.00    +0.120 A 
BRANCH  26   4
ATOM      4  O   UNL     1      21.819   6.051  20.816  0.00  0.00    -0.495 OA
ATOM     27  C   UNL     1      22.237   4.689  20.895  0.00  0.00    +0.277 C 
ENDBRANCH  26   4
ENDBRANCH  17  18
ENDBRANCH   8  13
BRANCH  10   2
ATOM      2  O   UNL     1       9.677   7.338  21.877  0.00  0.00    -0.390 OA
ATOM     28  H   UNL     1       9.640   7.923  22.653  0.00  0.00    +0.210 HD
ENDBRANCH  10   2
BRANCH   5  12
ATOM     12  C   UNL     1      13.049  10.568  21.001  0.00  0.00    +0.120 C 
BRANCH  12  14
ATOM      1  F   UNL     1       9.944  13.551  24.636  0.00  0.00    -0.205 F 
ATOM     14  C   UNL     1      12.220  11.365  21.973  0.00  0.00    -0.033 A 
ATOM     15  C   UNL     1      11.417  12.409  21.512  0.00  0.00    +0.008 A 
ATOM     16  C   UNL     1      12.254  11.060  23.333  0.00  0.00    +0.008 A 
ATOM     19  C   UNL     1      10.648  13.147  22.411  0.00  0.00    +0.038 A 
ATOM     20  C   UNL     1      11.485  11.799  24.233  0.00  0.00    +0.038 A 
ATOM     21  C   UNL     1      10.683  12.842  23.771  0.00  0.00    +0.123 A 
ENDBRANCH  12  14
ENDBRANCH   5  12
TORSDOF 6
ENDMDL
MODEL 6
REMARK VINA RESULT:      -6.5     26.498     29.403
REMARK  Name = 26744148
REMARK  7 active torsions:
REMARK  status: ('A' for Active; 'I' for Inactive)
REMARK    1  A    between atoms: O_2  and  C_10
REMARK    2  A    between atoms: O_4  and  C_26
REMARK    3  A    between atoms: O_4  and  C_27
REMARK    4  A    between atoms: N_5  and  C_12
REMARK    5  A    between atoms: C_8  and  C_13
REMARK    6  A    between atoms: C_12  and  C_14
REMARK    7  A    between atoms: C_17  and  C_18
REMARK                            x       y       z     vdW  Elec       q    Type
REMARK                         _______ _______ _______ _____ _____    ______ ____
ROOT
ATOM      5  N   UNL     1      -3.814 -10.670  14.557  0.00  0.00    -0.285 NA
ATOM      8  C   UNL     1      -4.233 -11.292  15.830  0.00  0.00    +0.149 C 
ATOM      9  C   UNL     1      -3.046 -11.072  16.785  0.00  0.00    +0.061 C 
ATOM     10  C   UNL     1      -1.991 -10.360  15.947  0.00  0.00    +0.130 C 
ATOM     11  C   UNL     1      -2.354 -10.739  14.524  0.00  0.00    +0.116 C 
ENDROOT
BRANCH   8  13
ATOM      3  O   UNL     1      -5.864  -9.474  15.925  0.00  0.00    -0.336 OA
ATOM      6  N   UNL     1      -6.391 -11.241  17.195  0.00  0.00    -0.190 NA
ATOM      7  N   UNL     1      -7.079  -9.160  16.544  0.00  0.00    -0.056 NA
ATOM     13  C   UNL     1      -5.528 -10.716  16.362  0.00  0.00    +0.245 A 
ATOM     17  C   UNL     1      -7.325 -10.251  17.276  0.00  0.00    +0.202 A 
BRANCH  17  18
ATOM     18  C   UNL     1      -8.494 -10.382  18.097  0.00  0.00    +0.023 A 
ATOM     22  C   UNL     1      -8.522 -11.326  19.123  0.00  0.00    +0.015 A 
ATOM     23  C   UNL     1      -9.602  -9.567  17.867  0.00  0.00    +0.015 A 
ATOM     24  C   UNL     1      -9.660 -11.455  19.921  0.00  0.00    +0.046 A 
ATOM     25  C   UNL     1     -10.739  -9.696  18.665  0.00  0.00    +0.046 A 
ATOM     26  C   UNL     1     -10.768 -10.639  19.692  0.00  0.00    +0.120 A 
BRANCH  26   4
ATOM      4  O   UNL     1     -11.878 -10.764  20.470  0.00  0.00    -0.495 OA
ATOM     27  C   UNL     1     -13.012  -9.975  20.114  0.00  0.00    +0.277 C 
ENDBRANCH  26   4
ENDBRANCH  17  18
ENDBRANCH   8  13
BRANCH  10   2
ATOM      2  O   UNL     1      -0.693 -10.800  16.293  0.00  0.00    -0.390 OA
ATOM     28  H   UNL     1      -0.490 -10.445  17.175  0.00  0.00    +0.210 HD
ENDBRANCH  10   2
BRANCH   5  12
ATOM     12  C   UNL     1      -4.419 -11.293  13.387  0.00  0.00    +0.120 C 
BRANCH  12  14
ATOM      1  F   UNL     1      -5.577  -7.524   9.362  0.00  0.00    -0.205 F 
ATOM     14  C   UNL     1      -4.728 -10.286  12.312  0.00  0.00    -0.033 A 
ATOM     15  C   UNL     1      -3.791 -10.022  11.312  0.00  0.00    +0.008 A 
ATOM     16  C   UNL     1      -5.952  -9.617  12.314  0.00  0.00    +0.008 A 
ATOM     19  C   UNL     1      -4.078  -9.089  10.316  0.00  0.00    +0.038 A 
ATOM     20  C   UNL     1      -6.239  -8.684  11.317  0.00  0.00    +0.038 A 
ATOM     21  C   UNL     1      -5.301  -8.420  10.319  0.00  0.00    +0.123 A 
ENDBRANCH  12  14
ENDBRANCH   5  12
TORSDOF 6
ENDMDL
MODEL 7
REMARK VINA RESULT:      -6.4     26.114     27.873
REMARK  Name = 26744148
REMARK  7 active torsions:
REMARK  status: ('A' for Active; 'I' for Inactive)
REMARK    1  A    between atoms: O_2  and  C_10
REMARK    2  A    between atoms: O_4  and  C_26
REMARK    3  A    between atoms: O_4  and  C_27
REMARK    4  A    between atoms: N_5  and  C_12
REMARK    5  A    between atoms: C_8  and  C_13
REMARK    6  A    between atoms: C_12  and  C_14
REMARK    7  A    between atoms: C_17  and  C_18
REMARK                            x       y       z     vdW  Elec       q    Type
REMARK                         _______ _______ _______ _____ _____    ______ ____
ROOT
ATOM      5  N   UNL     1     -11.115   9.729  17.378  0.00  0.00    -0.285 NA
ATOM      8  C   UNL     1     -10.472  10.620  18.366  0.00  0.00    +0.149 C 
ATOM      9  C   UNL     1     -10.115  11.892  17.576  0.00  0.00    +0.061 C 
ATOM     10  C   UNL     1     -10.553  11.604  16.146  0.00  0.00    +0.130 C 
ATOM     11  C   UNL     1     -10.559  10.089  16.075  0.00  0.00    +0.116 C 
ENDROOT
BRANCH   8  13
ATOM      3  O   UNL     1     -12.413  11.734  19.351  0.00  0.00    -0.336 OA
ATOM      6  N   UNL     1     -11.264  10.458  20.789  0.00  0.00    -0.190 NA
ATOM      7  N   UNL     1     -13.073  11.841  20.581  0.00  0.00    -0.056 NA
ATOM     13  C   UNL     1     -11.359  10.902  19.561  0.00  0.00    +0.245 A 
ATOM     17  C   UNL     1     -12.337  11.060  21.377  0.00  0.00    +0.202 A 
BRANCH  17  18
ATOM     18  C   UNL     1     -12.647  10.861  22.764  0.00  0.00    +0.023 A 
ATOM     22  C   UNL     1     -11.821  11.403  23.747  0.00  0.00    +0.015 A 
ATOM     23  C   UNL     1     -13.774  10.124  23.126  0.00  0.00    +0.015 A 
ATOM     24  C   UNL     1     -12.122  11.208  25.096  0.00  0.00    +0.046 A 
ATOM     25  C   UNL     1     -14.075   9.929  24.474  0.00  0.00    +0.046 A 
ATOM     26  C   UNL     1     -13.249  10.471  25.459  0.00  0.00    +0.120 A 
BRANCH  26   4
ATOM      4  O   UNL     1     -13.543  10.281  26.774  0.00  0.00    -0.495 OA
ATOM     27  C   UNL     1     -14.408  11.233  27.391  0.00  0.00    +0.277 C 
ENDBRANCH  26   4
ENDBRANCH  17  18
ENDBRANCH   8  13
BRANCH  10   2
ATOM      2  O   UNL     1      -9.646  12.169  15.219  0.00  0.00    -0.390 OA
ATOM     28  H   UNL     1      -9.481  13.087  15.495  0.00  0.00    +0.210 HD
ENDBRANCH  10   2
BRANCH   5  12
ATOM     12  C   UNL     1     -10.937   8.315  17.679  0.00  0.00    +0.120 C 
BRANCH  12  14
ATOM      1  F   UNL     1     -14.401   6.587  21.773  0.00  0.00    -0.205 F 
ATOM     14  C   UNL     1     -11.862   7.853  18.773  0.00  0.00    -0.033 A 
ATOM     15  C   UNL     1     -11.345   7.218  19.902  0.00  0.00    +0.008 A 
ATOM     16  C   UNL     1     -13.237   8.060  18.657  0.00  0.00    +0.008 A 
ATOM     19  C   UNL     1     -12.203   6.790  20.916  0.00  0.00    +0.038 A 
ATOM     20  C   UNL     1     -14.094   7.632  19.671  0.00  0.00    +0.038 A 
ATOM     21  C   UNL     1     -13.577   6.997  20.799  0.00  0.00    +0.123 A 
ENDBRANCH  12  14
ENDBRANCH   5  12
TORSDOF 6
ENDMDL
MODEL 8
REMARK VINA RESULT:      -6.4     17.957     21.325
REMARK  Name = 26744148
REMARK  7 active torsions:
REMARK  status: ('A' for Active; 'I' for Inactive)
REMARK    1  A    between atoms: O_2  and  C_10
REMARK    2  A    between atoms: O_4  and  C_26
REMARK    3  A    between atoms: O_4  and  C_27
REMARK    4  A    between atoms: N_5  and  C_12
REMARK    5  A    between atoms: C_8  and  C_13
REMARK    6  A    between atoms: C_12  and  C_14
REMARK    7  A    between atoms: C_17  and  C_18
REMARK                            x       y       z     vdW  Elec       q    Type
REMARK                         _______ _______ _______ _____ _____    ______ ____
ROOT
ATOM      5  N   UNL     1      13.358   4.096  -0.241  0.00  0.00    -0.285 NA
ATOM      8  C   UNL     1      13.520   4.000   1.225  0.00  0.00    +0.149 C 
ATOM      9  C   UNL     1      14.752   4.866   1.543  0.00  0.00    +0.061 C 
ATOM     10  C   UNL     1      15.241   5.369   0.190  0.00  0.00    +0.130 C 
ATOM     11  C   UNL     1      14.690   4.348  -0.788  0.00  0.00    +0.116 C 
ENDROOT
BRANCH   8  13
ATOM      3  O   UNL     1      11.645   3.491   2.709  0.00  0.00    -0.336 OA
ATOM      6  N   UNL     1      11.721   5.624   2.031  0.00  0.00    -0.190 NA
ATOM      7  N   UNL     1      10.549   4.128   3.303  0.00  0.00    -0.056 NA
ATOM     13  C   UNL     1      12.282   4.442   1.977  0.00  0.00    +0.245 A 
ATOM     17  C   UNL     1      10.662   5.383   2.856  0.00  0.00    +0.202 A 
BRANCH  17  18
ATOM     18  C   UNL     1       9.735   6.416   3.216  0.00  0.00    +0.023 A 
ATOM     22  C   UNL     1       9.209   6.463   4.506  0.00  0.00    +0.015 A 
ATOM     23  C   UNL     1       9.361   7.375   2.274  0.00  0.00    +0.015 A 
ATOM     24  C   UNL     1       8.306   7.467   4.856  0.00  0.00    +0.046 A 
ATOM     25  C   UNL     1       8.458   8.379   2.623  0.00  0.00    +0.046 A 
ATOM     26  C   UNL     1       7.931   8.426   3.913  0.00  0.00    +0.120 A 
BRANCH  26   4
ATOM      4  O   UNL     1       7.050   9.406   4.254  0.00  0.00    -0.495 OA
ATOM     27  C   UNL     1       6.269   9.971   3.201  0.00  0.00    +0.277 C 
ENDBRANCH  26   4
ENDBRANCH  17  18
ENDBRANCH   8  13
BRANCH  10   2
ATOM      2  O   UNL     1      16.654   5.421   0.154  0.00  0.00    -0.390 OA
ATOM     28  H   UNL     1      16.904   6.099  -0.496  0.00  0.00    +0.210 HD
ENDBRANCH  10   2
BRANCH   5  12
ATOM     12  C   UNL     1      12.738   2.916  -0.829  0.00  0.00    +0.120 C 
BRANCH  12  14
ATOM      1  F   UNL     1       8.429   4.266  -4.200  0.00  0.00    -0.205 F 
ATOM     14  C   UNL     1      11.587   3.277  -1.730  0.00  0.00    -0.033 A 
ATOM     15  C   UNL     1      11.189   2.399  -2.739  0.00  0.00    +0.008 A 
ATOM     16  C   UNL     1      10.918   4.489  -1.555  0.00  0.00    +0.008 A 
ATOM     19  C   UNL     1      10.122   2.733  -3.573  0.00  0.00    +0.038 A 
ATOM     20  C   UNL     1       9.851   4.822  -2.390  0.00  0.00    +0.038 A 
ATOM     21  C   UNL     1       9.454   3.945  -3.399  0.00  0.00    +0.123 A 
ENDBRANCH  12  14
ENDBRANCH   5  12
TORSDOF 6
ENDMDL
MODEL 9
REMARK VINA RESULT:      -6.3     31.431     32.619
REMARK  Name = 26744148
REMARK  7 active torsions:
REMARK  status: ('A' for Active; 'I' for Inactive)
REMARK    1  A    between atoms: O_2  and  C_10
REMARK    2  A    between atoms: O_4  and  C_26
REMARK    3  A    between atoms: O_4  and  C_27
REMARK    4  A    between atoms: N_5  and  C_12
REMARK    5  A    between atoms: C_8  and  C_13
REMARK    6  A    between atoms: C_12  and  C_14
REMARK    7  A    between atoms: C_17  and  C_18
REMARK                            x       y       z     vdW  Elec       q    Type
REMARK                         _______ _______ _______ _____ _____    ______ ____
ROOT
ATOM      5  N   UNL     1     -15.356   1.425  29.493  0.00  0.00    -0.285 NA
ATOM      8  C   UNL     1     -15.344   1.366  30.970  0.00  0.00    +0.149 C 
ATOM      9  C   UNL     1     -14.082   0.558  31.321  0.00  0.00    +0.061 C 
ATOM     10  C   UNL     1     -13.476   0.168  29.979  0.00  0.00    +0.130 C 
ATOM     11  C   UNL     1     -14.656   0.230  29.026  0.00  0.00    +0.116 C 
ENDROOT
BRANCH   8  13
ATOM      3  O   UNL     1     -16.484   3.479  31.430  0.00  0.00    -0.336 OA
ATOM      6  N   UNL     1     -14.433   3.334  32.318  0.00  0.00    -0.190 NA
ATOM      7  N   UNL     1     -16.262   4.689  32.100  0.00  0.00    -0.056 NA
ATOM     13  C   UNL     1     -15.358   2.740  31.608  0.00  0.00    +0.245 A 
ATOM     17  C   UNL     1     -15.033   4.527  32.598  0.00  0.00    +0.202 A 
BRANCH  17  18
ATOM     18  C   UNL     1     -14.377   5.536  33.378  0.00  0.00    +0.023 A 
ATOM     22  C   UNL     1     -13.936   6.711  32.771  0.00  0.00    +0.015 A 
ATOM     23  C   UNL     1     -14.180   5.341  34.745  0.00  0.00    +0.015 A 
ATOM     24  C   UNL     1     -13.297   7.692  33.529  0.00  0.00    +0.046 A 
ATOM     25  C   UNL     1     -13.541   6.321  35.504  0.00  0.00    +0.046 A 
ATOM     26  C   UNL     1     -13.100   7.497  34.896  0.00  0.00    +0.120 A 
BRANCH  26   4
ATOM      4  O   UNL     1     -12.476   8.453  35.637  0.00  0.00    -0.495 OA
ATOM     27  C   UNL     1     -11.722   8.012  36.765  0.00  0.00    +0.277 C 
ENDBRANCH  26   4
ENDBRANCH  17  18
ENDBRANCH   8  13
BRANCH  10   2
ATOM      2  O   UNL     1     -12.917  -1.130  30.038  0.00  0.00    -0.390 OA
ATOM     28  H   UNL     1     -13.654  -1.763  30.085  0.00  0.00    +0.210 HD
ENDBRANCH  10   2
BRANCH   5  12
ATOM     12  C   UNL     1     -16.697   1.528  28.934  0.00  0.00    +0.120 C 
BRANCH  12  14
ATOM      1  F   UNL     1     -16.591   2.866  23.461  0.00  0.00    -0.205 F 
ATOM     14  C   UNL     1     -16.669   1.886  27.472  0.00  0.00    -0.033 A 
ATOM     15  C   UNL     1     -16.113   3.097  27.061  0.00  0.00    +0.008 A 
ATOM     16  C   UNL     1     -17.199   1.005  26.528  0.00  0.00    +0.008 A 
ATOM     19  C   UNL     1     -16.086   3.428  25.706  0.00  0.00    +0.038 A 
ATOM     20  C   UNL     1     -17.172   1.337  25.173  0.00  0.00    +0.038 A 
ATOM     21  C   UNL     1     -16.617   2.548  24.763  0.00  0.00    +0.123 A 
ENDBRANCH  12  14
ENDBRANCH   5  12
TORSDOF 6
ENDMDL
MODEL 10
REMARK VINA RESULT:      -6.3      3.727      8.920
REMARK  Name = 26744148
REMARK  7 active torsions:
REMARK  status: ('A' for Active; 'I' for Inactive)
REMARK    1  A    between atoms: O_2  and  C_10
REMARK    2  A    between atoms: O_4  and  C_26
REMARK    3  A    between atoms: O_4  and  C_27
REMARK    4  A    between atoms: N_5  and  C_12
REMARK    5  A    between atoms: C_8  and  C_13
REMARK    6  A    between atoms: C_12  and  C_14
REMARK    7  A    between atoms: C_17  and  C_18
REMARK                            x       y       z     vdW  Elec       q    Type
REMARK                         _______ _______ _______ _____ _____    ______ ____
ROOT
ATOM      5  N   UNL     1      21.138   5.522  22.478  0.00  0.00    -0.285 NA
ATOM      8  C   UNL     1      20.660   5.962  21.151  0.00  0.00    +0.149 C 
ATOM      9  C   UNL     1      20.644   4.683  20.294  0.00  0.00    +0.061 C 
ATOM     10  C   UNL     1      21.172   3.587  21.212  0.00  0.00    +0.130 C 
ATOM     11  C   UNL     1      21.978   4.349  22.247  0.00  0.00    +0.116 C 
ENDROOT
BRANCH   8  13
ATOM      3  O   UNL     1      19.282   7.889  21.753  0.00  0.00    -0.336 OA
ATOM      6  N   UNL     1      18.139   6.203  20.821  0.00  0.00    -0.190 NA
ATOM      7  N   UNL     1      17.945   8.304  21.704  0.00  0.00    -0.056 NA
ATOM     13  C   UNL     1      19.308   6.642  21.214  0.00  0.00    +0.245 A 
ATOM     17  C   UNL     1      17.334   7.257  21.142  0.00  0.00    +0.202 A 
BRANCH  17  18
ATOM     18  C   UNL     1      15.923   7.233  20.887  0.00  0.00    +0.023 A 
ATOM     22  C   UNL     1      15.448   6.882  19.624  0.00  0.00    +0.015 A 
ATOM     23  C   UNL     1      15.026   7.562  21.903  0.00  0.00    +0.015 A 
ATOM     24  C   UNL     1      14.076   6.860  19.375  0.00  0.00    +0.046 A 
ATOM     25  C   UNL     1      13.654   7.541  21.655  0.00  0.00    +0.046 A 
ATOM     26  C   UNL     1      13.179   7.189  20.391  0.00  0.00    +0.120 A 
BRANCH  26   4
ATOM      4  O   UNL     1      11.839   7.168  20.150  0.00  0.00    -0.495 OA
ATOM     27  C   UNL     1      11.162   8.424  20.132  0.00  0.00    +0.277 C 
ENDBRANCH  26   4
ENDBRANCH  17  18
ENDBRANCH   8  13
BRANCH  10   2
ATOM      2  O   UNL     1      21.974   2.672  20.491  0.00  0.00    -0.390 OA
ATOM     28  H   UNL     1      22.793   2.538  20.998  0.00  0.00    +0.210 HD
ENDBRANCH  10   2
BRANCH   5  12
ATOM     12  C   UNL     1      21.844   6.566  23.209  0.00  0.00    +0.120 C 
BRANCH  12  14
ATOM      1  F   UNL     1      20.621   6.469  28.709  0.00  0.00    -0.205 F 
ATOM     14  C   UNL     1      21.517   6.540  24.679  0.00  0.00    -0.033 A 
ATOM     15  C   UNL     1      20.460   7.305  25.172  0.00  0.00    +0.008 A 
ATOM     16  C   UNL     1      22.272   5.752  25.547  0.00  0.00    +0.008 A 
ATOM     19  C   UNL     1      20.157   7.281  26.533  0.00  0.00    +0.038 A 
ATOM     20  C   UNL     1      21.969   5.728  26.909  0.00  0.00    +0.038 A 
ATOM     21  C   UNL     1      20.912   6.493  27.401  0.00  0.00    +0.123 A 
ENDBRANCH  12  14
ENDBRANCH   5  12
TORSDOF 6
ENDMDL
