MODEL 1
REMARK VINA RESULT:      -7.0      0.000      0.000
REMARK  Name = 11886015
REMARK  9 active torsions:
REMARK  status: ('A' for Active; 'I' for Inactive)
REMARK    1  A    between atoms: S_1  and  C_19
REMARK    2  A    between atoms: S_1  and  C_21
REMARK    3  A    between atoms: O_4  and  C_16
REMARK    4  A    between atoms: O_4  and  C_20
REMARK    5  A    between atoms: O_7  and  C_27
REMARK    6  A    between atoms: O_7  and  C_32
REMARK    7  A    between atoms: N_8  and  C_15
REMARK    8  A    between atoms: N_12  and  C_22
REMARK    9  A    between atoms: C_21  and  C_23
REMARK                            x       y       z     vdW  Elec       q    Type
REMARK                         _______ _______ _______ _____ _____    ______ ____
ROOT
ATOM      2  O   UNL     1     -14.446   4.563  23.191  0.00  0.00    -0.368 OA
ATOM      3  O   UNL     1     -16.936   6.388  23.359  0.00  0.00    -0.368 OA
ATOM     13  C   UNL     1     -16.758   5.030  22.899  0.00  0.00    +0.177 C 
ATOM     14  C   UNL     1     -15.409   4.976  22.209  0.00  0.00    +0.192 C 
ATOM     15  C   UNL     1     -16.613   4.105  24.091  0.00  0.00    +0.168 C 
ATOM     16  C   UNL     1     -15.195   6.408  21.783  0.00  0.00    +0.235 C 
ATOM     17  C   UNL     1     -15.121   4.188  24.401  0.00  0.00    +0.190 C 
ATOM     18  C   UNL     1     -15.818   7.175  22.926  0.00  0.00    +0.207 C 
ENDROOT
BRANCH  15   8
ATOM      8  N   UNL     1     -17.125   2.760  23.824  0.00  0.00    -0.212 N 
ATOM      9  N   UNL     1     -16.942   2.192  22.623  0.00  0.00    -0.043 NA
ATOM     10  N   UNL     1     -18.063   0.810  23.965  0.00  0.00    -0.101 NA
ATOM     11  N   UNL     1     -17.518   1.000  22.716  0.00  0.00    -0.022 NA
ATOM     19  C   UNL     1     -17.807   1.910  24.635  0.00  0.00    +0.210 A 
BRANCH  19   1
ATOM      1  S   UNL     1     -18.237   2.274  26.260  0.00  0.00    -0.077 S 
BRANCH   1  21
ATOM     21  C   UNL     1     -17.643   0.794  27.133  0.00  0.00    +0.151 C 
BRANCH  21  23
ATOM      6  O   UNL     1     -15.731   0.370  28.573  0.00  0.00    -0.467 OA
ATOM     23  C   UNL     1     -16.804   1.165  28.322  0.00  0.00    +0.115 A 
ATOM     26  C   UNL     1     -16.885   2.175  29.252  0.00  0.00    +0.045 A 
ATOM     30  C   UNL     1     -15.791   1.988  30.132  0.00  0.00    +0.041 A 
ATOM     31  C   UNL     1     -15.121   0.877  29.675  0.00  0.00    +0.195 A 
ENDBRANCH  21  23
ENDBRANCH   1  21
ENDBRANCH  19   1
ENDBRANCH  15   8
BRANCH  16   4
ATOM      4  O   UNL     1     -13.839   6.744  21.595  0.00  0.00    -0.442 OA
BRANCH   4  20
ATOM      5  O   UNL     1     -14.380   7.878  19.684  0.00  0.00    -0.226 OA
ATOM     12  N   UNL     1     -12.160   7.657  20.396  0.00  0.00    -0.251 N 
ATOM     20  C   UNL     1     -13.528   7.476  20.468  0.00  0.00    +0.405 C 
ATOM     33  H   UNL     1     -11.614   7.244  21.148  0.00  0.00    +0.158 HD
BRANCH  12  22
ATOM     22  C   UNL     1     -11.425   8.347  19.406  0.00  0.00    +0.040 A 
ATOM     24  C   UNL     1     -11.224   7.763  18.155  0.00  0.00    +0.069 A 
ATOM     25  C   UNL     1     -10.901   9.610  19.678  0.00  0.00    +0.023 A 
ATOM     27  C   UNL     1     -10.498   8.444  17.176  0.00  0.00    +0.122 A 
ATOM     28  C   UNL     1     -10.175  10.290  18.701  0.00  0.00    +0.005 A 
ATOM     29  C   UNL     1      -9.974   9.707  17.449  0.00  0.00    +0.046 A 
BRANCH  27   7
ATOM      7  O   UNL     1     -10.302   7.874  15.956  0.00  0.00    -0.495 OA
ATOM     32  C   UNL     1     -10.893   8.525  14.832  0.00  0.00    +0.277 C 
ENDBRANCH  27   7
ENDBRANCH  12  22
ENDBRANCH   4  20
ENDBRANCH  16   4
TORSDOF 8
ENDMDL
MODEL 2
REMARK VINA RESULT:      -7.0     28.669     33.136
REMARK  Name = 11886015
REMARK  9 active torsions:
REMARK  status: ('A' for Active; 'I' for Inactive)
REMARK    1  A    between atoms: S_1  and  C_19
REMARK    2  A    between atoms: S_1  and  C_21
REMARK    3  A    between atoms: O_4  and  C_16
REMARK    4  A    between atoms: O_4  and  C_20
REMARK    5  A    between atoms: O_7  and  C_27
REMARK    6  A    between atoms: O_7  and  C_32
REMARK    7  A    between atoms: N_8  and  C_15
REMARK    8  A    between atoms: N_12  and  C_22
REMARK    9  A    between atoms: C_21  and  C_23
REMARK                            x       y       z     vdW  Elec       q    Type
REMARK                         _______ _______ _______ _____ _____    ______ ____
ROOT
ATOM      2  O   UNL     1      16.371   8.289  20.786  0.00  0.00    -0.368 OA
ATOM      3  O   UNL     1      16.388   5.826  18.917  0.00  0.00    -0.368 OA
ATOM     13  C   UNL     1      15.480   6.247  19.959  0.00  0.00    +0.177 C 
ATOM     14  C   UNL     1      16.325   6.878  21.048  0.00  0.00    +0.192 C 
ATOM     15  C   UNL     1      14.611   7.380  19.447  0.00  0.00    +0.168 C 
ATOM     16  C   UNL     1      17.672   6.227  20.843  0.00  0.00    +0.235 C 
ATOM     17  C   UNL     1      15.473   8.610  19.713  0.00  0.00    +0.190 C 
ATOM     18  C   UNL     1      17.733   6.092  19.339  0.00  0.00    +0.207 C 
ENDROOT
BRANCH  15   8
ATOM      8  N   UNL     1      13.286   7.396  20.070  0.00  0.00    -0.212 N 
ATOM      9  N   UNL     1      13.122   6.954  21.325  0.00  0.00    -0.043 NA
ATOM     10  N   UNL     1      11.172   7.637  20.488  0.00  0.00    -0.101 NA
ATOM     11  N   UNL     1      11.827   7.104  21.575  0.00  0.00    -0.022 NA
ATOM     19  C   UNL     1      12.094   7.811  19.569  0.00  0.00    +0.210 A 
BRANCH  19   1
ATOM      1  S   UNL     1      11.889   8.448  17.984  0.00  0.00    -0.077 S 
BRANCH   1  21
ATOM     21  C   UNL     1      12.677  10.078  18.142  0.00  0.00    +0.151 C 
BRANCH  21  23
ATOM      6  O   UNL     1      13.852   9.297  16.162  0.00  0.00    -0.467 OA
ATOM     23  C   UNL     1      13.614  10.341  16.999  0.00  0.00    +0.115 A 
ATOM     26  C   UNL     1      14.314  11.453  16.594  0.00  0.00    +0.045 A 
ATOM     30  C   UNL     1      15.029  11.067  15.434  0.00  0.00    +0.041 A 
ATOM     31  C   UNL     1      14.713   9.747  15.213  0.00  0.00    +0.195 A 
ENDBRANCH  21  23
ENDBRANCH   1  21
ENDBRANCH  19   1
ENDBRANCH  15   8
BRANCH  16   4
ATOM      4  O   UNL     1      18.747   6.983  21.352  0.00  0.00    -0.442 OA
BRANCH   4  20
ATOM      5  O   UNL     1      20.109   6.201  23.015  0.00  0.00    -0.226 OA
ATOM     12  N   UNL     1      20.517   5.715  20.761  0.00  0.00    -0.251 N 
ATOM     20  C   UNL     1      19.836   6.279  21.823  0.00  0.00    +0.405 C 
ATOM     33  H   UNL     1      20.133   5.894  19.837  0.00  0.00    +0.158 HD
BRANCH  12  22
ATOM     22  C   UNL     1      21.683   4.918  20.801  0.00  0.00    +0.040 A 
ATOM     24  C   UNL     1      22.912   5.462  20.425  0.00  0.00    +0.069 A 
ATOM     25  C   UNL     1      21.607   3.588  21.216  0.00  0.00    +0.023 A 
ATOM     27  C   UNL     1      24.064   4.675  20.464  0.00  0.00    +0.122 A 
ATOM     28  C   UNL     1      22.758   2.802  21.254  0.00  0.00    +0.005 A 
ATOM     29  C   UNL     1      23.986   3.346  20.879  0.00  0.00    +0.046 A 
BRANCH  27   7
ATOM      7  O   UNL     1      25.262   5.205  20.097  0.00  0.00    -0.495 OA
ATOM     32  C   UNL     1      26.292   4.289  19.727  0.00  0.00    +0.277 C 
ENDBRANCH  27   7
ENDBRANCH  12  22
ENDBRANCH   4  20
ENDBRANCH  16   4
TORSDOF 8
ENDMDL
MODEL 3
REMARK VINA RESULT:      -7.0     28.316     32.381
REMARK  Name = 11886015
REMARK  9 active torsions:
REMARK  status: ('A' for Active; 'I' for Inactive)
REMARK    1  A    between atoms: S_1  and  C_19
REMARK    2  A    between atoms: S_1  and  C_21
REMARK    3  A    between atoms: O_4  and  C_16
REMARK    4  A    between atoms: O_4  and  C_20
REMARK    5  A    between atoms: O_7  and  C_27
REMARK    6  A    between atoms: O_7  and  C_32
REMARK    7  A    between atoms: N_8  and  C_15
REMARK    8  A    between atoms: N_12  and  C_22
REMARK    9  A    between atoms: C_21  and  C_23
REMARK                            x       y       z     vdW  Elec       q    Type
REMARK                         _______ _______ _______ _____ _____    ______ ____
ROOT
ATOM      2  O   UNL     1      15.681   6.329  21.168  0.00  0.00    -0.368 OA
ATOM      3  O   UNL     1      16.691   9.197  20.604  0.00  0.00    -0.368 OA
ATOM     13  C   UNL     1      15.885   8.283  19.828  0.00  0.00    +0.177 C 
ATOM     14  C   UNL     1      16.434   6.892  20.082  0.00  0.00    +0.192 C 
ATOM     15  C   UNL     1      14.478   8.244  20.393  0.00  0.00    +0.168 C 
ATOM     16  C   UNL     1      17.866   7.166  20.476  0.00  0.00    +0.235 C 
ATOM     17  C   UNL     1      14.587   7.197  21.498  0.00  0.00    +0.190 C 
ATOM     18  C   UNL     1      17.739   8.459  21.249  0.00  0.00    +0.207 C 
ENDROOT
BRANCH  15   8
ATOM      8  N   UNL     1      13.470   7.970  19.367  0.00  0.00    -0.212 N 
ATOM      9  N   UNL     1      13.835   7.497  18.167  0.00  0.00    -0.043 NA
ATOM     10  N   UNL     1      11.622   7.749  18.253  0.00  0.00    -0.101 NA
ATOM     11  N   UNL     1      12.701   7.364  17.490  0.00  0.00    -0.022 NA
ATOM     19  C   UNL     1      12.120   8.119  19.410  0.00  0.00    +0.210 A 
BRANCH  19   1
ATOM      1  S   UNL     1      11.264   8.703  20.783  0.00  0.00    -0.077 S 
BRANCH   1  21
ATOM     21  C   UNL     1      11.728  10.460  20.783  0.00  0.00    +0.151 C 
BRANCH  21  23
ATOM      6  O   UNL     1      11.221  10.283  23.154  0.00  0.00    -0.467 OA
ATOM     23  C   UNL     1      11.384  11.113  22.090  0.00  0.00    +0.115 A 
ATOM     26  C   UNL     1      11.187  12.422  22.465  0.00  0.00    +0.045 A 
ATOM     30  C   UNL     1      10.885  12.393  23.848  0.00  0.00    +0.041 A 
ATOM     31  C   UNL     1      10.918  11.070  24.218  0.00  0.00    +0.195 A 
ENDBRANCH  21  23
ENDBRANCH   1  21
ENDBRANCH  19   1
ENDBRANCH  15   8
BRANCH  16   4
ATOM      4  O   UNL     1      18.444   6.140  21.250  0.00  0.00    -0.442 OA
BRANCH   4  20
ATOM      5  O   UNL     1      20.102   6.599  22.756  0.00  0.00    -0.226 OA
ATOM     12  N   UNL     1      20.578   6.087  20.521  0.00  0.00    -0.251 N 
ATOM     20  C   UNL     1      19.763   6.304  21.616  0.00  0.00    +0.405 C 
ATOM     33  H   UNL     1      20.107   5.850  19.652  0.00  0.00    +0.158 HD
BRANCH  12  22
ATOM     22  C   UNL     1      21.988   6.152  20.460  0.00  0.00    +0.040 A 
ATOM     24  C   UNL     1      22.740   4.977  20.441  0.00  0.00    +0.069 A 
ATOM     25  C   UNL     1      22.629   7.390  20.418  0.00  0.00    +0.023 A 
ATOM     27  C   UNL     1      24.133   5.041  20.380  0.00  0.00    +0.122 A 
ATOM     28  C   UNL     1      24.021   7.455  20.359  0.00  0.00    +0.005 A 
ATOM     29  C   UNL     1      24.773   6.280  20.339  0.00  0.00    +0.046 A 
BRANCH  27   7
ATOM      7  O   UNL     1      24.867   3.895  20.362  0.00  0.00    -0.495 OA
ATOM     32  C   UNL     1      24.157   2.667  20.513  0.00  0.00    +0.277 C 
ENDBRANCH  27   7
ENDBRANCH  12  22
ENDBRANCH   4  20
ENDBRANCH  16   4
TORSDOF 8
ENDMDL
MODEL 4
REMARK VINA RESULT:      -6.9     16.582     18.008
REMARK  Name = 11886015
REMARK  9 active torsions:
REMARK  status: ('A' for Active; 'I' for Inactive)
REMARK    1  A    between atoms: S_1  and  C_19
REMARK    2  A    between atoms: S_1  and  C_21
REMARK    3  A    between atoms: O_4  and  C_16
REMARK    4  A    between atoms: O_4  and  C_20
REMARK    5  A    between atoms: O_7  and  C_27
REMARK    6  A    between atoms: O_7  and  C_32
REMARK    7  A    between atoms: N_8  and  C_15
REMARK    8  A    between atoms: N_12  and  C_22
REMARK    9  A    between atoms: C_21  and  C_23
REMARK                            x       y       z     vdW  Elec       q    Type
REMARK                         _______ _______ _______ _____ _____    ______ ____
ROOT
ATOM      2  O   UNL     1     -10.079 -10.203  17.933  0.00  0.00    -0.368 OA
ATOM      3  O   UNL     1      -8.333  -9.877  15.402  0.00  0.00    -0.368 OA
ATOM     13  C   UNL     1      -8.021  -9.808  16.812  0.00  0.00    +0.177 C 
ATOM     14  C   UNL     1      -9.208  -9.151  17.490  0.00  0.00    +0.192 C 
ATOM     15  C   UNL     1      -7.979 -11.208  17.391  0.00  0.00    +0.168 C 
ATOM     16  C   UNL     1      -9.826  -8.346  16.373  0.00  0.00    +0.235 C 
ATOM     17  C   UNL     1      -9.441 -11.474  17.736  0.00  0.00    +0.190 C 
ATOM     18  C   UNL     1      -9.596  -9.238  15.174  0.00  0.00    +0.207 C 
ENDROOT
BRANCH  15   8
ATOM      8  N   UNL     1      -7.040 -11.325  18.509  0.00  0.00    -0.212 N 
ATOM      9  N   UNL     1      -7.426 -11.010  19.753  0.00  0.00    -0.043 NA
ATOM     10  N   UNL     1      -5.296 -11.670  19.751  0.00  0.00    -0.101 NA
ATOM     11  N   UNL     1      -6.355 -11.223  20.509  0.00  0.00    -0.022 NA
ATOM     19  C   UNL     1      -5.742 -11.726  18.517  0.00  0.00    +0.210 A 
BRANCH  19   1
ATOM      1  S   UNL     1      -4.880 -12.216  17.112  0.00  0.00    -0.077 S 
BRANCH   1  21
ATOM     21  C   UNL     1      -4.533 -10.616  16.322  0.00  0.00    +0.151 C 
BRANCH  21  23
ATOM      6  O   UNL     1      -3.080 -10.432  14.381  0.00  0.00    -0.467 OA
ATOM     23  C   UNL     1      -3.154 -10.591  15.729  0.00  0.00    +0.115 A 
ATOM     26  C   UNL     1      -1.894 -10.700  16.271  0.00  0.00    +0.045 A 
ATOM     30  C   UNL     1      -0.989 -10.600  15.187  0.00  0.00    +0.041 A 
ATOM     31  C   UNL     1      -1.760 -10.438  14.060  0.00  0.00    +0.195 A 
ENDBRANCH  21  23
ENDBRANCH   1  21
ENDBRANCH  19   1
ENDBRANCH  15   8
BRANCH  16   4
ATOM      4  O   UNL     1     -11.193  -8.064  16.570  0.00  0.00    -0.442 OA
BRANCH   4  20
ATOM      5  O   UNL     1     -11.307  -5.781  16.619  0.00  0.00    -0.226 OA
ATOM     12  N   UNL     1     -12.514  -7.039  15.056  0.00  0.00    -0.251 N 
ATOM     20  C   UNL     1     -11.650  -6.844  16.117  0.00  0.00    +0.405 C 
ATOM     33  H   UNL     1     -12.675  -8.004  14.781  0.00  0.00    +0.158 HD
BRANCH  12  22
ATOM     22  C   UNL     1     -13.201  -6.060  14.304  0.00  0.00    +0.040 A 
ATOM     24  C   UNL     1     -12.486  -5.062  13.640  0.00  0.00    +0.069 A 
ATOM     25  C   UNL     1     -14.593  -6.090  14.223  0.00  0.00    +0.023 A 
ATOM     27  C   UNL     1     -13.164  -4.095  12.897  0.00  0.00    +0.122 A 
ATOM     28  C   UNL     1     -15.271  -5.124  13.481  0.00  0.00    +0.005 A 
ATOM     29  C   UNL     1     -14.556  -4.126  12.817  0.00  0.00    +0.046 A 
BRANCH  27   7
ATOM      7  O   UNL     1     -12.467  -3.121  12.251  0.00  0.00    -0.495 OA
ATOM     32  C   UNL     1     -11.923  -3.450  10.973  0.00  0.00    +0.277 C 
ENDBRANCH  27   7
ENDBRANCH  12  22
ENDBRANCH   4  20
ENDBRANCH  16   4
TORSDOF 8
ENDMDL
MODEL 5
REMARK VINA RESULT:      -6.8     29.105     33.510
REMARK  Name = 11886015
REMARK  9 active torsions:
REMARK  status: ('A' for Active; 'I' for Inactive)
REMARK    1  A    between atoms: S_1  and  C_19
REMARK    2  A    between atoms: S_1  and  C_21
REMARK    3  A    between atoms: O_4  and  C_16
REMARK    4  A    between atoms: O_4  and  C_20
REMARK    5  A    between atoms: O_7  and  C_27
REMARK    6  A    between atoms: O_7  and  C_32
REMARK    7  A    between atoms: N_8  and  C_15
REMARK    8  A    between atoms: N_12  and  C_22
REMARK    9  A    between atoms: C_21  and  C_23
REMARK                            x       y       z     vdW  Elec       q    Type
REMARK                         _______ _______ _______ _____ _____    ______ ____
ROOT
ATOM      2  O   UNL     1      15.310   6.550  20.948  0.00  0.00    -0.368 OA
ATOM      3  O   UNL     1      16.375   9.415  20.480  0.00  0.00    -0.368 OA
ATOM     13  C   UNL     1      15.668   8.490  19.622  0.00  0.00    +0.177 C 
ATOM     14  C   UNL     1      16.186   7.104  19.954  0.00  0.00    +0.192 C 
ATOM     15  C   UNL     1      14.204   8.453  20.015  0.00  0.00    +0.168 C 
ATOM     16  C   UNL     1      17.560   7.387  20.513  0.00  0.00    +0.235 C 
ATOM     17  C   UNL     1      14.183   7.418  21.135  0.00  0.00    +0.190 C 
ATOM     18  C   UNL     1      17.339   8.687  21.252  0.00  0.00    +0.207 C 
ENDROOT
BRANCH  15   8
ATOM      8  N   UNL     1      13.326   8.166  18.879  0.00  0.00    -0.212 N 
ATOM      9  N   UNL     1      12.532   7.086  18.893  0.00  0.00    -0.043 NA
ATOM     10  N   UNL     1      12.262   8.216  16.990  0.00  0.00    -0.101 NA
ATOM     11  N   UNL     1      11.883   7.122  17.735  0.00  0.00    -0.022 NA
ATOM     19  C   UNL     1      13.154   8.848  17.717  0.00  0.00    +0.210 A 
BRANCH  19   1
ATOM      1  S   UNL     1      13.997  10.294  17.320  0.00  0.00    -0.077 S 
BRANCH   1  21
ATOM     21  C   UNL     1      13.781  10.359  15.517  0.00  0.00    +0.151 C 
BRANCH  21  23
ATOM      6  O   UNL     1      14.823  11.269  13.517  0.00  0.00    -0.467 OA
ATOM     23  C   UNL     1      14.927  11.072  14.858  0.00  0.00    +0.115 A 
ATOM     26  C   UNL     1      16.109  11.591  15.332  0.00  0.00    +0.045 A 
ATOM     30  C   UNL     1      16.774  12.143  14.210  0.00  0.00    +0.041 A 
ATOM     31  C   UNL     1      15.950  11.921  13.132  0.00  0.00    +0.195 A 
ENDBRANCH  21  23
ENDBRANCH   1  21
ENDBRANCH  19   1
ENDBRANCH  15   8
BRANCH  16   4
ATOM      4  O   UNL     1      18.043   6.370  21.361  0.00  0.00    -0.442 OA
BRANCH   4  20
ATOM      5  O   UNL     1      19.735   6.509  22.894  0.00  0.00    -0.226 OA
ATOM     12  N   UNL     1      20.164   6.426  20.594  0.00  0.00    -0.251 N 
ATOM     20  C   UNL     1      19.371   6.442  21.726  0.00  0.00    +0.405 C 
ATOM     33  H   UNL     1      19.674   6.366  19.705  0.00  0.00    +0.158 HD
BRANCH  12  22
ATOM     22  C   UNL     1      21.574   6.482  20.519  0.00  0.00    +0.040 A 
ATOM     24  C   UNL     1      22.323   5.307  20.600  0.00  0.00    +0.069 A 
ATOM     25  C   UNL     1      22.217   7.709  20.362  0.00  0.00    +0.023 A 
ATOM     27  C   UNL     1      23.716   5.362  20.525  0.00  0.00    +0.122 A 
ATOM     28  C   UNL     1      23.609   7.764  20.289  0.00  0.00    +0.005 A 
ATOM     29  C   UNL     1      24.358   6.590  20.370  0.00  0.00    +0.046 A 
BRANCH  27   7
ATOM      7  O   UNL     1      24.446   4.217  20.605  0.00  0.00    -0.495 OA
ATOM     32  C   UNL     1      25.178   3.830  19.443  0.00  0.00    +0.277 C 
ENDBRANCH  27   7
ENDBRANCH  12  22
ENDBRANCH   4  20
ENDBRANCH  16   4
TORSDOF 8
ENDMDL
MODEL 6
REMARK VINA RESULT:      -6.8      1.271      1.441
REMARK  Name = 11886015
REMARK  9 active torsions:
REMARK  status: ('A' for Active; 'I' for Inactive)
REMARK    1  A    between atoms: S_1  and  C_19
REMARK    2  A    between atoms: S_1  and  C_21
REMARK    3  A    between atoms: O_4  and  C_16
REMARK    4  A    between atoms: O_4  and  C_20
REMARK    5  A    between atoms: O_7  and  C_27
REMARK    6  A    between atoms: O_7  and  C_32
REMARK    7  A    between atoms: N_8  and  C_15
REMARK    8  A    between atoms: N_12  and  C_22
REMARK    9  A    between atoms: C_21  and  C_23
REMARK                            x       y       z     vdW  Elec       q    Type
REMARK                         _______ _______ _______ _____ _____    ______ ____
ROOT
ATOM      2  O   UNL     1     -13.615   4.893  22.479  0.00  0.00    -0.368 OA
ATOM      3  O   UNL     1     -15.814   6.931  23.233  0.00  0.00    -0.368 OA
ATOM     13  C   UNL     1     -15.876   5.554  22.797  0.00  0.00    +0.177 C 
ATOM     14  C   UNL     1     -14.772   5.370  21.774  0.00  0.00    +0.192 C 
ATOM     15  C   UNL     1     -15.487   4.642  23.945  0.00  0.00    +0.168 C 
ATOM     16  C   UNL     1     -14.568   6.770  21.248  0.00  0.00    +0.235 C 
ATOM     17  C   UNL     1     -13.966   4.599  23.839  0.00  0.00    +0.190 C 
ATOM     18  C   UNL     1     -14.796   7.609  22.484  0.00  0.00    +0.207 C 
ENDROOT
BRANCH  15   8
ATOM      8  N   UNL     1     -16.158   3.342  23.879  0.00  0.00    -0.212 N 
ATOM      9  N   UNL     1     -16.482   2.806  22.694  0.00  0.00    -0.043 NA
ATOM     10  N   UNL     1     -17.110   1.452  24.349  0.00  0.00    -0.101 NA
ATOM     11  N   UNL     1     -17.064   1.650  22.988  0.00  0.00    -0.022 NA
ATOM     19  C   UNL     1     -16.543   2.510  24.881  0.00  0.00    +0.210 A 
BRANCH  19   1
ATOM      1  S   UNL     1     -16.301   2.842  26.551  0.00  0.00    -0.077 S 
BRANCH   1  21
ATOM     21  C   UNL     1     -16.707   1.239  27.305  0.00  0.00    +0.151 C 
BRANCH  21  23
ATOM      6  O   UNL     1     -15.243   0.047  28.837  0.00  0.00    -0.467 OA
ATOM     23  C   UNL     1     -16.081   1.103  28.663  0.00  0.00    +0.115 A 
ATOM     26  C   UNL     1     -16.173   1.843  29.819  0.00  0.00    +0.045 A 
ATOM     30  C   UNL     1     -15.338   1.200  30.764  0.00  0.00    +0.041 A 
ATOM     31  C   UNL     1     -14.796   0.114  30.118  0.00  0.00    +0.195 A 
ENDBRANCH  21  23
ENDBRANCH   1  21
ENDBRANCH  19   1
ENDBRANCH  15   8
BRANCH  16   4
ATOM      4  O   UNL     1     -13.291   6.983  20.690  0.00  0.00    -0.442 OA
BRANCH   4  20
ATOM      5  O   UNL     1     -14.021   8.828  19.553  0.00  0.00    -0.226 OA
ATOM     12  N   UNL     1     -12.065   7.698  18.937  0.00  0.00    -0.251 N 
ATOM     20  C   UNL     1     -13.197   7.933  19.695  0.00  0.00    +0.405 C 
ATOM     33  H   UNL     1     -11.500   6.899  19.213  0.00  0.00    +0.158 HD
BRANCH  12  22
ATOM     22  C   UNL     1     -11.596   8.432  17.824  0.00  0.00    +0.040 A 
ATOM     24  C   UNL     1     -12.242   8.320  16.593  0.00  0.00    +0.069 A 
ATOM     25  C   UNL     1     -10.487   9.268  17.956  0.00  0.00    +0.023 A 
ATOM     27  C   UNL     1     -11.779   9.045  15.494  0.00  0.00    +0.122 A 
ATOM     28  C   UNL     1     -10.024   9.991  16.858  0.00  0.00    +0.005 A 
ATOM     29  C   UNL     1     -10.670   9.880  15.627  0.00  0.00    +0.046 A 
BRANCH  27   7
ATOM      7  O   UNL     1     -12.409   8.936  14.293  0.00  0.00    -0.495 OA
ATOM     32  C   UNL     1     -11.966   9.797  13.246  0.00  0.00    +0.277 C 
ENDBRANCH  27   7
ENDBRANCH  12  22
ENDBRANCH   4  20
ENDBRANCH  16   4
TORSDOF 8
ENDMDL
MODEL 7
REMARK VINA RESULT:      -6.8     21.147     23.926
REMARK  Name = 11886015
REMARK  9 active torsions:
REMARK  status: ('A' for Active; 'I' for Inactive)
REMARK    1  A    between atoms: S_1  and  C_19
REMARK    2  A    between atoms: S_1  and  C_21
REMARK    3  A    between atoms: O_4  and  C_16
REMARK    4  A    between atoms: O_4  and  C_20
REMARK    5  A    between atoms: O_7  and  C_27
REMARK    6  A    between atoms: O_7  and  C_32
REMARK    7  A    between atoms: N_8  and  C_15
REMARK    8  A    between atoms: N_12  and  C_22
REMARK    9  A    between atoms: C_21  and  C_23
REMARK                            x       y       z     vdW  Elec       q    Type
REMARK                         _______ _______ _______ _____ _____    ______ ____
ROOT
ATOM      2  O   UNL     1      -2.391 -10.300  12.743  0.00  0.00    -0.368 OA
ATOM      3  O   UNL     1      -3.038 -13.083  11.561  0.00  0.00    -0.368 OA
ATOM     13  C   UNL     1      -3.804 -11.859  11.637  0.00  0.00    +0.177 C 
ATOM     14  C   UNL     1      -3.472 -11.218  12.970  0.00  0.00    +0.192 C 
ATOM     15  C   UNL     1      -3.290 -10.876  10.603  0.00  0.00    +0.168 C 
ATOM     16  C   UNL     1      -3.037 -12.397  13.808  0.00  0.00    +0.235 C 
ATOM     17  C   UNL     1      -2.138 -10.192  11.334  0.00  0.00    +0.190 C 
ATOM     18  C   UNL     1      -2.325 -13.262  12.793  0.00  0.00    +0.207 C 
ENDROOT
BRANCH  15   8
ATOM      8  N   UNL     1      -4.340  -9.982  10.110  0.00  0.00    -0.212 N 
ATOM      9  N   UNL     1      -4.551  -8.796  10.699  0.00  0.00    -0.043 NA
ATOM     10  N   UNL     1      -5.974  -9.081   9.007  0.00  0.00    -0.101 NA
ATOM     11  N   UNL     1      -5.552  -8.249  10.020  0.00  0.00    -0.022 NA
ATOM     19  C   UNL     1      -5.210 -10.146   9.081  0.00  0.00    +0.210 A 
BRANCH  19   1
ATOM      1  S   UNL     1      -5.256 -11.541   8.076  0.00  0.00    -0.077 S 
BRANCH   1  21
ATOM     21  C   UNL     1      -5.405 -10.797   6.425  0.00  0.00    +0.151 C 
BRANCH  21  23
ATOM      6  O   UNL     1      -5.281 -11.703   4.172  0.00  0.00    -0.467 OA
ATOM     23  C   UNL     1      -4.688 -11.617   5.392  0.00  0.00    +0.115 A 
ATOM     26  C   UNL     1      -3.513 -12.332   5.409  0.00  0.00    +0.045 A 
ATOM     30  C   UNL     1      -3.375 -12.893   4.116  0.00  0.00    +0.041 A 
ATOM     31  C   UNL     1      -4.476 -12.480   3.402  0.00  0.00    +0.195 A 
ENDBRANCH  21  23
ENDBRANCH   1  21
ENDBRANCH  19   1
ENDBRANCH  15   8
BRANCH  16   4
ATOM      4  O   UNL     1      -2.200 -12.045  14.886  0.00  0.00    -0.442 OA
BRANCH   4  20
ATOM      5  O   UNL     1      -2.333 -10.186  16.210  0.00  0.00    -0.226 OA
ATOM     12  N   UNL     1      -3.838 -11.966  16.435  0.00  0.00    -0.251 N 
ATOM     20  C   UNL     1      -2.764 -11.288  15.891  0.00  0.00    +0.405 C 
ATOM     33  H   UNL     1      -4.042 -12.877  16.032  0.00  0.00    +0.158 HD
BRANCH  12  22
ATOM     22  C   UNL     1      -4.690 -11.549  17.482  0.00  0.00    +0.040 A 
ATOM     24  C   UNL     1      -5.826 -10.791  17.197  0.00  0.00    +0.069 A 
ATOM     25  C   UNL     1      -4.396 -11.894  18.801  0.00  0.00    +0.023 A 
ATOM     27  C   UNL     1      -6.667 -10.379  18.231  0.00  0.00    +0.122 A 
ATOM     28  C   UNL     1      -5.236 -11.482  19.835  0.00  0.00    +0.005 A 
ATOM     29  C   UNL     1      -6.372 -10.725  19.550  0.00  0.00    +0.046 A 
BRANCH  27   7
ATOM      7  O   UNL     1      -7.775  -9.640  17.953  0.00  0.00    -0.495 OA
ATOM     32  C   UNL     1      -7.953  -9.219  16.601  0.00  0.00    +0.277 C 
ENDBRANCH  27   7
ENDBRANCH  12  22
ENDBRANCH   4  20
ENDBRANCH  16   4
TORSDOF 8
ENDMDL
MODEL 8
REMARK VINA RESULT:      -6.7      1.143      1.677
REMARK  Name = 11886015
REMARK  9 active torsions:
REMARK  status: ('A' for Active; 'I' for Inactive)
REMARK    1  A    between atoms: S_1  and  C_19
REMARK    2  A    between atoms: S_1  and  C_21
REMARK    3  A    between atoms: O_4  and  C_16
REMARK    4  A    between atoms: O_4  and  C_20
REMARK    5  A    between atoms: O_7  and  C_27
REMARK    6  A    between atoms: O_7  and  C_32
REMARK    7  A    between atoms: N_8  and  C_15
REMARK    8  A    between atoms: N_12  and  C_22
REMARK    9  A    between atoms: C_21  and  C_23
REMARK                            x       y       z     vdW  Elec       q    Type
REMARK                         _______ _______ _______ _____ _____    ______ ____
ROOT
ATOM      2  O   UNL     1     -14.901   5.217  23.692  0.00  0.00    -0.368 OA
ATOM      3  O   UNL     1     -17.337   6.399  22.199  0.00  0.00    -0.368 OA
ATOM     13  C   UNL     1     -16.791   5.062  22.259  0.00  0.00    +0.177 C 
ATOM     14  C   UNL     1     -15.283   5.208  22.307  0.00  0.00    +0.192 C 
ATOM     15  C   UNL     1     -17.154   4.425  23.586  0.00  0.00    +0.168 C 
ATOM     16  C   UNL     1     -15.057   6.551  21.656  0.00  0.00    +0.235 C 
ATOM     17  C   UNL     1     -16.041   4.913  24.509  0.00  0.00    +0.190 C 
ATOM     18  C   UNL     1     -16.256   7.339  22.131  0.00  0.00    +0.207 C 
ENDROOT
BRANCH  15   8
ATOM      8  N   UNL     1     -17.297   2.971  23.490  0.00  0.00    -0.212 N 
ATOM      9  N   UNL     1     -17.134   2.351  22.313  0.00  0.00    -0.043 NA
ATOM     10  N   UNL     1     -17.615   0.867  23.904  0.00  0.00    -0.101 NA
ATOM     11  N   UNL     1     -17.330   1.064  22.572  0.00  0.00    -0.022 NA
ATOM     19  C   UNL     1     -17.589   2.059  24.453  0.00  0.00    +0.210 A 
BRANCH  19   1
ATOM      1  S   UNL     1     -17.868   2.462  26.102  0.00  0.00    -0.077 S 
BRANCH   1  21
ATOM     21  C   UNL     1     -17.370   0.928  26.941  0.00  0.00    +0.151 C 
BRANCH  21  23
ATOM      6  O   UNL     1     -15.700   0.366  28.616  0.00  0.00    -0.467 OA
ATOM     23  C   UNL     1     -16.692   1.220  28.248  0.00  0.00    +0.115 A 
ATOM     26  C   UNL     1     -16.860   2.201  29.197  0.00  0.00    +0.045 A 
ATOM     30  C   UNL     1     -15.910   1.933  30.212  0.00  0.00    +0.041 A 
ATOM     31  C   UNL     1     -15.230   0.808  29.811  0.00  0.00    +0.195 A 
ENDBRANCH  21  23
ENDBRANCH   1  21
ENDBRANCH  19   1
ENDBRANCH  15   8
BRANCH  16   4
ATOM      4  O   UNL     1     -13.841   7.161  22.026  0.00  0.00    -0.442 OA
BRANCH   4  20
ATOM      5  O   UNL     1     -12.056   6.143  21.024  0.00  0.00    -0.226 OA
ATOM     12  N   UNL     1     -12.795   8.263  20.359  0.00  0.00    -0.251 N 
ATOM     20  C   UNL     1     -12.811   7.104  21.111  0.00  0.00    +0.405 C 
ATOM     33  H   UNL     1     -13.510   8.951  20.582  0.00  0.00    +0.158 HD
BRANCH  12  22
ATOM     22  C   UNL     1     -11.907   8.611  19.317  0.00  0.00    +0.040 A 
ATOM     24  C   UNL     1     -11.366   9.896  19.263  0.00  0.00    +0.069 A 
ATOM     25  C   UNL     1     -11.570   7.672  18.343  0.00  0.00    +0.023 A 
ATOM     27  C   UNL     1     -10.489  10.241  18.233  0.00  0.00    +0.122 A 
ATOM     28  C   UNL     1     -10.695   8.016  17.314  0.00  0.00    +0.005 A 
ATOM     29  C   UNL     1     -10.154   9.301  17.259  0.00  0.00    +0.046 A 
BRANCH  27   7
ATOM      7  O   UNL     1      -9.962  11.494  18.180  0.00  0.00    -0.495 OA
ATOM     32  C   UNL     1     -10.872  12.587  18.292  0.00  0.00    +0.277 C 
ENDBRANCH  27   7
ENDBRANCH  12  22
ENDBRANCH   4  20
ENDBRANCH  16   4
TORSDOF 8
ENDMDL
MODEL 9
REMARK VINA RESULT:      -6.7     16.338     17.605
REMARK  Name = 11886015
REMARK  9 active torsions:
REMARK  status: ('A' for Active; 'I' for Inactive)
REMARK    1  A    between atoms: S_1  and  C_19
REMARK    2  A    between atoms: S_1  and  C_21
REMARK    3  A    between atoms: O_4  and  C_16
REMARK    4  A    between atoms: O_4  and  C_20
REMARK    5  A    between atoms: O_7  and  C_27
REMARK    6  A    between atoms: O_7  and  C_32
REMARK    7  A    between atoms: N_8  and  C_15
REMARK    8  A    between atoms: N_12  and  C_22
REMARK    9  A    between atoms: C_21  and  C_23
REMARK                            x       y       z     vdW  Elec       q    Type
REMARK                         _______ _______ _______ _____ _____    ______ ____
ROOT
ATOM      2  O   UNL     1     -10.647  -8.547  17.914  0.00  0.00    -0.368 OA
ATOM      3  O   UNL     1      -9.437  -9.128  15.129  0.00  0.00    -0.368 OA
ATOM     13  C   UNL     1      -8.835  -8.958  16.432  0.00  0.00    +0.177 C 
ATOM     14  C   UNL     1      -9.632  -7.883  17.145  0.00  0.00    +0.192 C 
ATOM     15  C   UNL     1      -9.057 -10.208  17.260  0.00  0.00    +0.168 C 
ATOM     16  C   UNL     1     -10.224  -7.094  16.002  0.00  0.00    +0.235 C 
ATOM     17  C   UNL     1     -10.433  -9.966  17.873  0.00  0.00    +0.190 C 
ATOM     18  C   UNL     1     -10.497  -8.174  14.980  0.00  0.00    +0.207 C 
ENDROOT
BRANCH  15   8
ATOM      8  N   UNL     1      -7.976 -10.445  18.219  0.00  0.00    -0.212 N 
ATOM      9  N   UNL     1      -8.257 -10.746  19.495  0.00  0.00    -0.043 NA
ATOM     10  N   UNL     1      -6.050 -10.689  19.185  0.00  0.00    -0.101 NA
ATOM     11  N   UNL     1      -7.075 -10.894  20.081  0.00  0.00    -0.022 NA
ATOM     19  C   UNL     1      -6.630 -10.414  18.040  0.00  0.00    +0.210 A 
BRANCH  19   1
ATOM      1  S   UNL     1      -5.871 -10.064  16.537  0.00  0.00    -0.077 S 
BRANCH   1  21
ATOM     21  C   UNL     1      -4.683 -11.433  16.401  0.00  0.00    +0.151 C 
BRANCH  21  23
ATOM      6  O   UNL     1      -3.411 -10.786  14.433  0.00  0.00    -0.467 OA
ATOM     23  C   UNL     1      -3.395 -10.975  15.779  0.00  0.00    +0.115 A 
ATOM     26  C   UNL     1      -2.151 -10.692  16.291  0.00  0.00    +0.045 A 
ATOM     30  C   UNL     1      -1.350 -10.306  15.189  0.00  0.00    +0.041 A 
ATOM     31  C   UNL     1      -2.164 -10.379  14.082  0.00  0.00    +0.195 A 
ENDBRANCH  21  23
ENDBRANCH   1  21
ENDBRANCH  19   1
ENDBRANCH  15   8
BRANCH  16   4
ATOM      4  O   UNL     1     -11.392  -6.386  16.350  0.00  0.00    -0.442 OA
BRANCH   4  20
ATOM      5  O   UNL     1     -13.477  -6.554  15.425  0.00  0.00    -0.226 OA
ATOM     12  N   UNL     1     -11.715  -5.495  14.303  0.00  0.00    -0.251 N 
ATOM     20  C   UNL     1     -12.314  -6.174  15.347  0.00  0.00    +0.405 C 
ATOM     33  H   UNL     1     -10.733  -5.264  14.424  0.00  0.00    +0.158 HD
BRANCH  12  22
ATOM     22  C   UNL     1     -12.301  -5.080  13.086  0.00  0.00    +0.040 A 
ATOM     24  C   UNL     1     -12.684  -6.029  12.138  0.00  0.00    +0.069 A 
ATOM     25  C   UNL     1     -12.497  -3.723  12.832  0.00  0.00    +0.023 A 
ATOM     27  C   UNL     1     -13.262  -5.620  10.935  0.00  0.00    +0.122 A 
ATOM     28  C   UNL     1     -13.074  -3.314  11.630  0.00  0.00    +0.005 A 
ATOM     29  C   UNL     1     -13.457  -4.263  10.682  0.00  0.00    +0.046 A 
BRANCH  27   7
ATOM      7  O   UNL     1     -13.635  -6.546  10.010  0.00  0.00    -0.495 OA
ATOM     32  C   UNL     1     -14.192  -6.058   8.790  0.00  0.00    +0.277 C 
ENDBRANCH  27   7
ENDBRANCH  12  22
ENDBRANCH   4  20
ENDBRANCH  16   4
TORSDOF 8
ENDMDL
MODEL 10
REMARK VINA RESULT:      -6.6     27.610     31.632
REMARK  Name = 11886015
REMARK  9 active torsions:
REMARK  status: ('A' for Active; 'I' for Inactive)
REMARK    1  A    between atoms: S_1  and  C_19
REMARK    2  A    between atoms: S_1  and  C_21
REMARK    3  A    between atoms: O_4  and  C_16
REMARK    4  A    between atoms: O_4  and  C_20
REMARK    5  A    between atoms: O_7  and  C_27
REMARK    6  A    between atoms: O_7  and  C_32
REMARK    7  A    between atoms: N_8  and  C_15
REMARK    8  A    between atoms: N_12  and  C_22
REMARK    9  A    between atoms: C_21  and  C_23
REMARK                            x       y       z     vdW  Elec       q    Type
REMARK                         _______ _______ _______ _____ _____    ______ ____
ROOT
ATOM      2  O   UNL     1      15.397   8.826  20.780  0.00  0.00    -0.368 OA
ATOM      3  O   UNL     1      15.198   6.182  19.191  0.00  0.00    -0.368 OA
ATOM     13  C   UNL     1      14.527   6.650  20.382  0.00  0.00    +0.177 C 
ATOM     14  C   UNL     1      15.545   7.452  21.170  0.00  0.00    +0.192 C 
ATOM     15  C   UNL     1      13.462   7.659  20.000  0.00  0.00    +0.168 C 
ATOM     16  C   UNL     1      16.859   6.875  20.700  0.00  0.00    +0.235 C 
ATOM     17  C   UNL     1      14.245   8.967  19.935  0.00  0.00    +0.190 C 
ATOM     18  C   UNL     1      16.574   6.583  19.244  0.00  0.00    +0.207 C 
ENDROOT
BRANCH  15   8
ATOM      8  N   UNL     1      12.326   7.653  20.924  0.00  0.00    -0.212 N 
ATOM      9  N   UNL     1      11.501   6.598  20.976  0.00  0.00    -0.043 NA
ATOM     10  N   UNL     1      10.848   8.158  22.428  0.00  0.00    -0.101 NA
ATOM     11  N   UNL     1      10.599   6.912  21.897  0.00  0.00    -0.022 NA
ATOM     19  C   UNL     1      11.922   8.597  21.813  0.00  0.00    +0.210 A 
BRANCH  19   1
ATOM      1  S   UNL     1      12.724  10.101  22.047  0.00  0.00    -0.077 S 
BRANCH   1  21
ATOM     21  C   UNL     1      11.333  11.269  21.988  0.00  0.00    +0.151 C 
BRANCH  21  23
ATOM      6  O   UNL     1      10.732  13.188  23.354  0.00  0.00    -0.467 OA
ATOM     23  C   UNL     1      11.073  11.873  23.338  0.00  0.00    +0.115 A 
ATOM     26  C   UNL     1      11.105  11.367  24.616  0.00  0.00    +0.045 A 
ATOM     30  C   UNL     1      10.762  12.441  25.473  0.00  0.00    +0.041 A 
ATOM     31  C   UNL     1      10.545  13.525  24.656  0.00  0.00    +0.195 A 
ENDBRANCH  21  23
ENDBRANCH   1  21
ENDBRANCH  19   1
ENDBRANCH  15   8
BRANCH  16   4
ATOM      4  O   UNL     1      17.950   7.753  20.860  0.00  0.00    -0.442 OA
BRANCH   4  20
ATOM      5  O   UNL     1      19.464   7.463  22.549  0.00  0.00    -0.226 OA
ATOM     12  N   UNL     1      19.728   6.422  20.468  0.00  0.00    -0.251 N 
ATOM     20  C   UNL     1      19.101   7.224  21.404  0.00  0.00    +0.405 C 
ATOM     33  H   UNL     1      19.270   6.347  19.564  0.00  0.00    +0.158 HD
BRANCH  12  22
ATOM     22  C   UNL     1      20.930   5.693  20.614  0.00  0.00    +0.040 A 
ATOM     24  C   UNL     1      22.158   6.341  20.485  0.00  0.00    +0.069 A 
ATOM     25  C   UNL     1      20.889   4.326  20.887  0.00  0.00    +0.023 A 
ATOM     27  C   UNL     1      23.345   5.622  20.628  0.00  0.00    +0.122 A 
ATOM     28  C   UNL     1      22.075   3.606  21.030  0.00  0.00    +0.005 A 
ATOM     29  C   UNL     1      23.303   4.255  20.901  0.00  0.00    +0.046 A 
BRANCH  27   7
ATOM      7  O   UNL     1      24.544   6.254  20.502  0.00  0.00    -0.495 OA
ATOM     32  C   UNL     1      24.514   7.655  20.233  0.00  0.00    +0.277 C 
ENDBRANCH  27   7
ENDBRANCH  12  22
ENDBRANCH   4  20
ENDBRANCH  16   4
TORSDOF 8
ENDMDL
