MODEL 1
REMARK VINA RESULT:      -7.4      0.000      0.000
REMARK  Name = 45783574
REMARK  11 active torsions:
REMARK  status: ('A' for Active; 'I' for Inactive)
REMARK    1  A    between atoms: S_1  and  C_23
REMARK    2  A    between atoms: S_1  and  C_25
REMARK    3  A    between atoms: O_5  and  C_29
REMARK    4  A    between atoms: O_5  and  C_30
REMARK    5  A    between atoms: O_6  and  C_31
REMARK    6  A    between atoms: O_6  and  C_32
REMARK    7  A    between atoms: N_7  and  C_15
REMARK    8  A    between atoms: C_11  and  C_16
REMARK    9  A    between atoms: C_15  and  C_17
REMARK   10  A    between atoms: C_20  and  C_24
REMARK   11  A    between atoms: C_30  and  C_31
REMARK                            x       y       z     vdW  Elec       q    Type
REMARK                         _______ _______ _______ _____ _____    ______ ____
ROOT
ATOM      7  N   UNL     1      12.694   8.810  18.476  0.00  0.00    -0.287 NA
ATOM     11  C   UNL     1      13.482   7.659  17.990  0.00  0.00    +0.146 C 
ATOM     12  C   UNL     1      14.122   8.150  16.679  0.00  0.00    +0.030 C 
ATOM     13  C   UNL     1      13.587   9.561  16.478  0.00  0.00    +0.017 C 
ATOM     14  C   UNL     1      12.309   9.576  17.291  0.00  0.00    +0.085 C 
ENDROOT
BRANCH  11  16
ATOM      2  O   UNL     1      14.024   6.708  20.175  0.00  0.00    -0.336 OA
ATOM      8  N   UNL     1      15.814   7.177  18.913  0.00  0.00    -0.190 NA
ATOM      9  N   UNL     1      15.144   6.343  20.934  0.00  0.00    -0.056 NA
ATOM     16  C   UNL     1      14.508   7.189  19.001  0.00  0.00    +0.245 A 
ATOM     20  C   UNL     1      16.160   6.649  20.123  0.00  0.00    +0.204 A 
BRANCH  20  24
ATOM     10  N   UNL     1      19.617   5.278  20.112  0.00  0.00    -0.221 NA
ATOM     24  C   UNL     1      17.531   6.440  20.490  0.00  0.00    +0.041 A 
ATOM     26  C   UNL     1      18.107   7.151  21.536  0.00  0.00    +0.018 A 
ATOM     27  C   UNL     1      18.320   5.523  19.816  0.00  0.00    +0.126 A 
ATOM     28  C   UNL     1      19.439   6.927  21.870  0.00  0.00    +0.068 A 
ATOM     29  C   UNL     1      20.143   5.988  21.135  0.00  0.00    +0.215 A 
BRANCH  29   5
ATOM      5  O   UNL     1      21.456   5.750  21.445  0.00  0.00    -0.474 OA
BRANCH   5  30
ATOM     30  C   UNL     1      22.057   4.608  20.846  0.00  0.00    +0.258 C 
BRANCH  30  31
ATOM     31  C   UNL     1      22.005   3.451  21.826  0.00  0.00    +0.200 C 
BRANCH  31   6
ATOM      6  O   UNL     1      22.172   3.953  23.147  0.00  0.00    -0.380 OA
ATOM     32  C   UNL     1      22.764   2.984  24.001  0.00  0.00    +0.194 C 
ENDBRANCH  31   6
ENDBRANCH  30  31
ENDBRANCH   5  30
ENDBRANCH  29   5
ENDBRANCH  20  24
ENDBRANCH  11  16
BRANCH   7  15
ATOM     15  C   UNL     1      11.539   8.418  19.275  0.00  0.00    +0.120 C 
BRANCH  15  17
ATOM     17  C   UNL     1      11.437   9.224  20.542  0.00  0.00    -0.033 A 
ATOM     18  C   UNL     1      10.730   8.719  21.634  0.00  0.00    +0.007 A 
ATOM     19  C   UNL     1      12.048  10.474  20.626  0.00  0.00    +0.007 A 
ATOM     21  C   UNL     1      10.635   9.465  22.809  0.00  0.00    +0.027 A 
ATOM     22  C   UNL     1      11.953  11.221  21.800  0.00  0.00    +0.027 A 
ATOM     23  C   UNL     1      11.246  10.716  22.892  0.00  0.00    +0.088 A 
BRANCH  23   1
ATOM      1  S   UNL     1      11.130  11.648  24.364  0.00  0.00    -0.006 S 
ATOM      3  O   UNL     1       9.972  12.527  24.276  0.00  0.00    -0.170 OA
ATOM      4  O   UNL     1      11.256  10.730  25.486  0.00  0.00    -0.170 OA
ATOM     25  C   UNL     1      12.572  12.688  24.345  0.00  0.00    +0.200 C 
ENDBRANCH  23   1
ENDBRANCH  15  17
ENDBRANCH   7  15
TORSDOF 9
ENDMDL
MODEL 2
REMARK VINA RESULT:      -6.5      3.277      6.677
REMARK  Name = 45783574
REMARK  11 active torsions:
REMARK  status: ('A' for Active; 'I' for Inactive)
REMARK    1  A    between atoms: S_1  and  C_23
REMARK    2  A    between atoms: S_1  and  C_25
REMARK    3  A    between atoms: O_5  and  C_29
REMARK    4  A    between atoms: O_5  and  C_30
REMARK    5  A    between atoms: O_6  and  C_31
REMARK    6  A    between atoms: O_6  and  C_32
REMARK    7  A    between atoms: N_7  and  C_15
REMARK    8  A    between atoms: C_11  and  C_16
REMARK    9  A    between atoms: C_15  and  C_17
REMARK   10  A    between atoms: C_20  and  C_24
REMARK   11  A    between atoms: C_30  and  C_31
REMARK                            x       y       z     vdW  Elec       q    Type
REMARK                         _______ _______ _______ _____ _____    ______ ____
ROOT
ATOM      7  N   UNL     1      18.644   7.026  21.218  0.00  0.00    -0.287 NA
ATOM     11  C   UNL     1      20.097   7.119  20.972  0.00  0.00    +0.146 C 
ATOM     12  C   UNL     1      20.489   8.524  21.465  0.00  0.00    +0.030 C 
ATOM     13  C   UNL     1      19.184   9.167  21.912  0.00  0.00    +0.017 C 
ATOM     14  C   UNL     1      18.126   8.393  21.152  0.00  0.00    +0.085 C 
ENDROOT
BRANCH  11  16
ATOM      2  O   UNL     1      20.806   5.988  23.019  0.00  0.00    -0.336 OA
ATOM      8  N   UNL     1      21.621   5.076  21.142  0.00  0.00    -0.190 NA
ATOM      9  N   UNL     1      21.595   4.903  23.423  0.00  0.00    -0.056 NA
ATOM     16  C   UNL     1      20.876   6.019  21.663  0.00  0.00    +0.245 A 
ATOM     20  C   UNL     1      22.040   4.417  22.260  0.00  0.00    +0.204 A 
BRANCH  20  24
ATOM     10  N   UNL     1      24.121   1.522  23.320  0.00  0.00    -0.221 NA
ATOM     24  C   UNL     1      22.903   3.273  22.182  0.00  0.00    +0.041 A 
ATOM     26  C   UNL     1      23.361   2.805  20.956  0.00  0.00    +0.018 A 
ATOM     27  C   UNL     1      23.309   2.603  23.324  0.00  0.00    +0.126 A 
ATOM     28  C   UNL     1      24.197   1.695  20.910  0.00  0.00    +0.068 A 
ATOM     29  C   UNL     1      24.545   1.096  22.110  0.00  0.00    +0.215 A 
BRANCH  29   5
ATOM      5  O   UNL     1      25.368   0.001  22.091  0.00  0.00    -0.474 OA
BRANCH   5  30
ATOM     30  C   UNL     1      26.303  -0.115  23.158  0.00  0.00    +0.258 C 
BRANCH  30  31
ATOM     31  C   UNL     1      26.237  -1.522  23.722  0.00  0.00    +0.200 C 
BRANCH  31   6
ATOM      6  O   UNL     1      25.394  -1.524  24.868  0.00  0.00    -0.380 OA
ATOM     32  C   UNL     1      25.146  -2.844  25.329  0.00  0.00    +0.194 C 
ENDBRANCH  31   6
ENDBRANCH  30  31
ENDBRANCH   5  30
ENDBRANCH  29   5
ENDBRANCH  20  24
ENDBRANCH  11  16
BRANCH   7  15
ATOM     15  C   UNL     1      17.960   6.134  20.291  0.00  0.00    +0.120 C 
BRANCH  15  17
ATOM     17  C   UNL     1      16.507   6.494  20.138  0.00  0.00    -0.033 A 
ATOM     18  C   UNL     1      15.986   6.772  18.874  0.00  0.00    +0.007 A 
ATOM     19  C   UNL     1      15.680   6.552  21.260  0.00  0.00    +0.007 A 
ATOM     21  C   UNL     1      14.639   7.106  18.733  0.00  0.00    +0.027 A 
ATOM     22  C   UNL     1      14.333   6.886  21.119  0.00  0.00    +0.027 A 
ATOM     23  C   UNL     1      13.813   7.164  19.855  0.00  0.00    +0.088 A 
BRANCH  23   1
ATOM      1  S   UNL     1      12.125   7.578  19.677  0.00  0.00    -0.006 S 
ATOM      3  O   UNL     1      11.781   7.555  18.262  0.00  0.00    -0.170 OA
ATOM      4  O   UNL     1      11.365   6.770  20.619  0.00  0.00    -0.170 OA
ATOM     25  C   UNL     1      12.028   9.273  20.206  0.00  0.00    +0.200 C 
ENDBRANCH  23   1
ENDBRANCH  15  17
ENDBRANCH   7  15
TORSDOF 9
ENDMDL
MODEL 3
REMARK VINA RESULT:      -6.4      4.392      8.064
REMARK  Name = 45783574
REMARK  11 active torsions:
REMARK  status: ('A' for Active; 'I' for Inactive)
REMARK    1  A    between atoms: S_1  and  C_23
REMARK    2  A    between atoms: S_1  and  C_25
REMARK    3  A    between atoms: O_5  and  C_29
REMARK    4  A    between atoms: O_5  and  C_30
REMARK    5  A    between atoms: O_6  and  C_31
REMARK    6  A    between atoms: O_6  and  C_32
REMARK    7  A    between atoms: N_7  and  C_15
REMARK    8  A    between atoms: C_11  and  C_16
REMARK    9  A    between atoms: C_15  and  C_17
REMARK   10  A    between atoms: C_20  and  C_24
REMARK   11  A    between atoms: C_30  and  C_31
REMARK                            x       y       z     vdW  Elec       q    Type
REMARK                         _______ _______ _______ _____ _____    ______ ____
ROOT
ATOM      7  N   UNL     1      13.274   7.815  19.981  0.00  0.00    -0.287 NA
ATOM     11  C   UNL     1      12.406   7.920  18.791  0.00  0.00    +0.146 C 
ATOM     12  C   UNL     1      11.167   8.693  19.278  0.00  0.00    +0.030 C 
ATOM     13  C   UNL     1      11.401   8.924  20.765  0.00  0.00    +0.017 C 
ATOM     14  C   UNL     1      12.386   7.837  21.144  0.00  0.00    +0.085 C 
ENDROOT
BRANCH  11  16
ATOM      2  O   UNL     1      12.847   8.084  16.393  0.00  0.00    -0.336 OA
ATOM      8  N   UNL     1      13.914   9.620  17.626  0.00  0.00    -0.190 NA
ATOM      9  N   UNL     1      13.586   8.862  15.492  0.00  0.00    -0.056 NA
ATOM     16  C   UNL     1      13.097   8.597  17.626  0.00  0.00    +0.245 A 
ATOM     20  C   UNL     1      14.187   9.746  16.295  0.00  0.00    +0.204 A 
BRANCH  20  24
ATOM     10  N   UNL     1      16.339  12.778  16.216  0.00  0.00    -0.221 NA
ATOM     24  C   UNL     1      15.065  10.766  15.799  0.00  0.00    +0.041 A 
ATOM     26  C   UNL     1      15.491  10.761  14.476  0.00  0.00    +0.018 A 
ATOM     27  C   UNL     1      15.513  11.787  16.621  0.00  0.00    +0.126 A 
ATOM     28  C   UNL     1      16.342  11.763  14.022  0.00  0.00    +0.068 A 
ATOM     29  C   UNL     1      16.733  12.740  14.923  0.00  0.00    +0.215 A 
BRANCH  29   5
ATOM      5  O   UNL     1      17.570  13.738  14.500  0.00  0.00    -0.474 OA
BRANCH   5  30
ATOM     30  C   UNL     1      18.727  13.338  13.774  0.00  0.00    +0.258 C 
BRANCH  30  31
ATOM     31  C   UNL     1      19.761  12.806  14.748  0.00  0.00    +0.200 C 
BRANCH  31   6
ATOM      6  O   UNL     1      20.612  11.891  14.068  0.00  0.00    -0.380 OA
ATOM     32  C   UNL     1      20.309  11.830  12.681  0.00  0.00    +0.194 C 
ENDBRANCH  31   6
ENDBRANCH  30  31
ENDBRANCH   5  30
ENDBRANCH  29   5
ENDBRANCH  20  24
ENDBRANCH  11  16
BRANCH   7  15
ATOM     15  C   UNL     1      14.128   6.633  19.967  0.00  0.00    +0.120 C 
BRANCH  15  17
ATOM     17  C   UNL     1      15.556   6.972  20.301  0.00  0.00    -0.033 A 
ATOM     18  C   UNL     1      16.597   6.222  19.752  0.00  0.00    +0.007 A 
ATOM     19  C   UNL     1      15.840   8.033  21.160  0.00  0.00    +0.007 A 
ATOM     21  C   UNL     1      17.921   6.535  20.063  0.00  0.00    +0.027 A 
ATOM     22  C   UNL     1      17.163   8.346  21.471  0.00  0.00    +0.027 A 
ATOM     23  C   UNL     1      18.204   7.596  20.922  0.00  0.00    +0.088 A 
BRANCH  23   1
ATOM      1  S   UNL     1      19.861   7.990  21.307  0.00  0.00    -0.006 S 
ATOM      3  O   UNL     1      20.743   7.154  20.504  0.00  0.00    -0.170 OA
ATOM      4  O   UNL     1      19.999   9.439  21.260  0.00  0.00    -0.170 OA
ATOM     25  C   UNL     1      20.057   7.477  22.998  0.00  0.00    +0.200 C 
ENDBRANCH  23   1
ENDBRANCH  15  17
ENDBRANCH   7  15
TORSDOF 9
ENDMDL
MODEL 4
REMARK VINA RESULT:      -6.4     16.513     20.151
REMARK  Name = 45783574
REMARK  11 active torsions:
REMARK  status: ('A' for Active; 'I' for Inactive)
REMARK    1  A    between atoms: S_1  and  C_23
REMARK    2  A    between atoms: S_1  and  C_25
REMARK    3  A    between atoms: O_5  and  C_29
REMARK    4  A    between atoms: O_5  and  C_30
REMARK    5  A    between atoms: O_6  and  C_31
REMARK    6  A    between atoms: O_6  and  C_32
REMARK    7  A    between atoms: N_7  and  C_15
REMARK    8  A    between atoms: C_11  and  C_16
REMARK    9  A    between atoms: C_15  and  C_17
REMARK   10  A    between atoms: C_20  and  C_24
REMARK   11  A    between atoms: C_30  and  C_31
REMARK                            x       y       z     vdW  Elec       q    Type
REMARK                         _______ _______ _______ _____ _____    ______ ____
ROOT
ATOM      7  N   UNL     1       9.423   7.694   6.379  0.00  0.00    -0.287 NA
ATOM     11  C   UNL     1      10.565   6.763   6.480  0.00  0.00    +0.146 C 
ATOM     12  C   UNL     1      10.372   6.051   7.831  0.00  0.00    +0.030 C 
ATOM     13  C   UNL     1       9.133   6.690   8.444  0.00  0.00    +0.017 C 
ATOM     14  C   UNL     1       9.046   8.035   7.751  0.00  0.00    +0.085 C 
ENDROOT
BRANCH  11  16
ATOM      2  O   UNL     1      10.123   4.558   5.526  0.00  0.00    -0.336 OA
ATOM      8  N   UNL     1      11.119   5.981   4.113  0.00  0.00    -0.190 NA
ATOM      9  N   UNL     1      10.297   3.857   4.325  0.00  0.00    -0.056 NA
ATOM     16  C   UNL     1      10.633   5.798   5.315  0.00  0.00    +0.245 A 
ATOM     20  C   UNL     1      10.890   4.763   3.542  0.00  0.00    +0.204 A 
BRANCH  20  24
ATOM     10  N   UNL     1      12.777   3.396   0.643  0.00  0.00    -0.221 NA
ATOM     24  C   UNL     1      11.266   4.483   2.186  0.00  0.00    +0.041 A 
ATOM     26  C   UNL     1      10.534   4.995   1.121  0.00  0.00    +0.018 A 
ATOM     27  C   UNL     1      12.369   3.697   1.897  0.00  0.00    +0.126 A 
ATOM     28  C   UNL     1      10.922   4.707  -0.183  0.00  0.00    +0.068 A 
ATOM     29  C   UNL     1      12.041   3.911  -0.366  0.00  0.00    +0.215 A 
BRANCH  29   5
ATOM      5  O   UNL     1      12.443   3.614  -1.642  0.00  0.00    -0.474 OA
BRANCH   5  30
ATOM     30  C   UNL     1      12.001   2.372  -2.179  0.00  0.00    +0.258 C 
BRANCH  30  31
ATOM     31  C   UNL     1      11.133   2.640  -3.393  0.00  0.00    +0.200 C 
BRANCH  31   6
ATOM      6  O   UNL     1       9.802   2.901  -2.964  0.00  0.00    -0.380 OA
ATOM     32  C   UNL     1       9.283   4.080  -3.564  0.00  0.00    +0.194 C 
ENDBRANCH  31   6
ENDBRANCH  30  31
ENDBRANCH   5  30
ENDBRANCH  29   5
ENDBRANCH  20  24
ENDBRANCH  11  16
BRANCH   7  15
ATOM     15  C   UNL     1       9.716   8.878   5.581  0.00  0.00    +0.120 C 
BRANCH  15  17
ATOM     17  C   UNL     1       8.613   9.179   4.602  0.00  0.00    -0.033 A 
ATOM     18  C   UNL     1       8.676   8.673   3.304  0.00  0.00    +0.007 A 
ATOM     19  C   UNL     1       7.528   9.965   4.991  0.00  0.00    +0.007 A 
ATOM     21  C   UNL     1       7.654   8.952   2.396  0.00  0.00    +0.027 A 
ATOM     22  C   UNL     1       6.507  10.244   4.084  0.00  0.00    +0.027 A 
ATOM     23  C   UNL     1       6.570   9.737   2.786  0.00  0.00    +0.088 A 
BRANCH  23   1
ATOM      1  S   UNL     1       5.289  10.083   1.650  0.00  0.00    -0.006 S 
ATOM      3  O   UNL     1       5.647   9.529   0.352  0.00  0.00    -0.170 OA
ATOM      4  O   UNL     1       4.027   9.709   2.272  0.00  0.00    -0.170 OA
ATOM     25  C   UNL     1       5.312  11.853   1.482  0.00  0.00    +0.200 C 
ENDBRANCH  23   1
ENDBRANCH  15  17
ENDBRANCH   7  15
TORSDOF 9
ENDMDL
MODEL 5
REMARK VINA RESULT:      -6.4     14.915     17.744
REMARK  Name = 45783574
REMARK  11 active torsions:
REMARK  status: ('A' for Active; 'I' for Inactive)
REMARK    1  A    between atoms: S_1  and  C_23
REMARK    2  A    between atoms: S_1  and  C_25
REMARK    3  A    between atoms: O_5  and  C_29
REMARK    4  A    between atoms: O_5  and  C_30
REMARK    5  A    between atoms: O_6  and  C_31
REMARK    6  A    between atoms: O_6  and  C_32
REMARK    7  A    between atoms: N_7  and  C_15
REMARK    8  A    between atoms: C_11  and  C_16
REMARK    9  A    between atoms: C_15  and  C_17
REMARK   10  A    between atoms: C_20  and  C_24
REMARK   11  A    between atoms: C_30  and  C_31
REMARK                            x       y       z     vdW  Elec       q    Type
REMARK                         _______ _______ _______ _____ _____    ______ ____
ROOT
ATOM      7  N   UNL     1       9.939   6.573   5.685  0.00  0.00    -0.287 NA
ATOM     11  C   UNL     1      10.635   7.663   6.398  0.00  0.00    +0.146 C 
ATOM     12  C   UNL     1      10.093   7.599   7.837  0.00  0.00    +0.030 C 
ATOM     13  C   UNL     1       9.055   6.485   7.822  0.00  0.00    +0.017 C 
ATOM     14  C   UNL     1       8.656   6.390   6.363  0.00  0.00    +0.085 C 
ENDROOT
BRANCH  11  16
ATOM      2  O   UNL     1      12.711   6.670   7.219  0.00  0.00    -0.336 OA
ATOM      8  N   UNL     1      12.997   8.129   5.544  0.00  0.00    -0.190 NA
ATOM      9  N   UNL     1      14.090   6.717   6.974  0.00  0.00    -0.056 NA
ATOM     16  C   UNL     1      12.142   7.529   6.335  0.00  0.00    +0.245 A 
ATOM     20  C   UNL     1      14.178   7.598   5.973  0.00  0.00    +0.204 A 
BRANCH  20  24
ATOM     10  N   UNL     1      16.894   7.944   3.456  0.00  0.00    -0.221 NA
ATOM     24  C   UNL     1      15.431   7.970   5.380  0.00  0.00    +0.041 A 
ATOM     26  C   UNL     1      16.380   8.684   6.102  0.00  0.00    +0.018 A 
ATOM     27  C   UNL     1      15.733   7.627   4.073  0.00  0.00    +0.126 A 
ATOM     28  C   UNL     1      17.586   9.030   5.502  0.00  0.00    +0.068 A 
ATOM     29  C   UNL     1      17.792   8.639   4.189  0.00  0.00    +0.215 A 
BRANCH  29   5
ATOM      5  O   UNL     1      18.972   8.968   3.576  0.00  0.00    -0.474 OA
BRANCH   5  30
ATOM     30  C   UNL     1      19.730   7.895   3.029  0.00  0.00    +0.258 C 
BRANCH  30  31
ATOM     31  C   UNL     1      21.014   7.742   3.821  0.00  0.00    +0.200 C 
BRANCH  31   6
ATOM      6  O   UNL     1      20.754   6.967   4.984  0.00  0.00    -0.380 OA
ATOM     32  C   UNL     1      21.025   7.700   6.170  0.00  0.00    +0.194 C 
ENDBRANCH  31   6
ENDBRANCH  30  31
ENDBRANCH   5  30
ENDBRANCH  29   5
ENDBRANCH  20  24
ENDBRANCH  11  16
BRANCH   7  15
ATOM     15  C   UNL     1       9.775   6.831   4.260  0.00  0.00    +0.120 C 
BRANCH  15  17
ATOM     17  C   UNL     1      10.760   6.050   3.433  0.00  0.00    -0.033 A 
ATOM     18  C   UNL     1      11.825   6.706   2.814  0.00  0.00    +0.007 A 
ATOM     19  C   UNL     1      10.609   4.672   3.283  0.00  0.00    +0.007 A 
ATOM     21  C   UNL     1      12.738   5.982   2.047  0.00  0.00    +0.027 A 
ATOM     22  C   UNL     1      11.521   3.948   2.516  0.00  0.00    +0.027 A 
ATOM     23  C   UNL     1      12.586   4.604   1.897  0.00  0.00    +0.088 A 
BRANCH  23   1
ATOM      1  S   UNL     1      13.732   3.698   0.940  0.00  0.00    -0.006 S 
ATOM      3  O   UNL     1      14.693   3.064   1.830  0.00  0.00    -0.170 OA
ATOM      4  O   UNL     1      12.980   2.887  -0.008  0.00  0.00    -0.170 OA
ATOM     25  C   UNL     1      14.616   4.935   0.019  0.00  0.00    +0.200 C 
ENDBRANCH  23   1
ENDBRANCH  15  17
ENDBRANCH   7  15
TORSDOF 9
ENDMDL
MODEL 6
REMARK VINA RESULT:      -6.4     27.751     30.196
REMARK  Name = 45783574
REMARK  11 active torsions:
REMARK  status: ('A' for Active; 'I' for Inactive)
REMARK    1  A    between atoms: S_1  and  C_23
REMARK    2  A    between atoms: S_1  and  C_25
REMARK    3  A    between atoms: O_5  and  C_29
REMARK    4  A    between atoms: O_5  and  C_30
REMARK    5  A    between atoms: O_6  and  C_31
REMARK    6  A    between atoms: O_6  and  C_32
REMARK    7  A    between atoms: N_7  and  C_15
REMARK    8  A    between atoms: C_11  and  C_16
REMARK    9  A    between atoms: C_15  and  C_17
REMARK   10  A    between atoms: C_20  and  C_24
REMARK   11  A    between atoms: C_30  and  C_31
REMARK                            x       y       z     vdW  Elec       q    Type
REMARK                         _______ _______ _______ _____ _____    ______ ____
ROOT
ATOM      7  N   UNL     1     -10.109 -12.063  19.233  0.00  0.00    -0.287 NA
ATOM     11  C   UNL     1      -8.855 -12.435  19.918  0.00  0.00    +0.146 C 
ATOM     12  C   UNL     1      -8.793 -13.970  19.816  0.00  0.00    +0.030 C 
ATOM     13  C   UNL     1     -10.083 -14.374  19.115  0.00  0.00    +0.017 C 
ATOM     14  C   UNL     1     -11.012 -13.206  19.376  0.00  0.00    +0.085 C 
ENDROOT
BRANCH  11  16
ATOM      2  O   UNL     1      -7.063 -10.778  20.053  0.00  0.00    -0.336 OA
ATOM      8  N   UNL     1      -7.053 -11.984  18.165  0.00  0.00    -0.190 NA
ATOM      9  N   UNL     1      -5.978 -10.312  19.298  0.00  0.00    -0.056 NA
ATOM     16  C   UNL     1      -7.641 -11.761  19.314  0.00  0.00    +0.245 A 
ATOM     20  C   UNL     1      -6.039 -11.072  18.200  0.00  0.00    +0.204 A 
BRANCH  20  24
ATOM     10  N   UNL     1      -4.699 -10.582  14.766  0.00  0.00    -0.221 NA
ATOM     24  C   UNL     1      -5.101 -10.944  17.122  0.00  0.00    +0.041 A 
ATOM     26  C   UNL     1      -3.734 -11.054  17.346  0.00  0.00    +0.018 A 
ATOM     27  C   UNL     1      -5.529 -10.710  15.826  0.00  0.00    +0.126 A 
ATOM     28  C   UNL     1      -2.848 -10.927  16.282  0.00  0.00    +0.068 A 
ATOM     29  C   UNL     1      -3.377 -10.694  15.023  0.00  0.00    +0.215 A 
BRANCH  29   5
ATOM      5  O   UNL     1      -2.525 -10.565  13.958  0.00  0.00    -0.474 OA
BRANCH   5  30
ATOM     30  C   UNL     1      -2.888 -11.245  12.762  0.00  0.00    +0.258 C 
BRANCH  30  31
ATOM     31  C   UNL     1      -2.466 -10.407  11.570  0.00  0.00    +0.200 C 
BRANCH  31   6
ATOM      6  O   UNL     1      -3.527 -10.380  10.622  0.00  0.00    -0.380 OA
ATOM     32  C   UNL     1      -3.509  -9.184   9.854  0.00  0.00    +0.194 C 
ENDBRANCH  31   6
ENDBRANCH  30  31
ENDBRANCH   5  30
ENDBRANCH  29   5
ENDBRANCH  20  24
ENDBRANCH  11  16
BRANCH   7  15
ATOM     15  C   UNL     1     -10.699 -10.832  19.743  0.00  0.00    +0.120 C 
BRANCH  15  17
ATOM     17  C   UNL     1     -11.007  -9.859  18.637  0.00  0.00    -0.033 A 
ATOM     18  C   UNL     1      -9.976  -9.133  18.040  0.00  0.00    +0.007 A 
ATOM     19  C   UNL     1     -12.322  -9.683  18.208  0.00  0.00    +0.007 A 
ATOM     21  C   UNL     1     -10.262  -8.231  17.014  0.00  0.00    +0.027 A 
ATOM     22  C   UNL     1     -12.609  -8.782  17.183  0.00  0.00    +0.027 A 
ATOM     23  C   UNL     1     -11.578  -8.055  16.586  0.00  0.00    +0.088 A 
BRANCH  23   1
ATOM      1  S   UNL     1     -11.935  -6.929  15.299  0.00  0.00    -0.006 S 
ATOM      3  O   UNL     1     -11.191  -5.699  15.531  0.00  0.00    -0.170 OA
ATOM      4  O   UNL     1     -11.789  -7.635  14.034  0.00  0.00    -0.170 OA
ATOM     25  C   UNL     1     -13.657  -6.542  15.515  0.00  0.00    +0.200 C 
ENDBRANCH  23   1
ENDBRANCH  15  17
ENDBRANCH   7  15
TORSDOF 9
ENDMDL
MODEL 7
REMARK VINA RESULT:      -6.3     14.358     17.310
REMARK  Name = 45783574
REMARK  11 active torsions:
REMARK  status: ('A' for Active; 'I' for Inactive)
REMARK    1  A    between atoms: S_1  and  C_23
REMARK    2  A    between atoms: S_1  and  C_25
REMARK    3  A    between atoms: O_5  and  C_29
REMARK    4  A    between atoms: O_5  and  C_30
REMARK    5  A    between atoms: O_6  and  C_31
REMARK    6  A    between atoms: O_6  and  C_32
REMARK    7  A    between atoms: N_7  and  C_15
REMARK    8  A    between atoms: C_11  and  C_16
REMARK    9  A    between atoms: C_15  and  C_17
REMARK   10  A    between atoms: C_20  and  C_24
REMARK   11  A    between atoms: C_30  and  C_31
REMARK                            x       y       z     vdW  Elec       q    Type
REMARK                         _______ _______ _______ _____ _____    ______ ____
ROOT
ATOM      7  N   UNL     1      10.117   5.314   6.310  0.00  0.00    -0.287 NA
ATOM     11  C   UNL     1       9.870   6.444   7.228  0.00  0.00    +0.146 C 
ATOM     12  C   UNL     1       9.749   5.798   8.621  0.00  0.00    +0.030 C 
ATOM     13  C   UNL     1       9.880   4.301   8.378  0.00  0.00    +0.017 C 
ATOM     14  C   UNL     1       9.491   4.141   6.922  0.00  0.00    +0.085 C 
ENDROOT
BRANCH  11  16
ATOM      2  O   UNL     1      10.652   8.717   7.670  0.00  0.00    -0.336 OA
ATOM      8  N   UNL     1      12.173   7.401   6.683  0.00  0.00    -0.190 NA
ATOM      9  N   UNL     1      11.797   9.506   7.499  0.00  0.00    -0.056 NA
ATOM     16  C   UNL     1      10.959   7.494   7.164  0.00  0.00    +0.245 A 
ATOM     20  C   UNL     1      12.649   8.660   6.912  0.00  0.00    +0.204 A 
BRANCH  20  24
ATOM     10  N   UNL     1      16.173   8.391   5.753  0.00  0.00    -0.221 NA
ATOM     24  C   UNL     1      13.982   9.041   6.541  0.00  0.00    +0.041 A 
ATOM     26  C   UNL     1      14.389  10.369   6.601  0.00  0.00    +0.018 A 
ATOM     27  C   UNL     1      14.903   8.099   6.115  0.00  0.00    +0.126 A 
ATOM     28  C   UNL     1      15.687  10.709   6.236  0.00  0.00    +0.068 A 
ATOM     29  C   UNL     1      16.532   9.692   5.823  0.00  0.00    +0.215 A 
BRANCH  29   5
ATOM      5  O   UNL     1      17.816  10.002   5.459  0.00  0.00    -0.474 OA
BRANCH   5  30
ATOM     30  C   UNL     1      18.507   9.040   4.671  0.00  0.00    +0.258 C 
BRANCH  30  31
ATOM     31  C   UNL     1      19.856   8.759   5.304  0.00  0.00    +0.200 C 
BRANCH  31   6
ATOM      6  O   UNL     1      19.656   8.167   6.582  0.00  0.00    -0.380 OA
ATOM     32  C   UNL     1      20.428   8.815   7.583  0.00  0.00    +0.194 C 
ENDBRANCH  31   6
ENDBRANCH  30  31
ENDBRANCH   5  30
ENDBRANCH  29   5
ENDBRANCH  20  24
ENDBRANCH  11  16
BRANCH   7  15
ATOM     15  C   UNL     1       9.627   5.554   4.959  0.00  0.00    +0.120 C 
BRANCH  15  17
ATOM     17  C   UNL     1      10.660   5.209   3.920  0.00  0.00    -0.033 A 
ATOM     18  C   UNL     1      11.596   6.164   3.524  0.00  0.00    +0.007 A 
ATOM     19  C   UNL     1      10.683   3.935   3.353  0.00  0.00    +0.007 A 
ATOM     21  C   UNL     1      12.554   5.844   2.561  0.00  0.00    +0.027 A 
ATOM     22  C   UNL     1      11.639   3.615   2.391  0.00  0.00    +0.027 A 
ATOM     23  C   UNL     1      12.576   4.571   1.994  0.00  0.00    +0.088 A 
BRANCH  23   1
ATOM      1  S   UNL     1      13.777   4.170   0.792  0.00  0.00    -0.006 S 
ATOM      3  O   UNL     1      14.277   5.401   0.196  0.00  0.00    -0.170 OA
ATOM      4  O   UNL     1      14.710   3.226   1.389  0.00  0.00    -0.170 OA
ATOM     25  C   UNL     1      12.868   3.313  -0.474  0.00  0.00    +0.200 C 
ENDBRANCH  23   1
ENDBRANCH  15  17
ENDBRANCH   7  15
TORSDOF 9
ENDMDL
MODEL 8
REMARK VINA RESULT:      -6.3      2.074      2.405
REMARK  Name = 45783574
REMARK  11 active torsions:
REMARK  status: ('A' for Active; 'I' for Inactive)
REMARK    1  A    between atoms: S_1  and  C_23
REMARK    2  A    between atoms: S_1  and  C_25
REMARK    3  A    between atoms: O_5  and  C_29
REMARK    4  A    between atoms: O_5  and  C_30
REMARK    5  A    between atoms: O_6  and  C_31
REMARK    6  A    between atoms: O_6  and  C_32
REMARK    7  A    between atoms: N_7  and  C_15
REMARK    8  A    between atoms: C_11  and  C_16
REMARK    9  A    between atoms: C_15  and  C_17
REMARK   10  A    between atoms: C_20  and  C_24
REMARK   11  A    between atoms: C_30  and  C_31
REMARK                            x       y       z     vdW  Elec       q    Type
REMARK                         _______ _______ _______ _____ _____    ______ ____
ROOT
ATOM      7  N   UNL     1      13.876   8.339  19.809  0.00  0.00    -0.287 NA
ATOM     11  C   UNL     1      14.305   7.224  18.941  0.00  0.00    +0.146 C 
ATOM     12  C   UNL     1      14.163   7.767  17.507  0.00  0.00    +0.030 C 
ATOM     13  C   UNL     1      13.589   9.168  17.667  0.00  0.00    +0.017 C 
ATOM     14  C   UNL     1      12.923   9.127  19.028  0.00  0.00    +0.085 C 
ENDROOT
BRANCH  11  16
ATOM      2  O   UNL     1      16.236   5.822  18.413  0.00  0.00    -0.336 OA
ATOM      8  N   UNL     1      16.512   7.116  20.221  0.00  0.00    -0.190 NA
ATOM      9  N   UNL     1      17.523   5.549  18.895  0.00  0.00    -0.056 NA
ATOM     16  C   UNL     1      15.711   6.754  19.250  0.00  0.00    +0.245 A 
ATOM     20  C   UNL     1      17.611   6.349  19.962  0.00  0.00    +0.204 A 
BRANCH  20  24
ATOM     10  N   UNL     1      21.059   5.704  21.198  0.00  0.00    -0.221 NA
ATOM     24  C   UNL     1      18.783   6.408  20.788  0.00  0.00    +0.041 A 
ATOM     26  C   UNL     1      18.807   7.184  21.941  0.00  0.00    +0.018 A 
ATOM     27  C   UNL     1      19.924   5.693  20.463  0.00  0.00    +0.126 A 
ATOM     28  C   UNL     1      19.956   7.222  22.722  0.00  0.00    +0.068 A 
ATOM     29  C   UNL     1      21.045   6.470  22.312  0.00  0.00    +0.215 A 
BRANCH  29   5
ATOM      5  O   UNL     1      22.189   6.490  23.065  0.00  0.00    -0.474 OA
BRANCH   5  30
ATOM     30  C   UNL     1      22.275   5.542  24.123  0.00  0.00    +0.258 C 
BRANCH  30  31
ATOM     31  C   UNL     1      22.314   6.281  25.447  0.00  0.00    +0.200 C 
BRANCH  31   6
ATOM      6  O   UNL     1      23.133   7.436  25.310  0.00  0.00    -0.380 OA
ATOM     32  C   UNL     1      24.495   7.145  25.591  0.00  0.00    +0.194 C 
ENDBRANCH  31   6
ENDBRANCH  30  31
ENDBRANCH   5  30
ENDBRANCH  29   5
ENDBRANCH  20  24
ENDBRANCH  11  16
BRANCH   7  15
ATOM     15  C   UNL     1      13.311   7.895  21.077  0.00  0.00    +0.120 C 
BRANCH  15  17
ATOM     17  C   UNL     1      12.854   9.053  21.922  0.00  0.00    -0.033 A 
ATOM     18  C   UNL     1      13.772  10.019  22.337  0.00  0.00    +0.007 A 
ATOM     19  C   UNL     1      11.513   9.163  22.291  0.00  0.00    +0.007 A 
ATOM     21  C   UNL     1      13.348  11.093  23.120  0.00  0.00    +0.027 A 
ATOM     22  C   UNL     1      11.090  10.236  23.074  0.00  0.00    +0.027 A 
ATOM     23  C   UNL     1      12.008  11.201  23.489  0.00  0.00    +0.088 A 
BRANCH  23   1
ATOM      1  S   UNL     1      11.477  12.548  24.466  0.00  0.00    -0.006 S 
ATOM      3  O   UNL     1      10.543  12.061  25.472  0.00  0.00    -0.170 OA
ATOM      4  O   UNL     1      12.658  13.294  24.878  0.00  0.00    -0.170 OA
ATOM     25  C   UNL     1      10.548  13.569  23.346  0.00  0.00    +0.200 C 
ENDBRANCH  23   1
ENDBRANCH  15  17
ENDBRANCH   7  15
TORSDOF 9
ENDMDL
MODEL 9
REMARK VINA RESULT:      -6.3     27.929     31.297
REMARK  Name = 45783574
REMARK  11 active torsions:
REMARK  status: ('A' for Active; 'I' for Inactive)
REMARK    1  A    between atoms: S_1  and  C_23
REMARK    2  A    between atoms: S_1  and  C_25
REMARK    3  A    between atoms: O_5  and  C_29
REMARK    4  A    between atoms: O_5  and  C_30
REMARK    5  A    between atoms: O_6  and  C_31
REMARK    6  A    between atoms: O_6  and  C_32
REMARK    7  A    between atoms: N_7  and  C_15
REMARK    8  A    between atoms: C_11  and  C_16
REMARK    9  A    between atoms: C_15  and  C_17
REMARK   10  A    between atoms: C_20  and  C_24
REMARK   11  A    between atoms: C_30  and  C_31
REMARK                            x       y       z     vdW  Elec       q    Type
REMARK                         _______ _______ _______ _____ _____    ______ ____
ROOT
ATOM      7  N   UNL     1      -7.814 -11.213  19.616  0.00  0.00    -0.287 NA
ATOM     11  C   UNL     1      -8.467 -11.401  18.304  0.00  0.00    +0.146 C 
ATOM     12  C   UNL     1      -9.024 -12.836  18.347  0.00  0.00    +0.030 C 
ATOM     13  C   UNL     1      -8.583 -13.395  19.692  0.00  0.00    +0.017 C 
ATOM     14  C   UNL     1      -7.386 -12.540  20.058  0.00  0.00    +0.085 C 
ENDROOT
BRANCH  11  16
ATOM      2  O   UNL     1     -10.515 -10.247  18.972  0.00  0.00    -0.336 OA
ATOM      8  N   UNL     1      -9.671  -9.555  17.015  0.00  0.00    -0.190 NA
ATOM      9  N   UNL     1     -11.377  -9.244  18.508  0.00  0.00    -0.056 NA
ATOM     16  C   UNL     1      -9.539 -10.366  18.035  0.00  0.00    +0.245 A 
ATOM     20  C   UNL     1     -10.812  -8.886  17.351  0.00  0.00    +0.204 A 
BRANCH  20  24
ATOM     10  N   UNL     1     -13.269  -6.972  15.318  0.00  0.00    -0.221 NA
ATOM     24  C   UNL     1     -11.363  -7.865  16.507  0.00  0.00    +0.041 A 
ATOM     26  C   UNL     1     -10.579  -6.807  16.061  0.00  0.00    +0.018 A 
ATOM     27  C   UNL     1     -12.690  -7.901  16.112  0.00  0.00    +0.126 A 
ATOM     28  C   UNL     1     -11.140  -5.831  15.244  0.00  0.00    +0.068 A 
ATOM     29  C   UNL     1     -12.477  -5.959  14.904  0.00  0.00    +0.215 A 
BRANCH  29   5
ATOM      5  O   UNL     1     -13.052  -5.010  14.100  0.00  0.00    -0.474 OA
BRANCH   5  30
ATOM     30  C   UNL     1     -12.613  -4.968  12.747  0.00  0.00    +0.258 C 
BRANCH  30  31
ATOM     31  C   UNL     1     -12.361  -3.524  12.354  0.00  0.00    +0.200 C 
BRANCH  31   6
ATOM      6  O   UNL     1     -12.684  -3.353  10.980  0.00  0.00    -0.380 OA
ATOM     32  C   UNL     1     -11.649  -3.842  10.137  0.00  0.00    +0.194 C 
ENDBRANCH  31   6
ENDBRANCH  30  31
ENDBRANCH   5  30
ENDBRANCH  29   5
ENDBRANCH  20  24
ENDBRANCH  11  16
BRANCH   7  15
ATOM     15  C   UNL     1      -6.708 -10.264  19.577  0.00  0.00    +0.120 C 
BRANCH  15  17
ATOM     17  C   UNL     1      -5.747 -10.573  18.461  0.00  0.00    -0.033 A 
ATOM     18  C   UNL     1      -4.683 -11.449  18.679  0.00  0.00    +0.007 A 
ATOM     19  C   UNL     1      -5.917  -9.982  17.209  0.00  0.00    +0.007 A 
ATOM     21  C   UNL     1      -3.792 -11.735  17.645  0.00  0.00    +0.027 A 
ATOM     22  C   UNL     1      -5.026 -10.267  16.175  0.00  0.00    +0.027 A 
ATOM     23  C   UNL     1      -3.962 -11.144  16.393  0.00  0.00    +0.088 A 
BRANCH  23   1
ATOM      1  S   UNL     1      -2.848 -11.505  15.098  0.00  0.00    -0.006 S 
ATOM      3  O   UNL     1      -1.542 -10.955  15.433  0.00  0.00    -0.170 OA
ATOM      4  O   UNL     1      -2.976 -12.919  14.779  0.00  0.00    -0.170 OA
ATOM     25  C   UNL     1      -3.463 -10.574  13.713  0.00  0.00    +0.200 C 
ENDBRANCH  23   1
ENDBRANCH  15  17
ENDBRANCH   7  15
TORSDOF 9
ENDMDL
MODEL 10
REMARK VINA RESULT:      -6.3     15.939     19.657
REMARK  Name = 45783574
REMARK  11 active torsions:
REMARK  status: ('A' for Active; 'I' for Inactive)
REMARK    1  A    between atoms: S_1  and  C_23
REMARK    2  A    between atoms: S_1  and  C_25
REMARK    3  A    between atoms: O_5  and  C_29
REMARK    4  A    between atoms: O_5  and  C_30
REMARK    5  A    between atoms: O_6  and  C_31
REMARK    6  A    between atoms: O_6  and  C_32
REMARK    7  A    between atoms: N_7  and  C_15
REMARK    8  A    between atoms: C_11  and  C_16
REMARK    9  A    between atoms: C_15  and  C_17
REMARK   10  A    between atoms: C_20  and  C_24
REMARK   11  A    between atoms: C_30  and  C_31
REMARK                            x       y       z     vdW  Elec       q    Type
REMARK                         _______ _______ _______ _____ _____    ______ ____
ROOT
ATOM      7  N   UNL     1       9.439   7.504   7.275  0.00  0.00    -0.287 NA
ATOM     11  C   UNL     1      10.825   6.994   7.227  0.00  0.00    +0.146 C 
ATOM     12  C   UNL     1      10.807   5.730   8.105  0.00  0.00    +0.030 C 
ATOM     13  C   UNL     1       9.389   5.645   8.653  0.00  0.00    +0.017 C 
ATOM     14  C   UNL     1       8.885   7.071   8.558  0.00  0.00    +0.085 C 
ENDROOT
BRANCH  11  16
ATOM      2  O   UNL     1      12.439   7.333   5.423  0.00  0.00    -0.336 OA
ATOM      8  N   UNL     1      10.751   5.959   4.893  0.00  0.00    -0.190 NA
ATOM      9  N   UNL     1      12.665   6.930   4.101  0.00  0.00    -0.056 NA
ATOM     16  C   UNL     1      11.293   6.716   5.814  0.00  0.00    +0.245 A 
ATOM     20  C   UNL     1      11.628   6.122   3.861  0.00  0.00    +0.204 A 
BRANCH  20  24
ATOM     10  N   UNL     1      10.076   5.106   0.637  0.00  0.00    -0.221 NA
ATOM     24  C   UNL     1      11.440   5.461   2.601  0.00  0.00    +0.041 A 
ATOM     26  C   UNL     1      12.385   4.564   2.116  0.00  0.00    +0.018 A 
ATOM     27  C   UNL     1      10.313   5.696   1.831  0.00  0.00    +0.126 A 
ATOM     28  C   UNL     1      12.177   3.939   0.891  0.00  0.00    +0.068 A 
ATOM     29  C   UNL     1      11.016   4.241   0.198  0.00  0.00    +0.215 A 
BRANCH  29   5
ATOM      5  O   UNL     1      10.788   3.637  -1.010  0.00  0.00    -0.474 OA
BRANCH   5  30
ATOM     30  C   UNL     1      11.913   3.052  -1.656  0.00  0.00    +0.258 C 
BRANCH  30  31
ATOM     31  C   UNL     1      11.441   2.301  -2.887  0.00  0.00    +0.200 C 
BRANCH  31   6
ATOM      6  O   UNL     1      10.056   2.006  -2.749  0.00  0.00    -0.380 OA
ATOM     32  C   UNL     1       9.355   2.218  -3.966  0.00  0.00    +0.194 C 
ENDBRANCH  31   6
ENDBRANCH  30  31
ENDBRANCH   5  30
ENDBRANCH  29   5
ENDBRANCH  20  24
ENDBRANCH  11  16
BRANCH   7  15
ATOM     15  C   UNL     1       9.352   8.948   7.099  0.00  0.00    +0.120 C 
BRANCH  15  17
ATOM     17  C   UNL     1       8.629   9.314   5.831  0.00  0.00    -0.033 A 
ATOM     18  C   UNL     1       8.475  10.656   5.480  0.00  0.00    +0.007 A 
ATOM     19  C   UNL     1       8.112   8.315   5.008  0.00  0.00    +0.007 A 
ATOM     21  C   UNL     1       7.804  10.996   4.304  0.00  0.00    +0.027 A 
ATOM     22  C   UNL     1       7.441   8.654   3.833  0.00  0.00    +0.027 A 
ATOM     23  C   UNL     1       7.287   9.995   3.482  0.00  0.00    +0.088 A 
BRANCH  23   1
ATOM      1  S   UNL     1       6.451  10.421   2.009  0.00  0.00    -0.006 S 
ATOM      3  O   UNL     1       6.615  11.848   1.769  0.00  0.00    -0.170 OA
ATOM      4  O   UNL     1       6.840   9.466   0.982  0.00  0.00    -0.170 OA
ATOM     25  C   UNL     1       4.733  10.153   2.382  0.00  0.00    +0.200 C 
ENDBRANCH  23   1
ENDBRANCH  15  17
ENDBRANCH   7  15
TORSDOF 9
ENDMDL
