MODEL 1
REMARK VINA RESULT:      -6.7      0.000      0.000
REMARK  Name = 75367644
REMARK  6 active torsions:
REMARK  status: ('A' for Active; 'I' for Inactive)
REMARK    1  A    between atoms: O_5  and  C_10
REMARK    2  A    between atoms: O_5  and  C_17
REMARK    3  A    between atoms: N_8  and  C_16
REMARK    4  A    between atoms: C_16  and  C_18
REMARK    5  A    between atoms: C_18  and  C_20
REMARK    6  A    between atoms: C_22  and  C_24
REMARK                            x       y       z     vdW  Elec       q    Type
REMARK                         _______ _______ _______ _____ _____    ______ ____
ROOT
ATOM      4  O   UNL     1      13.018   8.949  17.003  0.00  0.00    -0.375 OA
ATOM      6  O   UNL     1      12.485   7.376  21.949  0.00  0.00    -0.253 OA
ATOM      7  N   UNL     1      12.044   7.924  19.725  0.00  0.00    -0.280 N 
ATOM      8  N   UNL     1      11.050   9.121  21.510  0.00  0.00    -0.299 N 
ATOM     10  C   UNL     1      14.197   7.458  18.570  0.00  0.00    +0.218 C 
ATOM     11  C   UNL     1      12.947   6.880  19.233  0.00  0.00    +0.156 C 
ATOM     12  C   UNL     1      11.346   8.777  18.751  0.00  0.00    +0.137 C 
ATOM     13  C   UNL     1      13.962   7.894  17.127  0.00  0.00    +0.206 C 
ATOM     14  C   UNL     1      11.679   8.553  17.281  0.00  0.00    +0.179 C 
ATOM     15  C   UNL     1      11.903   8.088  21.126  0.00  0.00    +0.302 C 
ATOM     25  H   UNL     1      10.573   9.679  20.813  0.00  0.00    +0.150 HD
ENDROOT
BRANCH  10   5
ATOM      5  O   UNL     1      15.204   6.449  18.581  0.00  0.00    -0.469 OA
BRANCH   5  17
ATOM      9  N   UNL     1      16.194   7.692  20.270  0.00  0.00    -0.221 NA
ATOM     17  C   UNL     1      16.287   6.672  19.386  0.00  0.00    +0.215 A 
ATOM     19  C   UNL     1      17.399   5.856  19.259  0.00  0.00    +0.068 A 
ATOM     21  C   UNL     1      18.486   6.102  20.090  0.00  0.00    +0.019 A 
ATOM     22  C   UNL     1      18.430   7.143  21.010  0.00  0.00    +0.073 A 
ATOM     23  C   UNL     1      17.271   7.902  21.060  0.00  0.00    +0.127 A 
BRANCH  22  24
ATOM      1  F   UNL     1      19.271   8.286  22.936  0.00  0.00    -0.166 F 
ATOM      2  F   UNL     1      20.090   6.321  22.522  0.00  0.00    -0.166 F 
ATOM      3  F   UNL     1      20.630   8.009  21.261  0.00  0.00    -0.166 F 
ATOM     24  C   UNL     1      19.576   7.432  21.912  0.00  0.00    +0.419 C 
ENDBRANCH  22  24
ENDBRANCH   5  17
ENDBRANCH  10   5
BRANCH   8  16
ATOM     16  C   UNL     1      10.774   9.447  22.893  0.00  0.00    +0.105 C 
BRANCH  16  18
ATOM     18  C   UNL     1      11.007  10.921  23.199  0.00  0.00    +0.015 C 
ATOM     20  C   UNL     1      11.401  11.723  21.966  0.00  0.00    +0.005 C 
ENDBRANCH  16  18
ENDBRANCH   8  16
TORSDOF 5
ENDMDL
MODEL 2
REMARK VINA RESULT:      -6.4      2.818      4.580
REMARK  Name = 75367644
REMARK  6 active torsions:
REMARK  status: ('A' for Active; 'I' for Inactive)
REMARK    1  A    between atoms: O_5  and  C_10
REMARK    2  A    between atoms: O_5  and  C_17
REMARK    3  A    between atoms: N_8  and  C_16
REMARK    4  A    between atoms: C_16  and  C_18
REMARK    5  A    between atoms: C_18  and  C_20
REMARK    6  A    between atoms: C_22  and  C_24
REMARK                            x       y       z     vdW  Elec       q    Type
REMARK                         _______ _______ _______ _____ _____    ______ ____
ROOT
ATOM      4  O   UNL     1      12.006   7.178  17.426  0.00  0.00    -0.375 OA
ATOM      6  O   UNL     1      14.935  11.493  17.581  0.00  0.00    -0.253 OA
ATOM      7  N   UNL     1      13.129  10.033  17.371  0.00  0.00    -0.280 N 
ATOM      8  N   UNL     1      13.906  11.304  15.531  0.00  0.00    -0.299 N 
ATOM     10  C   UNL     1      13.705   8.166  18.911  0.00  0.00    +0.218 C 
ATOM     11  C   UNL     1      13.236   9.615  18.772  0.00  0.00    +0.156 C 
ATOM     12  C   UNL     1      12.086   9.429  16.528  0.00  0.00    +0.137 C 
ATOM     13  C   UNL     1      12.579   7.153  18.726  0.00  0.00    +0.206 C 
ATOM     14  C   UNL     1      11.230   8.344  17.167  0.00  0.00    +0.179 C 
ATOM     15  C   UNL     1      14.057  10.983  16.879  0.00  0.00    +0.302 C 
ATOM     25  H   UNL     1      13.167  10.882  14.983  0.00  0.00    +0.150 HD
ENDROOT
BRANCH  10   5
ATOM      5  O   UNL     1      14.247   8.006  20.221  0.00  0.00    -0.469 OA
BRANCH   5  17
ATOM      9  N   UNL     1      16.297   8.002  21.305  0.00  0.00    -0.221 NA
ATOM     17  C   UNL     1      15.526   7.528  20.300  0.00  0.00    +0.215 A 
ATOM     19  C   UNL     1      15.956   6.599  19.365  0.00  0.00    +0.068 A 
ATOM     21  C   UNL     1      17.260   6.128  19.469  0.00  0.00    +0.019 A 
ATOM     22  C   UNL     1      18.084   6.593  20.488  0.00  0.00    +0.073 A 
ATOM     23  C   UNL     1      17.559   7.521  21.373  0.00  0.00    +0.127 A 
BRANCH  22  24
ATOM      1  F   UNL     1      20.418   6.982  20.144  0.00  0.00    -0.166 F 
ATOM      2  F   UNL     1      19.858   5.864  21.916  0.00  0.00    -0.166 F 
ATOM      3  F   UNL     1      19.704   4.937  19.955  0.00  0.00    -0.166 F 
ATOM     24  C   UNL     1      19.483   6.107  20.623  0.00  0.00    +0.419 C 
ENDBRANCH  22  24
ENDBRANCH   5  17
ENDBRANCH  10   5
BRANCH   8  16
ATOM     16  C   UNL     1      14.754  12.253  14.842  0.00  0.00    +0.105 C 
BRANCH  16  18
ATOM     18  C   UNL     1      15.824  11.570  13.999  0.00  0.00    +0.015 C 
ATOM     20  C   UNL     1      15.681  11.871  12.513  0.00  0.00    +0.005 C 
ENDBRANCH  16  18
ENDBRANCH   8  16
TORSDOF 5
ENDMDL
MODEL 3
REMARK VINA RESULT:      -6.0     29.322     32.177
REMARK  Name = 75367644
REMARK  6 active torsions:
REMARK  status: ('A' for Active; 'I' for Inactive)
REMARK    1  A    between atoms: O_5  and  C_10
REMARK    2  A    between atoms: O_5  and  C_17
REMARK    3  A    between atoms: N_8  and  C_16
REMARK    4  A    between atoms: C_16  and  C_18
REMARK    5  A    between atoms: C_18  and  C_20
REMARK    6  A    between atoms: C_22  and  C_24
REMARK                            x       y       z     vdW  Elec       q    Type
REMARK                         _______ _______ _______ _____ _____    ______ ____
ROOT
ATOM      4  O   UNL     1     -17.678   0.019  23.633  0.00  0.00    -0.375 OA
ATOM      6  O   UNL     1     -16.534   5.070  24.259  0.00  0.00    -0.253 OA
ATOM      7  N   UNL     1     -17.429   3.071  23.458  0.00  0.00    -0.280 N 
ATOM      8  N   UNL     1     -15.965   4.383  22.137  0.00  0.00    -0.299 N 
ATOM     10  C   UNL     1     -17.566   1.638  25.486  0.00  0.00    +0.218 C 
ATOM     11  C   UNL     1     -18.142   2.825  24.714  0.00  0.00    +0.156 C 
ATOM     12  C   UNL     1     -17.541   2.085  22.372  0.00  0.00    +0.137 C 
ATOM     13  C   UNL     1     -18.066   0.291  24.973  0.00  0.00    +0.206 C 
ATOM     14  C   UNL     1     -18.346   0.826  22.669  0.00  0.00    +0.179 C 
ATOM     15  C   UNL     1     -16.633   4.239  23.352  0.00  0.00    +0.302 C 
ATOM     25  H   UNL     1     -16.077   3.694  21.405  0.00  0.00    +0.150 HD
ENDROOT
BRANCH  10   5
ATOM      5  O   UNL     1     -17.954   1.775  26.851  0.00  0.00    -0.469 OA
BRANCH   5  17
ATOM      9  N   UNL     1     -16.696   0.680  28.462  0.00  0.00    -0.221 NA
ATOM     17  C   UNL     1     -16.945   1.817  27.774  0.00  0.00    +0.215 A 
ATOM     19  C   UNL     1     -16.244   2.999  27.950  0.00  0.00    +0.068 A 
ATOM     21  C   UNL     1     -15.222   3.016  28.893  0.00  0.00    +0.019 A 
ATOM     22  C   UNL     1     -14.937   1.866  29.622  0.00  0.00    +0.073 A 
ATOM     23  C   UNL     1     -15.696   0.735  29.371  0.00  0.00    +0.127 A 
BRANCH  22  24
ATOM      1  F   UNL     1     -12.932   2.852  30.475  0.00  0.00    -0.166 F 
ATOM      2  F   UNL     1     -14.298   1.992  31.924  0.00  0.00    -0.166 F 
ATOM      3  F   UNL     1     -13.131   0.693  30.628  0.00  0.00    -0.166 F 
ATOM     24  C   UNL     1     -13.851   1.853  30.638  0.00  0.00    +0.419 C 
ENDBRANCH  22  24
ENDBRANCH   5  17
ENDBRANCH  10   5
BRANCH   8  16
ATOM     16  C   UNL     1     -15.105   5.507  21.834  0.00  0.00    +0.105 C 
BRANCH  16  18
ATOM     18  C   UNL     1     -13.631   5.184  22.044  0.00  0.00    +0.015 C 
ATOM     20  C   UNL     1     -12.707   6.204  21.392  0.00  0.00    +0.005 C 
ENDBRANCH  16  18
ENDBRANCH   8  16
TORSDOF 5
ENDMDL
MODEL 4
REMARK VINA RESULT:      -5.9      4.864      7.388
REMARK  Name = 75367644
REMARK  6 active torsions:
REMARK  status: ('A' for Active; 'I' for Inactive)
REMARK    1  A    between atoms: O_5  and  C_10
REMARK    2  A    between atoms: O_5  and  C_17
REMARK    3  A    between atoms: N_8  and  C_16
REMARK    4  A    between atoms: C_16  and  C_18
REMARK    5  A    between atoms: C_18  and  C_20
REMARK    6  A    between atoms: C_22  and  C_24
REMARK                            x       y       z     vdW  Elec       q    Type
REMARK                         _______ _______ _______ _____ _____    ______ ____
ROOT
ATOM      4  O   UNL     1      15.732   8.289  20.283  0.00  0.00    -0.375 OA
ATOM      6  O   UNL     1      10.582   8.703  19.554  0.00  0.00    -0.253 OA
ATOM      7  N   UNL     1      12.752   7.859  19.695  0.00  0.00    -0.280 N 
ATOM      8  N   UNL     1      11.601   7.959  17.629  0.00  0.00    -0.299 N 
ATOM     10  C   UNL     1      13.799   9.238  21.481  0.00  0.00    +0.218 C 
ATOM     11  C   UNL     1      12.816   8.120  21.137  0.00  0.00    +0.156 C 
ATOM     12  C   UNL     1      13.924   7.273  19.027  0.00  0.00    +0.137 C 
ATOM     13  C   UNL     1      15.249   8.764  21.533  0.00  0.00    +0.206 C 
ATOM     14  C   UNL     1      15.161   7.047  19.886  0.00  0.00    +0.179 C 
ATOM     15  C   UNL     1      11.569   8.211  18.999  0.00  0.00    +0.302 C 
ATOM     25  H   UNL     1      12.418   7.540  17.203  0.00  0.00    +0.150 HD
ENDROOT
BRANCH  10   5
ATOM      5  O   UNL     1      13.445   9.752  22.763  0.00  0.00    -0.469 OA
BRANCH   5  17
ATOM      9  N   UNL     1      12.330  11.373  23.991  0.00  0.00    -0.221 NA
ATOM     17  C   UNL     1      12.639  10.857  22.779  0.00  0.00    +0.215 A 
ATOM     19  C   UNL     1      12.190  11.380  21.577  0.00  0.00    +0.068 A 
ATOM     21  C   UNL     1      11.373  12.504  21.620  0.00  0.00    +0.019 A 
ATOM     22  C   UNL     1      11.032  13.062  22.847  0.00  0.00    +0.073 A 
ATOM     23  C   UNL     1      11.533  12.465  23.993  0.00  0.00    +0.127 A 
BRANCH  22  24
ATOM      1  F   UNL     1      10.824  15.442  22.725  0.00  0.00    -0.166 F 
ATOM      2  F   UNL     1       9.147  14.270  22.006  0.00  0.00    -0.166 F 
ATOM      3  F   UNL     1       9.547  14.395  24.140  0.00  0.00    -0.166 F 
ATOM     24  C   UNL     1      10.160  14.264  22.926  0.00  0.00    +0.419 C 
ENDBRANCH  22  24
ENDBRANCH   5  17
ENDBRANCH  10   5
BRANCH   8  16
ATOM     16  C   UNL     1      10.492   8.247  16.743  0.00  0.00    +0.105 C 
BRANCH  16  18
ATOM     18  C   UNL     1      10.878   9.205  15.623  0.00  0.00    +0.015 C 
ATOM     20  C   UNL     1      12.377   9.465  15.562  0.00  0.00    +0.005 C 
ENDBRANCH  16  18
ENDBRANCH   8  16
TORSDOF 5
ENDMDL
MODEL 5
REMARK VINA RESULT:      -5.8     27.001     28.538
REMARK  Name = 75367644
REMARK  6 active torsions:
REMARK  status: ('A' for Active; 'I' for Inactive)
REMARK    1  A    between atoms: O_5  and  C_10
REMARK    2  A    between atoms: O_5  and  C_17
REMARK    3  A    between atoms: N_8  and  C_16
REMARK    4  A    between atoms: C_16  and  C_18
REMARK    5  A    between atoms: C_18  and  C_20
REMARK    6  A    between atoms: C_22  and  C_24
REMARK                            x       y       z     vdW  Elec       q    Type
REMARK                         _______ _______ _______ _____ _____    ______ ____
ROOT
ATOM      4  O   UNL     1      -7.130 -13.109  18.674  0.00  0.00    -0.375 OA
ATOM      6  O   UNL     1      -8.488  -8.524  16.588  0.00  0.00    -0.253 OA
ATOM      7  N   UNL     1      -8.350 -10.376  17.997  0.00  0.00    -0.280 N 
ATOM      8  N   UNL     1     -10.339  -9.873  16.817  0.00  0.00    -0.299 N 
ATOM     10  C   UNL     1      -5.995 -11.134  17.736  0.00  0.00    +0.218 C 
ATOM     11  C   UNL     1      -6.948 -10.092  18.320  0.00  0.00    +0.156 C 
ATOM     12  C   UNL     1      -8.991 -11.557  18.597  0.00  0.00    +0.137 C 
ATOM     13  C   UNL     1      -5.901 -12.401  18.582  0.00  0.00    +0.206 C 
ATOM     14  C   UNL     1      -8.113 -12.449  19.465  0.00  0.00    +0.179 C 
ATOM     15  C   UNL     1      -9.021  -9.516  17.094  0.00  0.00    +0.302 C 
ATOM     25  H   UNL     1     -10.755 -10.682  17.259  0.00  0.00    +0.150 HD
ENDROOT
BRANCH  10   5
ATOM      5  O   UNL     1      -4.698 -10.545  17.658  0.00  0.00    -0.469 OA
BRANCH   5  17
ATOM      9  N   UNL     1      -4.864 -10.544  15.345  0.00  0.00    -0.221 NA
ATOM     17  C   UNL     1      -4.074 -10.596  16.442  0.00  0.00    +0.215 A 
ATOM     19  C   UNL     1      -2.693 -10.696  16.398  0.00  0.00    +0.068 A 
ATOM     21  C   UNL     1      -2.083 -10.744  15.150  0.00  0.00    +0.019 A 
ATOM     22  C   UNL     1      -2.861 -10.695  13.999  0.00  0.00    +0.073 A 
ATOM     23  C   UNL     1      -4.236 -10.596  14.149  0.00  0.00    +0.127 A 
BRANCH  22  24
ATOM      1  F   UNL     1      -3.137 -10.656  11.623  0.00  0.00    -0.166 F 
ATOM      2  F   UNL     1      -1.339  -9.741  12.420  0.00  0.00    -0.166 F 
ATOM      3  F   UNL     1      -1.550 -11.905  12.428  0.00  0.00    -0.166 F 
ATOM     24  C   UNL     1      -2.238 -10.746  12.649  0.00  0.00    +0.419 C 
ENDBRANCH  22  24
ENDBRANCH   5  17
ENDBRANCH  10   5
BRANCH   8  16
ATOM     16  C   UNL     1     -11.193  -9.121  15.921  0.00  0.00    +0.105 C 
BRANCH  16  18
ATOM     18  C   UNL     1     -11.975  -8.031  16.643  0.00  0.00    +0.015 C 
ATOM     20  C   UNL     1     -11.407  -6.640  16.397  0.00  0.00    +0.005 C 
ENDBRANCH  16  18
ENDBRANCH   8  16
TORSDOF 5
ENDMDL
MODEL 6
REMARK VINA RESULT:      -5.7     14.170     17.091
REMARK  Name = 75367644
REMARK  6 active torsions:
REMARK  status: ('A' for Active; 'I' for Inactive)
REMARK    1  A    between atoms: O_5  and  C_10
REMARK    2  A    between atoms: O_5  and  C_17
REMARK    3  A    between atoms: N_8  and  C_16
REMARK    4  A    between atoms: C_16  and  C_18
REMARK    5  A    between atoms: C_18  and  C_20
REMARK    6  A    between atoms: C_22  and  C_24
REMARK                            x       y       z     vdW  Elec       q    Type
REMARK                         _______ _______ _______ _____ _____    ______ ____
ROOT
ATOM      4  O   UNL     1       9.004   8.253   2.402  0.00  0.00    -0.375 OA
ATOM      6  O   UNL     1      13.856   6.744   3.587  0.00  0.00    -0.253 OA
ATOM      7  N   UNL     1      12.026   7.744   2.543  0.00  0.00    -0.280 N 
ATOM      8  N   UNL     1      13.322   6.094   1.445  0.00  0.00    -0.299 N 
ATOM     10  C   UNL     1      10.428   8.131   4.409  0.00  0.00    +0.218 C 
ATOM     11  C   UNL     1      11.727   8.556   3.726  0.00  0.00    +0.156 C 
ATOM     12  C   UNL     1      11.159   7.865   1.360  0.00  0.00    +0.137 C 
ATOM     13  C   UNL     1       9.183   8.705   3.738  0.00  0.00    +0.206 C 
ATOM     14  C   UNL     1       9.953   8.788   1.486  0.00  0.00    +0.179 C 
ATOM     15  C   UNL     1      13.124   6.850   2.598  0.00  0.00    +0.302 C 
ATOM     25  H   UNL     1      12.716   6.214   0.643  0.00  0.00    +0.150 HD
ENDROOT
BRANCH  10   5
ATOM      5  O   UNL     1      10.470   8.596   5.757  0.00  0.00    -0.469 OA
BRANCH   5  17
ATOM      9  N   UNL     1      11.047   6.675   6.921  0.00  0.00    -0.221 NA
ATOM     17  C   UNL     1      10.166   7.683   6.729  0.00  0.00    +0.215 A 
ATOM     19  C   UNL     1       8.994   7.837   7.453  0.00  0.00    +0.068 A 
ATOM     21  C   UNL     1       8.709   6.897   8.436  0.00  0.00    +0.019 A 
ATOM     22  C   UNL     1       9.589   5.845   8.663  0.00  0.00    +0.073 A 
ATOM     23  C   UNL     1      10.735   5.780   7.885  0.00  0.00    +0.127 A 
BRANCH  22  24
ATOM      1  F   UNL     1       8.194   5.086  10.451  0.00  0.00    -0.166 F 
ATOM      2  F   UNL     1       9.114   3.565   9.208  0.00  0.00    -0.166 F 
ATOM      3  F   UNL     1      10.327   4.699  10.611  0.00  0.00    -0.166 F 
ATOM     24  C   UNL     1       9.311   4.823   9.707  0.00  0.00    +0.419 C 
ENDBRANCH  22  24
ENDBRANCH   5  17
ENDBRANCH  10   5
BRANCH   8  16
ATOM     16  C   UNL     1      14.389   5.127   1.304  0.00  0.00    +0.105 C 
BRANCH  16  18
ATOM     18  C   UNL     1      13.890   3.692   1.408  0.00  0.00    +0.015 C 
ATOM     20  C   UNL     1      13.122   3.245   0.172  0.00  0.00    +0.005 C 
ENDBRANCH  16  18
ENDBRANCH   8  16
TORSDOF 5
ENDMDL
MODEL 7
REMARK VINA RESULT:      -5.7     14.807     17.578
REMARK  Name = 75367644
REMARK  6 active torsions:
REMARK  status: ('A' for Active; 'I' for Inactive)
REMARK    1  A    between atoms: O_5  and  C_10
REMARK    2  A    between atoms: O_5  and  C_17
REMARK    3  A    between atoms: N_8  and  C_16
REMARK    4  A    between atoms: C_16  and  C_18
REMARK    5  A    between atoms: C_18  and  C_20
REMARK    6  A    between atoms: C_22  and  C_24
REMARK                            x       y       z     vdW  Elec       q    Type
REMARK                         _______ _______ _______ _____ _____    ______ ____
ROOT
ATOM      4  O   UNL     1      13.575   3.305   1.504  0.00  0.00    -0.375 OA
ATOM      6  O   UNL     1      14.152   8.097   3.485  0.00  0.00    -0.253 OA
ATOM      7  N   UNL     1      14.212   6.255   2.057  0.00  0.00    -0.280 N 
ATOM      8  N   UNL     1      16.200   7.228   2.896  0.00  0.00    -0.299 N 
ATOM     10  C   UNL     1      12.186   4.959   2.690  0.00  0.00    +0.218 C 
ATOM     11  C   UNL     1      12.749   6.194   1.988  0.00  0.00    +0.156 C 
ATOM     12  C   UNL     1      15.000   5.258   1.316  0.00  0.00    +0.137 C 
ATOM     13  C   UNL     1      12.248   3.700   1.829  0.00  0.00    +0.206 C 
ATOM     14  C   UNL     1      14.220   4.176   0.581  0.00  0.00    +0.179 C 
ATOM     15  C   UNL     1      14.808   7.258   2.861  0.00  0.00    +0.302 C 
ATOM     25  H   UNL     1      16.712   6.538   2.362  0.00  0.00    +0.150 HD
ENDROOT
BRANCH  10   5
ATOM      5  O   UNL     1      10.821   5.221   3.009  0.00  0.00    -0.469 OA
BRANCH   5  17
ATOM      9  N   UNL     1      10.666   6.496   4.940  0.00  0.00    -0.221 NA
ATOM     17  C   UNL     1      10.505   5.295   4.338  0.00  0.00    +0.215 A 
ATOM     19  C   UNL     1      10.045   4.159   4.984  0.00  0.00    +0.068 A 
ATOM     21  C   UNL     1       9.729   4.261   6.334  0.00  0.00    +0.019 A 
ATOM     22  C   UNL     1       9.883   5.477   6.989  0.00  0.00    +0.073 A 
ATOM     23  C   UNL     1      10.350   6.555   6.254  0.00  0.00    +0.127 A 
BRANCH  22  24
ATOM      1  F   UNL     1      10.642   5.870   9.223  0.00  0.00    -0.166 F 
ATOM      2  F   UNL     1       8.679   6.632   8.703  0.00  0.00    -0.166 F 
ATOM      3  F   UNL     1       8.981   4.493   8.957  0.00  0.00    -0.166 F 
ATOM     24  C   UNL     1       9.555   5.617   8.433  0.00  0.00    +0.419 C 
ENDBRANCH  22  24
ENDBRANCH   5  17
ENDBRANCH  10   5
BRANCH   8  16
ATOM     16  C   UNL     1      16.994   8.168   3.659  0.00  0.00    +0.105 C 
BRANCH  16  18
ATOM     18  C   UNL     1      18.419   8.286   3.132  0.00  0.00    +0.015 C 
ATOM     20  C   UNL     1      19.459   7.817   4.140  0.00  0.00    +0.005 C 
ENDBRANCH  16  18
ENDBRANCH   8  16
TORSDOF 5
ENDMDL
MODEL 8
REMARK VINA RESULT:      -5.6     14.874     17.805
REMARK  Name = 75367644
REMARK  6 active torsions:
REMARK  status: ('A' for Active; 'I' for Inactive)
REMARK    1  A    between atoms: O_5  and  C_10
REMARK    2  A    between atoms: O_5  and  C_17
REMARK    3  A    between atoms: N_8  and  C_16
REMARK    4  A    between atoms: C_16  and  C_18
REMARK    5  A    between atoms: C_18  and  C_20
REMARK    6  A    between atoms: C_22  and  C_24
REMARK                            x       y       z     vdW  Elec       q    Type
REMARK                         _______ _______ _______ _____ _____    ______ ____
ROOT
ATOM      4  O   UNL     1       8.640   8.501   0.734  0.00  0.00    -0.375 OA
ATOM      6  O   UNL     1      11.391   5.318   3.819  0.00  0.00    -0.253 OA
ATOM      7  N   UNL     1      10.800   6.895   2.207  0.00  0.00    -0.280 N 
ATOM      8  N   UNL     1      11.811   4.840   1.607  0.00  0.00    -0.299 N 
ATOM     10  C   UNL     1       8.731   7.924   3.127  0.00  0.00    +0.218 C 
ATOM     11  C   UNL     1      10.252   7.803   3.219  0.00  0.00    +0.156 C 
ATOM     12  C   UNL     1      10.741   7.292   0.791  0.00  0.00    +0.137 C 
ATOM     13  C   UNL     1       8.272   8.900   2.048  0.00  0.00    +0.206 C 
ATOM     14  C   UNL     1      10.036   8.605   0.475  0.00  0.00    +0.179 C 
ATOM     15  C   UNL     1      11.339   5.656   2.633  0.00  0.00    +0.302 C 
ATOM     25  H   UNL     1      11.770   5.150   0.645  0.00  0.00    +0.150 HD
ENDROOT
BRANCH  10   5
ATOM      5  O   UNL     1       8.252   8.387   4.389  0.00  0.00    -0.469 OA
BRANCH   5  17
ATOM      9  N   UNL     1       8.677   8.246   6.664  0.00  0.00    -0.221 NA
ATOM     17  C   UNL     1       8.544   7.611   5.477  0.00  0.00    +0.215 A 
ATOM     19  C   UNL     1       8.685   6.243   5.309  0.00  0.00    +0.068 A 
ATOM     21  C   UNL     1       8.981   5.476   6.431  0.00  0.00    +0.019 A 
ATOM     22  C   UNL     1       9.126   6.093   7.669  0.00  0.00    +0.073 A 
ATOM     23  C   UNL     1       8.966   7.468   7.732  0.00  0.00    +0.127 A 
BRANCH  22  24
ATOM      1  F   UNL     1      10.660   5.597   9.437  0.00  0.00    -0.166 F 
ATOM      2  F   UNL     1       8.546   5.472   9.905  0.00  0.00    -0.166 F 
ATOM      3  F   UNL     1       9.470   3.955   8.651  0.00  0.00    -0.166 F 
ATOM     24  C   UNL     1       9.443   5.300   8.887  0.00  0.00    +0.419 C 
ENDBRANCH  22  24
ENDBRANCH   5  17
ENDBRANCH  10   5
BRANCH   8  16
ATOM     16  C   UNL     1      12.399   3.538   1.837  0.00  0.00    +0.105 C 
BRANCH  16  18
ATOM     18  C   UNL     1      13.874   3.492   1.459  0.00  0.00    +0.015 C 
ATOM     20  C   UNL     1      14.115   3.814  -0.010  0.00  0.00    +0.005 C 
ENDBRANCH  16  18
ENDBRANCH   8  16
TORSDOF 5
ENDMDL
MODEL 9
REMARK VINA RESULT:      -5.5     13.893     16.097
REMARK  Name = 75367644
REMARK  6 active torsions:
REMARK  status: ('A' for Active; 'I' for Inactive)
REMARK    1  A    between atoms: O_5  and  C_10
REMARK    2  A    between atoms: O_5  and  C_17
REMARK    3  A    between atoms: N_8  and  C_16
REMARK    4  A    between atoms: C_16  and  C_18
REMARK    5  A    between atoms: C_18  and  C_20
REMARK    6  A    between atoms: C_22  and  C_24
REMARK                            x       y       z     vdW  Elec       q    Type
REMARK                         _______ _______ _______ _____ _____    ______ ____
ROOT
ATOM      4  O   UNL     1      10.395   5.286   7.438  0.00  0.00    -0.375 OA
ATOM      6  O   UNL     1      12.177   6.597   2.712  0.00  0.00    -0.253 OA
ATOM      7  N   UNL     1      10.790   5.930   4.464  0.00  0.00    -0.280 N 
ATOM      8  N   UNL     1      11.292   4.472   2.668  0.00  0.00    -0.299 N 
ATOM     10  C   UNL     1      11.754   7.086   6.445  0.00  0.00    +0.218 C 
ATOM     11  C   UNL     1      10.950   7.216   5.150  0.00  0.00    +0.156 C 
ATOM     12  C   UNL     1       9.953   4.893   5.086  0.00  0.00    +0.137 C 
ATOM     13  C   UNL     1      10.916   6.596   7.622  0.00  0.00    +0.206 C 
ATOM     14  C   UNL     1       9.368   5.213   6.455  0.00  0.00    +0.179 C 
ATOM     15  C   UNL     1      11.474   5.730   3.239  0.00  0.00    +0.302 C 
ATOM     25  H   UNL     1      10.697   3.787   3.114  0.00  0.00    +0.150 HD
ENDROOT
BRANCH  10   5
ATOM      5  O   UNL     1      12.276   8.374   6.765  0.00  0.00    -0.469 OA
BRANCH   5  17
ATOM      9  N   UNL     1      14.350   7.470   6.257  0.00  0.00    -0.221 NA
ATOM     17  C   UNL     1      13.611   8.567   6.539  0.00  0.00    +0.215 A 
ATOM     19  C   UNL     1      14.126   9.852   6.607  0.00  0.00    +0.068 A 
ATOM     21  C   UNL     1      15.485  10.022   6.371  0.00  0.00    +0.019 A 
ATOM     22  C   UNL     1      16.279   8.918   6.080  0.00  0.00    +0.073 A 
ATOM     23  C   UNL     1      15.668   7.674   6.035  0.00  0.00    +0.127 A 
BRANCH  22  24
ATOM      1  F   UNL     1      18.177  10.360   5.890  0.00  0.00    -0.166 F 
ATOM      2  F   UNL     1      18.523   8.381   6.708  0.00  0.00    -0.166 F 
ATOM      3  F   UNL     1      18.105   8.621   4.587  0.00  0.00    -0.166 F 
ATOM     24  C   UNL     1      17.736   9.067   5.824  0.00  0.00    +0.419 C 
ENDBRANCH  22  24
ENDBRANCH   5  17
ENDBRANCH  10   5
BRANCH   8  16
ATOM     16  C   UNL     1      11.905   4.074   1.418  0.00  0.00    +0.105 C 
BRANCH  16  18
ATOM     18  C   UNL     1      13.011   3.045   1.617  0.00  0.00    +0.015 C 
ATOM     20  C   UNL     1      14.402   3.663   1.586  0.00  0.00    +0.005 C 
ENDBRANCH  16  18
ENDBRANCH   8  16
TORSDOF 5
ENDMDL
MODEL 10
REMARK VINA RESULT:      -5.5     26.931     29.712
REMARK  Name = 75367644
REMARK  6 active torsions:
REMARK  status: ('A' for Active; 'I' for Inactive)
REMARK    1  A    between atoms: O_5  and  C_10
REMARK    2  A    between atoms: O_5  and  C_17
REMARK    3  A    between atoms: N_8  and  C_16
REMARK    4  A    between atoms: C_16  and  C_18
REMARK    5  A    between atoms: C_18  and  C_20
REMARK    6  A    between atoms: C_22  and  C_24
REMARK                            x       y       z     vdW  Elec       q    Type
REMARK                         _______ _______ _______ _____ _____    ______ ____
ROOT
ATOM      4  O   UNL     1     -16.305   8.089  23.703  0.00  0.00    -0.375 OA
ATOM      6  O   UNL     1     -15.618   2.979  24.499  0.00  0.00    -0.253 OA
ATOM      7  N   UNL     1     -16.569   5.103  24.356  0.00  0.00    -0.280 N 
ATOM      8  N   UNL     1     -16.333   3.996  26.436  0.00  0.00    -0.299 N 
ATOM     10  C   UNL     1     -15.313   6.182  22.500  0.00  0.00    +0.218 C 
ATOM     11  C   UNL     1     -16.369   5.153  22.905  0.00  0.00    +0.156 C 
ATOM     12  C   UNL     1     -17.183   6.259  25.029  0.00  0.00    +0.137 C 
ATOM     13  C   UNL     1     -15.857   7.607  22.444  0.00  0.00    +0.206 C 
ATOM     14  C   UNL     1     -17.502   7.468  24.160  0.00  0.00    +0.179 C 
ATOM     15  C   UNL     1     -16.134   3.951  25.058  0.00  0.00    +0.302 C 
ATOM     25  H   UNL     1     -16.773   4.800  26.865  0.00  0.00    +0.150 HD
ENDROOT
BRANCH  10   5
ATOM      5  O   UNL     1     -14.834   5.828  21.204  0.00  0.00    -0.469 OA
BRANCH   5  17
ATOM      9  N   UNL     1     -14.139   7.417  19.664  0.00  0.00    -0.221 NA
ATOM     17  C   UNL     1     -13.825   6.597  20.693  0.00  0.00    +0.215 A 
ATOM     19  C   UNL     1     -12.558   6.499  21.247  0.00  0.00    +0.068 A 
ATOM     21  C   UNL     1     -11.550   7.292  20.710  0.00  0.00    +0.019 A 
ATOM     22  C   UNL     1     -11.834   8.146  19.651  0.00  0.00    +0.073 A 
ATOM     23  C   UNL     1     -13.133   8.172  19.168  0.00  0.00    +0.127 A 
BRANCH  22  24
ATOM      1  F   UNL     1     -10.257   8.513  17.890  0.00  0.00    -0.166 F 
ATOM      2  F   UNL     1     -11.203  10.268  18.745  0.00  0.00    -0.166 F 
ATOM      3  F   UNL     1      -9.705   9.179  19.885  0.00  0.00    -0.166 F 
ATOM     24  C   UNL     1     -10.776   9.006  19.055  0.00  0.00    +0.419 C 
ENDBRANCH  22  24
ENDBRANCH   5  17
ENDBRANCH  10   5
BRANCH   8  16
ATOM     16  C   UNL     1     -15.958   2.919  27.327  0.00  0.00    +0.105 C 
BRANCH  16  18
ATOM     18  C   UNL     1     -15.622   3.415  28.728  0.00  0.00    +0.015 C 
ATOM     20  C   UNL     1     -14.829   2.397  29.537  0.00  0.00    +0.005 C 
ENDBRANCH  16  18
ENDBRANCH   8  16
TORSDOF 5
ENDMDL
