MODEL 1
REMARK VINA RESULT:      -7.7      0.000      0.000
REMARK  Name = 11884086
REMARK  8 active torsions:
REMARK  status: ('A' for Active; 'I' for Inactive)
REMARK    1  A    between atoms: O_3  and  C_12
REMARK    2  A    between atoms: O_3  and  C_16
REMARK    3  A    between atoms: N_7  and  C_11
REMARK    4  A    between atoms: N_8  and  C_18
REMARK    5  A    between atoms: C_15  and  C_17
REMARK    6  A    between atoms: C_20  and  C_21
REMARK    7  A    between atoms: C_20  and  C_28
REMARK    8  A    between atoms: C_20  and  C_29
REMARK                            x       y       z     vdW  Elec       q    Type
REMARK                         _______ _______ _______ _____ _____    ______ ____
ROOT
ATOM      1  O   UNL     1     -16.818   4.491  25.640  0.00  0.00    -0.368 OA
ATOM      2  O   UNL     1     -17.207   1.972  23.935  0.00  0.00    -0.368 OA
ATOM      9  C   UNL     1     -16.387   2.224  25.095  0.00  0.00    +0.173 C 
ATOM     10  C   UNL     1     -15.871   3.644  24.968  0.00  0.00    +0.192 C 
ATOM     11  C   UNL     1     -17.244   2.259  26.338  0.00  0.00    +0.130 C 
ATOM     12  C   UNL     1     -15.884   3.864  23.475  0.00  0.00    +0.235 C 
ATOM     13  C   UNL     1     -17.790   3.676  26.314  0.00  0.00    +0.185 C 
ATOM     14  C   UNL     1     -17.116   3.098  23.050  0.00  0.00    +0.207 C 
ENDROOT
BRANCH  11   7
ATOM      4  O   UNL     1     -17.727   0.256  28.265  0.00  0.00    -0.267 OA
ATOM      7  N   UNL     1     -16.456   2.021  27.523  0.00  0.00    -0.301 N 
ATOM     15  C   UNL     1     -16.764   1.006  28.429  0.00  0.00    +0.280 C 
ATOM     30  H   UNL     1     -15.622   2.581  27.674  0.00  0.00    +0.150 HD
BRANCH  15  17
ATOM      6  O   UNL     1     -15.887  -0.303  30.219  0.00  0.00    -0.458 OA
ATOM     17  C   UNL     1     -15.847   0.867  29.571  0.00  0.00    +0.189 A 
ATOM     19  C   UNL     1     -14.957   1.739  30.077  0.00  0.00    +0.054 A 
ATOM     24  C   UNL     1     -14.365   1.055  31.166  0.00  0.00    +0.042 A 
ATOM     25  C   UNL     1     -14.965  -0.182  31.210  0.00  0.00    +0.196 A 
ENDBRANCH  15  17
ENDBRANCH  11   7
BRANCH  12   3
ATOM      3  O   UNL     1     -15.950   5.223  23.107  0.00  0.00    -0.442 OA
BRANCH   3  16
ATOM      5  O   UNL     1     -15.468   5.137  20.873  0.00  0.00    -0.226 OA
ATOM      8  N   UNL     1     -14.296   6.544  22.330  0.00  0.00    -0.251 N 
ATOM     16  C   UNL     1     -15.244   5.601  21.984  0.00  0.00    +0.405 C 
ATOM     31  H   UNL     1     -14.261   6.807  23.313  0.00  0.00    +0.158 HD
BRANCH   8  18
ATOM     18  C   UNL     1     -13.364   7.191  21.488  0.00  0.00    +0.036 A 
ATOM     21  C   UNL     1     -11.536   8.461  19.835  0.00  0.00    -0.045 A 
ATOM     22  C   UNL     1     -13.631   8.474  21.037  0.00  0.00    +0.024 A 
ATOM     23  C   UNL     1     -12.200   6.531  21.128  0.00  0.00    +0.024 A 
ATOM     26  C   UNL     1     -12.711   9.114  20.205  0.00  0.00    +0.006 A 
ATOM     27  C   UNL     1     -11.280   7.169  20.296  0.00  0.00    +0.006 A 
BRANCH  21  20
ATOM     20  C   UNL     1     -10.552   9.143  18.946  0.00  0.00    +0.013 C 
ATOM     28  C   UNL     1     -10.577   8.594  17.507  0.00  0.00    +0.012 C 
ATOM     29  C   UNL     1     -10.738  10.672  18.926  0.00  0.00    +0.012 C 
ENDBRANCH  21  20
ENDBRANCH   8  18
ENDBRANCH   3  16
ENDBRANCH  12   3
TORSDOF 6
ENDMDL
MODEL 2
REMARK VINA RESULT:      -7.5     26.874     30.224
REMARK  Name = 11884086
REMARK  8 active torsions:
REMARK  status: ('A' for Active; 'I' for Inactive)
REMARK    1  A    between atoms: O_3  and  C_12
REMARK    2  A    between atoms: O_3  and  C_16
REMARK    3  A    between atoms: N_7  and  C_11
REMARK    4  A    between atoms: N_8  and  C_18
REMARK    5  A    between atoms: C_15  and  C_17
REMARK    6  A    between atoms: C_20  and  C_21
REMARK    7  A    between atoms: C_20  and  C_28
REMARK    8  A    between atoms: C_20  and  C_29
REMARK                            x       y       z     vdW  Elec       q    Type
REMARK                         _______ _______ _______ _____ _____    ______ ____
ROOT
ATOM      1  O   UNL     1      12.315   9.948  20.793  0.00  0.00    -0.368 OA
ATOM      2  O   UNL     1      10.448   8.148  22.430  0.00  0.00    -0.368 OA
ATOM      9  C   UNL     1      11.607   8.918  22.809  0.00  0.00    +0.173 C 
ATOM     10  C   UNL     1      12.588   8.831  21.657  0.00  0.00    +0.192 C 
ATOM     11  C   UNL     1      11.256  10.386  22.876  0.00  0.00    +0.130 C 
ATOM     12  C   UNL     1      12.215   7.519  21.010  0.00  0.00    +0.235 C 
ATOM     13  C   UNL     1      11.350  10.807  21.420  0.00  0.00    +0.185 C 
ATOM     14  C   UNL     1      10.714   7.493  21.181  0.00  0.00    +0.207 C 
ENDROOT
BRANCH  11   7
ATOM      4  O   UNL     1      10.630  11.860  25.199  0.00  0.00    -0.267 OA
ATOM      7  N   UNL     1      12.198  11.112  23.694  0.00  0.00    -0.301 N 
ATOM     15  C   UNL     1      11.805  11.819  24.831  0.00  0.00    +0.280 C 
ATOM     30  H   UNL     1      13.185  11.065  23.458  0.00  0.00    +0.150 HD
BRANCH  15  17
ATOM      6  O   UNL     1      13.719  11.674  26.246  0.00  0.00    -0.458 OA
ATOM     17  C   UNL     1      12.885  12.479  25.578  0.00  0.00    +0.189 A 
ATOM     19  C   UNL     1      13.179  13.787  25.701  0.00  0.00    +0.054 A 
ATOM     24  C   UNL     1      14.320  13.820  26.537  0.00  0.00    +0.042 A 
ATOM     25  C   UNL     1      14.609  12.510  26.841  0.00  0.00    +0.196 A 
ENDBRANCH  15  17
ENDBRANCH  11   7
BRANCH  12   3
ATOM      3  O   UNL     1      12.597   7.432  19.655  0.00  0.00    -0.442 OA
BRANCH   3  16
ATOM      5  O   UNL     1      14.378   8.279  18.496  0.00  0.00    -0.226 OA
ATOM      8  N   UNL     1      14.663   6.732  20.229  0.00  0.00    -0.251 N 
ATOM     16  C   UNL     1      13.944   7.547  19.377  0.00  0.00    +0.405 C 
ATOM     31  H   UNL     1      14.120   6.195  20.902  0.00  0.00    +0.158 HD
BRANCH   8  18
ATOM     18  C   UNL     1      16.063   6.550  20.284  0.00  0.00    +0.036 A 
ATOM     21  C   UNL     1      18.810   6.191  20.393  0.00  0.00    -0.045 A 
ATOM     22  C   UNL     1      16.714   5.956  19.215  0.00  0.00    +0.024 A 
ATOM     23  C   UNL     1      16.759   6.967  21.408  0.00  0.00    +0.024 A 
ATOM     26  C   UNL     1      18.097   5.776  19.269  0.00  0.00    +0.006 A 
ATOM     27  C   UNL     1      18.141   6.787  21.463  0.00  0.00    +0.006 A 
BRANCH  21  20
ATOM     20  C   UNL     1      20.288   5.999  20.452  0.00  0.00    +0.013 C 
ATOM     28  C   UNL     1      20.926   6.706  21.663  0.00  0.00    +0.012 C 
ATOM     29  C   UNL     1      20.689   4.511  20.444  0.00  0.00    +0.012 C 
ENDBRANCH  21  20
ENDBRANCH   8  18
ENDBRANCH   3  16
ENDBRANCH  12   3
TORSDOF 6
ENDMDL
MODEL 3
REMARK VINA RESULT:      -7.4      1.561      2.334
REMARK  Name = 11884086
REMARK  8 active torsions:
REMARK  status: ('A' for Active; 'I' for Inactive)
REMARK    1  A    between atoms: O_3  and  C_12
REMARK    2  A    between atoms: O_3  and  C_16
REMARK    3  A    between atoms: N_7  and  C_11
REMARK    4  A    between atoms: N_8  and  C_18
REMARK    5  A    between atoms: C_15  and  C_17
REMARK    6  A    between atoms: C_20  and  C_21
REMARK    7  A    between atoms: C_20  and  C_28
REMARK    8  A    between atoms: C_20  and  C_29
REMARK                            x       y       z     vdW  Elec       q    Type
REMARK                         _______ _______ _______ _____ _____    ______ ____
ROOT
ATOM      1  O   UNL     1     -17.782   3.342  26.604  0.00  0.00    -0.368 OA
ATOM      2  O   UNL     1     -17.253   0.455  25.713  0.00  0.00    -0.368 OA
ATOM      9  C   UNL     1     -16.548   1.317  26.630  0.00  0.00    +0.173 C 
ATOM     10  C   UNL     1     -16.610   2.717  26.053  0.00  0.00    +0.192 C 
ATOM     11  C   UNL     1     -17.309   1.426  27.930  0.00  0.00    +0.130 C 
ATOM     12  C   UNL     1     -16.759   2.454  24.574  0.00  0.00    +0.235 C 
ATOM     13  C   UNL     1     -18.349   2.484  27.607  0.00  0.00    +0.185 C 
ATOM     14  C   UNL     1     -17.626   1.217  24.555  0.00  0.00    +0.207 C 
ENDROOT
BRANCH  11   7
ATOM      4  O   UNL     1     -16.150  -0.257  29.875  0.00  0.00    -0.267 OA
ATOM      7  N   UNL     1     -16.447   1.850  29.007  0.00  0.00    -0.301 N 
ATOM     15  C   UNL     1     -15.913   0.951  29.931  0.00  0.00    +0.280 C 
ATOM     30  H   UNL     1     -16.183   2.830  29.063  0.00  0.00    +0.150 HD
BRANCH  15  17
ATOM      6  O   UNL     1     -14.275   2.566  30.557  0.00  0.00    -0.458 OA
ATOM     17  C   UNL     1     -15.026   1.530  30.949  0.00  0.00    +0.189 A 
ATOM     19  C   UNL     1     -14.844   1.184  32.236  0.00  0.00    +0.054 A 
ATOM     24  C   UNL     1     -13.873   2.094  32.718  0.00  0.00    +0.042 A 
ATOM     25  C   UNL     1     -13.559   2.914  31.658  0.00  0.00    +0.196 A 
ENDBRANCH  15  17
ENDBRANCH  11   7
BRANCH  12   3
ATOM      3  O   UNL     1     -17.346   3.525  23.869  0.00  0.00    -0.442 OA
BRANCH   3  16
ATOM      5  O   UNL     1     -16.641   5.668  24.247  0.00  0.00    -0.226 OA
ATOM      8  N   UNL     1     -15.673   4.329  22.589  0.00  0.00    -0.251 N 
ATOM     16  C   UNL     1     -16.546   4.621  23.618  0.00  0.00    +0.405 C 
ATOM     31  H   UNL     1     -15.745   3.396  22.189  0.00  0.00    +0.158 HD
BRANCH   8  18
ATOM     18  C   UNL     1     -14.688   5.167  22.019  0.00  0.00    +0.036 A 
ATOM     21  C   UNL     1     -12.755   6.810  20.901  0.00  0.00    -0.045 A 
ATOM     22  C   UNL     1     -15.076   6.200  21.181  0.00  0.00    +0.024 A 
ATOM     23  C   UNL     1     -13.352   4.939  22.308  0.00  0.00    +0.024 A 
ATOM     26  C   UNL     1     -14.103   7.028  20.619  0.00  0.00    +0.006 A 
ATOM     27  C   UNL     1     -12.379   5.765  21.746  0.00  0.00    +0.006 A 
BRANCH  21  20
ATOM     20  C   UNL     1     -11.715   7.693  20.300  0.00  0.00    +0.013 C 
ATOM     28  C   UNL     1     -11.466   7.384  18.812  0.00  0.00    +0.012 C 
ATOM     29  C   UNL     1     -12.039   9.189  20.476  0.00  0.00    +0.012 C 
ENDBRANCH  21  20
ENDBRANCH   8  18
ENDBRANCH   3  16
ENDBRANCH  12   3
TORSDOF 6
ENDMDL
MODEL 4
REMARK VINA RESULT:      -7.2      2.358      3.672
REMARK  Name = 11884086
REMARK  8 active torsions:
REMARK  status: ('A' for Active; 'I' for Inactive)
REMARK    1  A    between atoms: O_3  and  C_12
REMARK    2  A    between atoms: O_3  and  C_16
REMARK    3  A    between atoms: N_7  and  C_11
REMARK    4  A    between atoms: N_8  and  C_18
REMARK    5  A    between atoms: C_15  and  C_17
REMARK    6  A    between atoms: C_20  and  C_21
REMARK    7  A    between atoms: C_20  and  C_28
REMARK    8  A    between atoms: C_20  and  C_29
REMARK                            x       y       z     vdW  Elec       q    Type
REMARK                         _______ _______ _______ _____ _____    ______ ____
ROOT
ATOM      1  O   UNL     1     -17.733   3.380  27.668  0.00  0.00    -0.368 OA
ATOM      2  O   UNL     1     -16.330   0.653  27.636  0.00  0.00    -0.368 OA
ATOM      9  C   UNL     1     -16.000   1.890  28.300  0.00  0.00    +0.173 C 
ATOM     10  C   UNL     1     -16.379   3.012  27.354  0.00  0.00    +0.192 C 
ATOM     11  C   UNL     1     -16.906   2.098  29.491  0.00  0.00    +0.130 C 
ATOM     12  C   UNL     1     -16.278   2.347  26.003  0.00  0.00    +0.235 C 
ATOM     13  C   UNL     1     -18.153   2.680  28.849  0.00  0.00    +0.185 C 
ATOM     14  C   UNL     1     -16.763   0.946  26.299  0.00  0.00    +0.207 C 
ENDROOT
BRANCH  11   7
ATOM      4  O   UNL     1     -15.136   1.418  31.580  0.00  0.00    -0.267 OA
ATOM      7  N   UNL     1     -16.324   3.019  30.437  0.00  0.00    -0.301 N 
ATOM     15  C   UNL     1     -15.455   2.600  31.444  0.00  0.00    +0.280 C 
ATOM     30  H   UNL     1     -16.518   4.011  30.333  0.00  0.00    +0.150 HD
BRANCH  15  17
ATOM      6  O   UNL     1     -14.795   3.359  33.606  0.00  0.00    -0.458 OA
ATOM     17  C   UNL     1     -14.919   3.662  32.309  0.00  0.00    +0.189 A 
ATOM     19  C   UNL     1     -14.523   4.910  32.002  0.00  0.00    +0.054 A 
ATOM     24  C   UNL     1     -14.102   5.465  33.234  0.00  0.00    +0.042 A 
ATOM     25  C   UNL     1     -14.287   4.482  34.179  0.00  0.00    +0.196 A 
ENDBRANCH  15  17
ENDBRANCH  11   7
BRANCH  12   3
ATOM      3  O   UNL     1     -17.052   2.977  25.007  0.00  0.00    -0.442 OA
BRANCH   3  16
ATOM      5  O   UNL     1     -16.329   2.766  22.848  0.00  0.00    -0.226 OA
ATOM      8  N   UNL     1     -15.827   4.656  24.133  0.00  0.00    -0.251 N 
ATOM     16  C   UNL     1     -16.385   3.418  23.883  0.00  0.00    +0.405 C 
ATOM     31  H   UNL     1     -15.983   5.041  25.062  0.00  0.00    +0.158 HD
BRANCH   8  18
ATOM     18  C   UNL     1     -15.062   5.460  23.257  0.00  0.00    +0.036 A 
ATOM     21  C   UNL     1     -13.562   7.037  21.540  0.00  0.00    -0.045 A 
ATOM     22  C   UNL     1     -13.879   4.961  22.736  0.00  0.00    +0.024 A 
ATOM     23  C   UNL     1     -15.509   6.732  22.937  0.00  0.00    +0.024 A 
ATOM     26  C   UNL     1     -13.124   5.754  21.871  0.00  0.00    +0.006 A 
ATOM     27  C   UNL     1     -14.755   7.525  22.073  0.00  0.00    +0.006 A 
BRANCH  21  20
ATOM     20  C   UNL     1     -12.756   7.885  20.616  0.00  0.00    +0.013 C 
ATOM     28  C   UNL     1     -12.571   9.320  21.144  0.00  0.00    +0.012 C 
ATOM     29  C   UNL     1     -11.382   7.265  20.295  0.00  0.00    +0.012 C 
ENDBRANCH  21  20
ENDBRANCH   8  18
ENDBRANCH   3  16
ENDBRANCH  12   3
TORSDOF 6
ENDMDL
MODEL 5
REMARK VINA RESULT:      -7.0     29.566     33.008
REMARK  Name = 11884086
REMARK  8 active torsions:
REMARK  status: ('A' for Active; 'I' for Inactive)
REMARK    1  A    between atoms: O_3  and  C_12
REMARK    2  A    between atoms: O_3  and  C_16
REMARK    3  A    between atoms: N_7  and  C_11
REMARK    4  A    between atoms: N_8  and  C_18
REMARK    5  A    between atoms: C_15  and  C_17
REMARK    6  A    between atoms: C_20  and  C_21
REMARK    7  A    between atoms: C_20  and  C_28
REMARK    8  A    between atoms: C_20  and  C_29
REMARK                            x       y       z     vdW  Elec       q    Type
REMARK                         _______ _______ _______ _____ _____    ______ ____
ROOT
ATOM      1  O   UNL     1      15.991   9.274  19.886  0.00  0.00    -0.368 OA
ATOM      2  O   UNL     1      14.484   6.603  19.949  0.00  0.00    -0.368 OA
ATOM      9  C   UNL     1      14.374   7.783  20.772  0.00  0.00    +0.173 C 
ATOM     10  C   UNL     1      15.777   8.329  20.948  0.00  0.00    +0.192 C 
ATOM     11  C   UNL     1      13.651   8.876  20.020  0.00  0.00    +0.130 C 
ATOM     12  C   UNL     1      16.631   7.095  20.779  0.00  0.00    +0.235 C 
ATOM     13  C   UNL     1      14.760   9.471  19.172  0.00  0.00    +0.185 C 
ATOM     14  C   UNL     1      15.873   6.325  19.722  0.00  0.00    +0.207 C 
ENDROOT
BRANCH  11   7
ATOM      4  O   UNL     1      10.961   9.014  20.859  0.00  0.00    -0.267 OA
ATOM      7  N   UNL     1      13.099   9.855  20.924  0.00  0.00    -0.301 N 
ATOM     15  C   UNL     1      11.753   9.855  21.290  0.00  0.00    +0.280 C 
ATOM     30  H   UNL     1      13.724  10.537  21.345  0.00  0.00    +0.150 HD
BRANCH  15  17
ATOM      6  O   UNL     1      11.136  10.492  23.503  0.00  0.00    -0.458 OA
ATOM     17  C   UNL     1      11.348  10.896  22.245  0.00  0.00    +0.189 A 
ATOM     19  C   UNL     1      11.154  12.214  22.058  0.00  0.00    +0.054 A 
ATOM     24  C   UNL     1      10.778  12.705  23.331  0.00  0.00    +0.042 A 
ATOM     25  C   UNL     1      10.781  11.618  24.175  0.00  0.00    +0.196 A 
ENDBRANCH  15  17
ENDBRANCH  11   7
BRANCH  12   3
ATOM      3  O   UNL     1      17.955   7.377  20.385  0.00  0.00    -0.442 OA
BRANCH   3  16
ATOM      5  O   UNL     1      19.052   6.821  22.313  0.00  0.00    -0.226 OA
ATOM      8  N   UNL     1      19.798   6.088  20.219  0.00  0.00    -0.251 N 
ATOM     16  C   UNL     1      18.963   6.755  21.093  0.00  0.00    +0.405 C 
ATOM     31  H   UNL     1      19.558   6.150  19.232  0.00  0.00    +0.158 HD
BRANCH   8  18
ATOM     18  C   UNL     1      20.949   5.327  20.524  0.00  0.00    +0.036 A 
ATOM     21  C   UNL     1      23.207   3.834  21.121  0.00  0.00    -0.045 A 
ATOM     22  C   UNL     1      22.200   5.915  20.419  0.00  0.00    +0.024 A 
ATOM     23  C   UNL     1      20.805   4.007  20.922  0.00  0.00    +0.024 A 
ATOM     26  C   UNL     1      23.336   5.163  20.720  0.00  0.00    +0.006 A 
ATOM     27  C   UNL     1      21.941   3.256  21.222  0.00  0.00    +0.006 A 
BRANCH  21  20
ATOM     20  C   UNL     1      24.421   3.030  21.444  0.00  0.00    +0.013 C 
ATOM     28  C   UNL     1      24.725   3.001  22.953  0.00  0.00    +0.012 C 
ATOM     29  C   UNL     1      24.335   1.591  20.900  0.00  0.00    +0.012 C 
ENDBRANCH  21  20
ENDBRANCH   8  18
ENDBRANCH   3  16
ENDBRANCH  12   3
TORSDOF 6
ENDMDL
MODEL 6
REMARK VINA RESULT:      -6.8     20.508     21.701
REMARK  Name = 11884086
REMARK  8 active torsions:
REMARK  status: ('A' for Active; 'I' for Inactive)
REMARK    1  A    between atoms: O_3  and  C_12
REMARK    2  A    between atoms: O_3  and  C_16
REMARK    3  A    between atoms: N_7  and  C_11
REMARK    4  A    between atoms: N_8  and  C_18
REMARK    5  A    between atoms: C_15  and  C_17
REMARK    6  A    between atoms: C_20  and  C_21
REMARK    7  A    between atoms: C_20  and  C_28
REMARK    8  A    between atoms: C_20  and  C_29
REMARK                            x       y       z     vdW  Elec       q    Type
REMARK                         _______ _______ _______ _____ _____    ______ ____
ROOT
ATOM      1  O   UNL     1      -3.964 -12.143  14.589  0.00  0.00    -0.368 OA
ATOM      2  O   UNL     1      -2.126 -10.792  16.639  0.00  0.00    -0.368 OA
ATOM      9  C   UNL     1      -3.467 -10.481  16.206  0.00  0.00    +0.173 C 
ATOM     10  C   UNL     1      -3.529 -10.779  14.721  0.00  0.00    +0.192 C 
ATOM     11  C   UNL     1      -4.448 -11.455  16.813  0.00  0.00    +0.130 C 
ATOM     12  C   UNL     1      -2.091 -10.608  14.294  0.00  0.00    +0.235 C 
ATOM     13  C   UNL     1      -4.336 -12.649  15.882  0.00  0.00    +0.185 C 
ATOM     14  C   UNL     1      -1.336 -11.135  15.492  0.00  0.00    +0.207 C 
ENDROOT
BRANCH  11   7
ATOM      4  O   UNL     1      -5.913 -10.687  19.099  0.00  0.00    -0.267 OA
ATOM      7  N   UNL     1      -5.787 -10.916  16.816  0.00  0.00    -0.301 N 
ATOM     15  C   UNL     1      -6.443 -10.560  17.994  0.00  0.00    +0.280 C 
ATOM     30  H   UNL     1      -6.245 -10.745  15.924  0.00  0.00    +0.150 HD
BRANCH  15  17
ATOM      6  O   UNL     1      -7.888  -8.930  17.025  0.00  0.00    -0.458 OA
ATOM     17  C   UNL     1      -7.790  -9.994  17.830  0.00  0.00    +0.189 A 
ATOM     19  C   UNL     1      -8.962 -10.378  18.368  0.00  0.00    +0.054 A 
ATOM     24  C   UNL     1      -9.910  -9.463  17.851  0.00  0.00    +0.042 A 
ATOM     25  C   UNL     1      -9.207  -8.603  17.040  0.00  0.00    +0.196 A 
ENDBRANCH  15  17
ENDBRANCH  11   7
BRANCH  12   3
ATOM      3  O   UNL     1      -1.768 -11.307  13.112  0.00  0.00    -0.442 OA
BRANCH   3  16
ATOM      5  O   UNL     1      -1.425  -9.744  11.478  0.00  0.00    -0.226 OA
ATOM      8  N   UNL     1      -3.174 -11.295  11.349  0.00  0.00    -0.251 N 
ATOM     16  C   UNL     1      -2.072 -10.687  11.917  0.00  0.00    +0.405 C 
ATOM     31  H   UNL     1      -3.578 -12.071  11.869  0.00  0.00    +0.158 HD
BRANCH   8  18
ATOM     18  C   UNL     1      -3.814 -10.973  10.130  0.00  0.00    +0.036 A 
ATOM     21  C   UNL     1      -5.070 -10.342   7.741  0.00  0.00    -0.045 A 
ATOM     22  C   UNL     1      -4.152  -9.655   9.868  0.00  0.00    +0.024 A 
ATOM     23  C   UNL     1      -4.092 -11.982   9.222  0.00  0.00    +0.024 A 
ATOM     26  C   UNL     1      -4.784  -9.337   8.665  0.00  0.00    +0.006 A 
ATOM     27  C   UNL     1      -4.724 -11.665   8.020  0.00  0.00    +0.006 A 
BRANCH  21  20
ATOM     20  C   UNL     1      -5.745 -10.003   6.455  0.00  0.00    +0.013 C 
ATOM     28  C   UNL     1      -5.702 -11.164   5.443  0.00  0.00    +0.012 C 
ATOM     29  C   UNL     1      -7.201  -9.541   6.658  0.00  0.00    +0.012 C 
ENDBRANCH  21  20
ENDBRANCH   8  18
ENDBRANCH   3  16
ENDBRANCH  12   3
TORSDOF 6
ENDMDL
MODEL 7
REMARK VINA RESULT:      -6.7     18.523     19.734
REMARK  Name = 11884086
REMARK  8 active torsions:
REMARK  status: ('A' for Active; 'I' for Inactive)
REMARK    1  A    between atoms: O_3  and  C_12
REMARK    2  A    between atoms: O_3  and  C_16
REMARK    3  A    between atoms: N_7  and  C_11
REMARK    4  A    between atoms: N_8  and  C_18
REMARK    5  A    between atoms: C_15  and  C_17
REMARK    6  A    between atoms: C_20  and  C_21
REMARK    7  A    between atoms: C_20  and  C_28
REMARK    8  A    between atoms: C_20  and  C_29
REMARK                            x       y       z     vdW  Elec       q    Type
REMARK                         _______ _______ _______ _____ _____    ______ ____
ROOT
ATOM      1  O   UNL     1      -6.759 -11.732  17.020  0.00  0.00    -0.368 OA
ATOM      2  O   UNL     1      -6.485 -10.995  19.984  0.00  0.00    -0.368 OA
ATOM      9  C   UNL     1      -7.044 -10.273  18.867  0.00  0.00    +0.173 C 
ATOM     10  C   UNL     1      -6.177 -10.586  17.664  0.00  0.00    +0.192 C 
ATOM     11  C   UNL     1      -8.393 -10.845  18.501  0.00  0.00    +0.130 C 
ATOM     12  C   UNL     1      -4.846 -10.915  18.297  0.00  0.00    +0.235 C 
ATOM     13  C   UNL     1      -8.014 -12.041  17.646  0.00  0.00    +0.185 C 
ATOM     14  C   UNL     1      -5.263 -11.620  19.567  0.00  0.00    +0.207 C 
ENDROOT
BRANCH  11   7
ATOM      4  O   UNL     1     -10.865  -9.753  19.311  0.00  0.00    -0.267 OA
ATOM      7  N   UNL     1      -9.180  -9.894  17.755  0.00  0.00    -0.301 N 
ATOM     15  C   UNL     1     -10.396  -9.401  18.228  0.00  0.00    +0.280 C 
ATOM     30  H   UNL     1      -8.809  -9.536  16.879  0.00  0.00    +0.150 HD
BRANCH  15  17
ATOM      6  O   UNL     1     -10.413  -7.259  17.182  0.00  0.00    -0.458 OA
ATOM     17  C   UNL     1     -11.064  -8.412  17.368  0.00  0.00    +0.189 A 
ATOM     19  C   UNL     1     -12.244  -8.481  16.726  0.00  0.00    +0.054 A 
ATOM     24  C   UNL     1     -12.360  -7.238  16.058  0.00  0.00    +0.042 A 
ATOM     25  C   UNL     1     -11.221  -6.531  16.367  0.00  0.00    +0.196 A 
ENDBRANCH  15  17
ENDBRANCH  11   7
BRANCH  12   3
ATOM      3  O   UNL     1      -4.023 -11.722  17.486  0.00  0.00    -0.442 OA
BRANCH   3  16
ATOM      5  O   UNL     1      -2.602 -10.373  16.307  0.00  0.00    -0.226 OA
ATOM      8  N   UNL     1      -4.283 -11.611  15.249  0.00  0.00    -0.251 N 
ATOM     16  C   UNL     1      -3.544 -11.155  16.323  0.00  0.00    +0.405 C 
ATOM     31  H   UNL     1      -5.032 -12.265  15.464  0.00  0.00    +0.158 HD
BRANCH   8  18
ATOM     18  C   UNL     1      -4.128 -11.282  13.883  0.00  0.00    +0.036 A 
ATOM     21  C   UNL     1      -3.824 -10.635  11.205  0.00  0.00    -0.045 A 
ATOM     22  C   UNL     1      -3.062 -11.811  13.173  0.00  0.00    +0.024 A 
ATOM     23  C   UNL     1      -5.045 -10.435  13.280  0.00  0.00    +0.024 A 
ATOM     26  C   UNL     1      -2.909 -11.486  11.825  0.00  0.00    +0.006 A 
ATOM     27  C   UNL     1      -4.892 -10.110  11.933  0.00  0.00    +0.006 A 
BRANCH  21  20
ATOM     20  C   UNL     1      -3.662 -10.287   9.764  0.00  0.00    +0.013 C 
ATOM     28  C   UNL     1      -4.449 -11.232   8.837  0.00  0.00    +0.012 C 
ATOM     29  C   UNL     1      -4.042  -8.824   9.465  0.00  0.00    +0.012 C 
ENDBRANCH  21  20
ENDBRANCH   8  18
ENDBRANCH   3  16
ENDBRANCH  12   3
TORSDOF 6
ENDMDL
MODEL 8
REMARK VINA RESULT:      -6.7     16.666     18.892
REMARK  Name = 11884086
REMARK  8 active torsions:
REMARK  status: ('A' for Active; 'I' for Inactive)
REMARK    1  A    between atoms: O_3  and  C_12
REMARK    2  A    between atoms: O_3  and  C_16
REMARK    3  A    between atoms: N_7  and  C_11
REMARK    4  A    between atoms: N_8  and  C_18
REMARK    5  A    between atoms: C_15  and  C_17
REMARK    6  A    between atoms: C_20  and  C_21
REMARK    7  A    between atoms: C_20  and  C_28
REMARK    8  A    between atoms: C_20  and  C_29
REMARK                            x       y       z     vdW  Elec       q    Type
REMARK                         _______ _______ _______ _____ _____    ______ ____
ROOT
ATOM      1  O   UNL     1     -11.805  -8.496  14.705  0.00  0.00    -0.368 OA
ATOM      2  O   UNL     1     -11.184  -6.048  16.446  0.00  0.00    -0.368 OA
ATOM      9  C   UNL     1     -11.055  -6.269  15.026  0.00  0.00    +0.173 C 
ATOM     10  C   UNL     1     -10.611  -7.706  14.844  0.00  0.00    +0.192 C 
ATOM     11  C   UNL     1     -12.414  -6.223  14.368  0.00  0.00    +0.130 C 
ATOM     12  C   UNL     1      -9.897  -7.995  16.142  0.00  0.00    +0.235 C 
ATOM     13  C   UNL     1     -12.943  -7.623  14.621  0.00  0.00    +0.185 C 
ATOM     14  C   UNL     1     -10.723  -7.216  17.141  0.00  0.00    +0.207 C 
ENDROOT
BRANCH  11   7
ATOM      4  O   UNL     1     -12.550  -3.676  13.161  0.00  0.00    -0.267 OA
ATOM      7  N   UNL     1     -12.301  -5.951  12.955  0.00  0.00    -0.301 N 
ATOM     15  C   UNL     1     -12.380  -4.659  12.437  0.00  0.00    +0.280 C 
ATOM     30  H   UNL     1     -12.110  -6.725  12.324  0.00  0.00    +0.150 HD
BRANCH  15  17
ATOM      6  O   UNL     1     -12.712  -5.543  10.248  0.00  0.00    -0.458 OA
ATOM     17  C   UNL     1     -12.214  -4.541  10.981  0.00  0.00    +0.189 A 
ATOM     19  C   UNL     1     -11.633  -3.571  10.252  0.00  0.00    +0.054 A 
ATOM     24  C   UNL     1     -11.774  -3.999   8.910  0.00  0.00    +0.042 A 
ATOM     25  C   UNL     1     -12.437  -5.203   8.961  0.00  0.00    +0.196 A 
ENDBRANCH  15  17
ENDBRANCH  11   7
BRANCH  12   3
ATOM      3  O   UNL     1      -9.837  -9.368  16.458  0.00  0.00    -0.442 OA
BRANCH   3  16
ATOM      5  O   UNL     1      -8.872 -11.012  15.196  0.00  0.00    -0.226 OA
ATOM      8  N   UNL     1      -7.590  -9.550  16.499  0.00  0.00    -0.251 N 
ATOM     16  C   UNL     1      -8.755 -10.073  15.973  0.00  0.00    +0.405 C 
ATOM     31  H   UNL     1      -7.697  -8.762  17.133  0.00  0.00    +0.158 HD
BRANCH   8  18
ATOM     18  C   UNL     1      -6.262  -9.975  16.265  0.00  0.00    +0.036 A 
ATOM     21  C   UNL     1      -3.658 -10.809  15.808  0.00  0.00    -0.045 A 
ATOM     22  C   UNL     1      -5.780 -10.014  14.967  0.00  0.00    +0.024 A 
ATOM     23  C   UNL     1      -5.469 -10.344  17.340  0.00  0.00    +0.024 A 
ATOM     26  C   UNL     1      -4.469 -10.434  14.736  0.00  0.00    +0.006 A 
ATOM     27  C   UNL     1      -4.159 -10.764  17.110  0.00  0.00    +0.006 A 
BRANCH  21  20
ATOM     20  C   UNL     1      -2.258 -11.257  15.563  0.00  0.00    +0.013 C 
ATOM     28  C   UNL     1      -2.116 -12.065  14.260  0.00  0.00    +0.012 C 
ATOM     29  C   UNL     1      -1.256 -10.086  15.563  0.00  0.00    +0.012 C 
ENDBRANCH  21  20
ENDBRANCH   8  18
ENDBRANCH   3  16
ENDBRANCH  12   3
TORSDOF 6
ENDMDL
MODEL 9
REMARK VINA RESULT:      -6.5     18.607     20.243
REMARK  Name = 11884086
REMARK  8 active torsions:
REMARK  status: ('A' for Active; 'I' for Inactive)
REMARK    1  A    between atoms: O_3  and  C_12
REMARK    2  A    between atoms: O_3  and  C_16
REMARK    3  A    between atoms: N_7  and  C_11
REMARK    4  A    between atoms: N_8  and  C_18
REMARK    5  A    between atoms: C_15  and  C_17
REMARK    6  A    between atoms: C_20  and  C_21
REMARK    7  A    between atoms: C_20  and  C_28
REMARK    8  A    between atoms: C_20  and  C_29
REMARK                            x       y       z     vdW  Elec       q    Type
REMARK                         _______ _______ _______ _____ _____    ______ ____
ROOT
ATOM      1  O   UNL     1      -6.943 -12.190  17.000  0.00  0.00    -0.368 OA
ATOM      2  O   UNL     1      -5.235 -10.523  18.926  0.00  0.00    -0.368 OA
ATOM      9  C   UNL     1      -4.944 -11.730  18.190  0.00  0.00    +0.173 C 
ATOM     10  C   UNL     1      -6.214 -12.557  18.184  0.00  0.00    +0.192 C 
ATOM     11  C   UNL     1      -4.715 -11.406  16.732  0.00  0.00    +0.130 C 
ATOM     12  C   UNL     1      -6.913 -12.090  19.438  0.00  0.00    +0.235 C 
ATOM     13  C   UNL     1      -6.132 -11.321  16.194  0.00  0.00    +0.185 C 
ATOM     14  C   UNL     1      -6.556 -10.622  19.476  0.00  0.00    +0.207 C 
ENDROOT
BRANCH  11   7
ATOM      4  O   UNL     1      -3.283 -11.142  14.316  0.00  0.00    -0.267 OA
ATOM      7  N   UNL     1      -3.966 -12.451  16.077  0.00  0.00    -0.301 N 
ATOM     15  C   UNL     1      -3.284 -12.238  14.879  0.00  0.00    +0.280 C 
ATOM     30  H   UNL     1      -3.896 -13.358  16.530  0.00  0.00    +0.150 HD
BRANCH  15  17
ATOM      6  O   UNL     1      -3.027 -14.598  14.661  0.00  0.00    -0.458 OA
ATOM     17  C   UNL     1      -2.540 -13.391  14.352  0.00  0.00    +0.189 A 
ATOM     19  C   UNL     1      -1.429 -13.431  13.595  0.00  0.00    +0.054 A 
ATOM     24  C   UNL     1      -1.179 -14.811  13.399  0.00  0.00    +0.042 A 
ATOM     25  C   UNL     1      -2.179 -15.478  14.067  0.00  0.00    +0.196 A 
ENDBRANCH  15  17
ENDBRANCH  11   7
BRANCH  12   3
ATOM      3  O   UNL     1      -8.308 -12.298  19.415  0.00  0.00    -0.442 OA
BRANCH   3  16
ATOM      5  O   UNL     1      -9.565 -10.644  20.371  0.00  0.00    -0.226 OA
ATOM      8  N   UNL     1      -9.276 -10.783  18.053  0.00  0.00    -0.251 N 
ATOM     16  C   UNL     1      -9.106 -11.173  19.367  0.00  0.00    +0.405 C 
ATOM     31  H   UNL     1      -8.811 -11.354  17.351  0.00  0.00    +0.158 HD
BRANCH   8  18
ATOM     18  C   UNL     1     -10.019  -9.687  17.559  0.00  0.00    +0.036 A 
ATOM     21  C   UNL     1     -11.476  -7.536  16.592  0.00  0.00    -0.045 A 
ATOM     22  C   UNL     1      -9.350  -8.556  17.118  0.00  0.00    +0.024 A 
ATOM     23  C   UNL     1     -11.402  -9.763  17.528  0.00  0.00    +0.024 A 
ATOM     26  C   UNL     1     -10.083  -7.474  16.630  0.00  0.00    +0.006 A 
ATOM     27  C   UNL     1     -12.136  -8.681  17.041  0.00  0.00    +0.006 A 
BRANCH  21  20
ATOM     20  C   UNL     1     -12.261  -6.380  16.072  0.00  0.00    +0.013 C 
ATOM     28  C   UNL     1     -11.646  -5.777  14.795  0.00  0.00    +0.012 C 
ATOM     29  C   UNL     1     -13.739  -6.736  15.822  0.00  0.00    +0.012 C 
ENDBRANCH  21  20
ENDBRANCH   8  18
ENDBRANCH   3  16
ENDBRANCH  12   3
TORSDOF 6
ENDMDL
MODEL 10
REMARK VINA RESULT:      -6.3     22.838     25.496
REMARK  Name = 11884086
REMARK  8 active torsions:
REMARK  status: ('A' for Active; 'I' for Inactive)
REMARK    1  A    between atoms: O_3  and  C_12
REMARK    2  A    between atoms: O_3  and  C_16
REMARK    3  A    between atoms: N_7  and  C_11
REMARK    4  A    between atoms: N_8  and  C_18
REMARK    5  A    between atoms: C_15  and  C_17
REMARK    6  A    between atoms: C_20  and  C_21
REMARK    7  A    between atoms: C_20  and  C_28
REMARK    8  A    between atoms: C_20  and  C_29
REMARK                            x       y       z     vdW  Elec       q    Type
REMARK                         _______ _______ _______ _____ _____    ______ ____
ROOT
ATOM      1  O   UNL     1      -8.193  -7.703   3.225  0.00  0.00    -0.368 OA
ATOM      2  O   UNL     1     -10.875  -8.512   4.473  0.00  0.00    -0.368 OA
ATOM      9  C   UNL     1     -10.375  -7.235   4.027  0.00  0.00    +0.173 C 
ATOM     10  C   UNL     1      -8.899  -7.196   4.370  0.00  0.00    +0.192 C 
ATOM     11  C   UNL     1     -10.398  -7.167   2.518  0.00  0.00    +0.130 C 
ATOM     12  C   UNL     1      -8.813  -8.141   5.544  0.00  0.00    +0.235 C 
ATOM     13  C   UNL     1      -9.118  -7.892   2.143  0.00  0.00    +0.185 C 
ATOM     14  C   UNL     1      -9.831  -9.197   5.181  0.00  0.00    +0.207 C 
ENDROOT
BRANCH  11   7
ATOM      4  O   UNL     1     -11.345  -6.259   0.020  0.00  0.00    -0.267 OA
ATOM      7  N   UNL     1     -10.383  -5.800   2.055  0.00  0.00    -0.301 N 
ATOM     15  C   UNL     1     -10.871  -5.433   0.802  0.00  0.00    +0.280 C 
ATOM     30  H   UNL     1     -10.048  -5.077   2.686  0.00  0.00    +0.150 HD
BRANCH  15  17
ATOM      6  O   UNL     1      -9.760  -3.330   0.964  0.00  0.00    -0.458 OA
ATOM     17  C   UNL     1     -10.817  -3.997   0.489  0.00  0.00    +0.189 A 
ATOM     19  C   UNL     1     -11.673  -3.232  -0.213  0.00  0.00    +0.054 A 
ATOM     24  C   UNL     1     -11.101  -1.937  -0.182  0.00  0.00    +0.042 A 
ATOM     25  C   UNL     1      -9.939  -2.050   0.546  0.00  0.00    +0.196 A 
ENDBRANCH  15  17
ENDBRANCH  11   7
BRANCH  12   3
ATOM      3  O   UNL     1      -7.526  -8.686   5.733  0.00  0.00    -0.442 OA
BRANCH   3  16
ATOM      5  O   UNL     1      -7.838  -8.648   7.999  0.00  0.00    -0.226 OA
ATOM      8  N   UNL     1      -5.841  -9.409   7.045  0.00  0.00    -0.251 N 
ATOM     16  C   UNL     1      -7.123  -8.897   7.036  0.00  0.00    +0.405 C 
ATOM     31  H   UNL     1      -5.406  -9.549   6.136  0.00  0.00    +0.158 HD
BRANCH   8  18
ATOM     18  C   UNL     1      -5.053  -9.766   8.164  0.00  0.00    +0.036 A 
ATOM     21  C   UNL     1      -3.510 -10.464  10.359  0.00  0.00    -0.045 A 
ATOM     22  C   UNL     1      -4.953 -11.099   8.527  0.00  0.00    +0.024 A 
ATOM     23  C   UNL     1      -4.398  -8.774   8.876  0.00  0.00    +0.024 A 
ATOM     26  C   UNL     1      -4.176 -11.451   9.632  0.00  0.00    +0.006 A 
ATOM     27  C   UNL     1      -3.621  -9.125   9.981  0.00  0.00    +0.006 A 
BRANCH  21  20
ATOM     20  C   UNL     1      -2.679 -10.838  11.539  0.00  0.00    +0.013 C 
ATOM     28  C   UNL     1      -1.499  -9.873  11.759  0.00  0.00    +0.012 C 
ATOM     29  C   UNL     1      -3.510 -10.952  12.831  0.00  0.00    +0.012 C 
ENDBRANCH  21  20
ENDBRANCH   8  18
ENDBRANCH   3  16
ENDBRANCH  12   3
TORSDOF 6
ENDMDL
