MODEL 1
REMARK VINA RESULT:      -6.9      0.000      0.000
REMARK  Name = 75536839
REMARK  6 active torsions:
REMARK  status: ('A' for Active; 'I' for Inactive)
REMARK    1  A    between atoms: O_2  and  C_10
REMARK    2  A    between atoms: N_5  and  C_9
REMARK    3  A    between atoms: N_5  and  C_14
REMARK    4  A    between atoms: N_6  and  C_13
REMARK    5  A    between atoms: C_11  and  C_13
REMARK    6  A    between atoms: C_14  and  C_18
REMARK                            x       y       z     vdW  Elec       q    Type
REMARK                         _______ _______ _______ _____ _____    ______ ____
ROOT
ATOM      1  O   UNL     1      10.979   8.783  20.245  0.00  0.00    -0.371 OA
ATOM      9  C   UNL     1      12.372   6.933  19.718  0.00  0.00    +0.111 C 
ATOM     10  C   UNL     1      12.074   6.919  21.206  0.00  0.00    +0.164 C 
ATOM     11  C   UNL     1      10.818   7.779  21.261  0.00  0.00    +0.165 C 
ATOM     12  C   UNL     1      12.030   8.368  19.355  0.00  0.00    +0.181 C 
ENDROOT
BRANCH  10   2
ATOM      2  O   UNL     1      11.843   5.616  21.705  0.00  0.00    -0.388 OA
ATOM     27  H   UNL     1      10.897   5.531  21.912  0.00  0.00    +0.210 HD
ENDBRANCH  10   2
BRANCH   9   5
ATOM      5  N   UNL     1      13.744   6.578  19.394  0.00  0.00    -0.305 NA
ATOM     25  H   UNL     1      13.835   6.490  18.381  0.00  0.00    +0.123 HD
BRANCH   5  14
ATOM     14  C   UNL     1      14.675   7.596  19.864  0.00  0.00    +0.116 C 
BRANCH  14  18
ATOM      8  N   UNL     1      18.686   6.075  20.178  0.00  0.00    -0.263 NA
ATOM     18  C   UNL     1      16.079   7.064  19.973  0.00  0.00    -0.031 A 
ATOM     21  C   UNL     1      16.548   6.136  19.050  0.00  0.00    +0.024 A 
ATOM     22  C   UNL     1      16.912   7.497  21.000  0.00  0.00    +0.024 A 
ATOM     23  C   UNL     1      17.848   5.677  19.195  0.00  0.00    +0.111 A 
ATOM     24  C   UNL     1      18.195   6.977  21.057  0.00  0.00    +0.111 A 
ENDBRANCH  14  18
ENDBRANCH   5  14
ENDBRANCH   9   5
BRANCH  11  13
ATOM     13  C   UNL     1      10.603   8.443  22.610  0.00  0.00    +0.140 C 
BRANCH  13   6
ATOM      3  O   UNL     1      14.693  12.900  24.755  0.00  0.00    -0.377 OA
ATOM      4  O   UNL     1      10.241  11.005  23.716  0.00  0.00    -0.253 OA
ATOM      6  N   UNL     1      11.655   9.390  22.906  0.00  0.00    -0.297 N 
ATOM      7  N   UNL     1      12.518  11.449  23.680  0.00  0.00    -0.281 N 
ATOM     15  C   UNL     1      11.392  10.639  23.455  0.00  0.00    +0.302 C 
ATOM     16  C   UNL     1      12.333  12.786  24.249  0.00  0.00    +0.137 C 
ATOM     17  C   UNL     1      13.896  11.155  23.260  0.00  0.00    +0.137 C 
ATOM     19  C   UNL     1      13.387  13.080  25.305  0.00  0.00    +0.179 C 
ATOM     20  C   UNL     1      14.890  11.544  24.350  0.00  0.00    +0.179 C 
ATOM     26  H   UNL     1      12.593   9.096  22.675  0.00  0.00    +0.150 HD
ENDBRANCH  13   6
ENDBRANCH  11  13
TORSDOF 6
ENDMDL
MODEL 2
REMARK VINA RESULT:      -6.8      3.682      7.235
REMARK  Name = 75536839
REMARK  6 active torsions:
REMARK  status: ('A' for Active; 'I' for Inactive)
REMARK    1  A    between atoms: O_2  and  C_10
REMARK    2  A    between atoms: N_5  and  C_9
REMARK    3  A    between atoms: N_5  and  C_14
REMARK    4  A    between atoms: N_6  and  C_13
REMARK    5  A    between atoms: C_11  and  C_13
REMARK    6  A    between atoms: C_14  and  C_18
REMARK                            x       y       z     vdW  Elec       q    Type
REMARK                         _______ _______ _______ _____ _____    ______ ____
ROOT
ATOM      1  O   UNL     1      14.498   8.084  22.225  0.00  0.00    -0.371 OA
ATOM      9  C   UNL     1      13.443   6.669  20.635  0.00  0.00    +0.111 C 
ATOM     10  C   UNL     1      14.847   6.989  20.157  0.00  0.00    +0.164 C 
ATOM     11  C   UNL     1      15.512   7.409  21.461  0.00  0.00    +0.165 C 
ATOM     12  C   UNL     1      13.214   7.771  21.657  0.00  0.00    +0.181 C 
ENDROOT
BRANCH  10   2
ATOM      2  O   UNL     1      15.492   5.874  19.572  0.00  0.00    -0.388 OA
ATOM     27  H   UNL     1      16.435   5.912  19.802  0.00  0.00    +0.210 HD
ENDBRANCH  10   2
BRANCH   9   5
ATOM      5  N   UNL     1      12.451   6.668  19.573  0.00  0.00    -0.305 NA
ATOM     25  H   UNL     1      11.691   6.035  19.827  0.00  0.00    +0.123 HD
BRANCH   5  14
ATOM     14  C   UNL     1      11.903   8.002  19.363  0.00  0.00    +0.116 C 
BRANCH  14  18
ATOM      8  N   UNL     1      12.267   9.254  15.264  0.00  0.00    -0.263 NA
ATOM     18  C   UNL     1      12.030   8.441  17.928  0.00  0.00    -0.031 A 
ATOM     21  C   UNL     1      10.891   8.641  17.156  0.00  0.00    +0.024 A 
ATOM     22  C   UNL     1      13.287   8.646  17.370  0.00  0.00    +0.024 A 
ATOM     23  C   UNL     1      11.062   9.044  15.841  0.00  0.00    +0.111 A 
ATOM     24  C   UNL     1      13.350   9.049  16.046  0.00  0.00    +0.111 A 
ENDBRANCH  14  18
ENDBRANCH   5  14
ENDBRANCH   9   5
BRANCH  11  13
ATOM     13  C   UNL     1      16.702   8.331  21.259  0.00  0.00    +0.140 C 
BRANCH  13   6
ATOM      3  O   UNL     1      22.465   5.675  22.222  0.00  0.00    -0.377 OA
ATOM      4  O   UNL     1      18.248   6.511  19.771  0.00  0.00    -0.253 OA
ATOM      6  N   UNL     1      17.932   7.712  21.700  0.00  0.00    -0.297 N 
ATOM      7  N   UNL     1      19.811   6.298  21.471  0.00  0.00    -0.281 N 
ATOM     15  C   UNL     1      18.638   6.820  20.902  0.00  0.00    +0.302 C 
ATOM     16  C   UNL     1      20.615   5.344  20.703  0.00  0.00    +0.137 C 
ATOM     17  C   UNL     1      20.264   6.494  22.857  0.00  0.00    +0.137 C 
ATOM     19  C   UNL     1      22.099   5.646  20.842  0.00  0.00    +0.179 C 
ATOM     20  C   UNL     1      21.772   6.720  22.907  0.00  0.00    +0.179 C 
ATOM     26  H   UNL     1      18.239   7.952  22.631  0.00  0.00    +0.150 HD
ENDBRANCH  13   6
ENDBRANCH  11  13
TORSDOF 6
ENDMDL
MODEL 3
REMARK VINA RESULT:      -6.8      2.611      6.898
REMARK  Name = 75536839
REMARK  6 active torsions:
REMARK  status: ('A' for Active; 'I' for Inactive)
REMARK    1  A    between atoms: O_2  and  C_10
REMARK    2  A    between atoms: N_5  and  C_9
REMARK    3  A    between atoms: N_5  and  C_14
REMARK    4  A    between atoms: N_6  and  C_13
REMARK    5  A    between atoms: C_11  and  C_13
REMARK    6  A    between atoms: C_14  and  C_18
REMARK                            x       y       z     vdW  Elec       q    Type
REMARK                         _______ _______ _______ _____ _____    ______ ____
ROOT
ATOM      1  O   UNL     1      13.263   6.655  20.673  0.00  0.00    -0.371 OA
ATOM      9  C   UNL     1      11.126   7.690  20.715  0.00  0.00    +0.111 C 
ATOM     10  C   UNL     1      11.881   8.165  19.487  0.00  0.00    +0.164 C 
ATOM     11  C   UNL     1      12.920   7.061  19.338  0.00  0.00    +0.165 C 
ATOM     12  C   UNL     1      12.256   7.149  21.574  0.00  0.00    +0.181 C 
ENDROOT
BRANCH  10   2
ATOM      2  O   UNL     1      11.055   8.270  18.344  0.00  0.00    -0.388 OA
ATOM     27  H   UNL     1      10.993   7.393  17.931  0.00  0.00    +0.210 HD
ENDBRANCH  10   2
BRANCH   9   5
ATOM      5  N   UNL     1      10.366   8.740  21.374  0.00  0.00    -0.305 NA
ATOM     25  H   UNL     1       9.414   8.409  21.539  0.00  0.00    +0.123 HD
BRANCH   5  14
ATOM     14  C   UNL     1      10.967   9.100  22.652  0.00  0.00    +0.116 C 
BRANCH  14  18
ATOM      8  N   UNL     1      11.252  13.364  23.139  0.00  0.00    -0.263 NA
ATOM     18  C   UNL     1      11.067  10.593  22.823  0.00  0.00    -0.031 A 
ATOM     21  C   UNL     1      10.844  11.169  24.068  0.00  0.00    +0.024 A 
ATOM     22  C   UNL     1      11.382  11.400  21.735  0.00  0.00    +0.024 A 
ATOM     23  C   UNL     1      10.947  12.548  24.173  0.00  0.00    +0.111 A 
ATOM     24  C   UNL     1      11.461  12.767  21.944  0.00  0.00    +0.111 A 
ENDBRANCH  14  18
ENDBRANCH   5  14
ENDBRANCH   9   5
BRANCH  11  13
ATOM     13  C   UNL     1      14.170   7.509  18.600  0.00  0.00    +0.140 C 
BRANCH  13   6
ATOM      3  O   UNL     1      19.685   7.941  21.854  0.00  0.00    -0.377 OA
ATOM      4  O   UNL     1      16.394   5.801  18.843  0.00  0.00    -0.253 OA
ATOM      6  N   UNL     1      15.281   7.694  19.507  0.00  0.00    -0.297 N 
ATOM      7  N   UNL     1      17.345   7.114  20.501  0.00  0.00    -0.281 N 
ATOM     15  C   UNL     1      16.345   6.802  19.566  0.00  0.00    +0.302 C 
ATOM     16  C   UNL     1      18.501   6.224  20.635  0.00  0.00    +0.137 C 
ATOM     17  C   UNL     1      17.293   8.193  21.499  0.00  0.00    +0.137 C 
ATOM     19  C   UNL     1      19.790   7.020  20.768  0.00  0.00    +0.179 C 
ATOM     20  C   UNL     1      18.645   8.890  21.615  0.00  0.00    +0.179 C 
ATOM     26  H   UNL     1      15.230   8.502  20.109  0.00  0.00    +0.150 HD
ENDBRANCH  13   6
ENDBRANCH  11  13
TORSDOF 6
ENDMDL
MODEL 4
REMARK VINA RESULT:      -6.4      4.524      7.600
REMARK  Name = 75536839
REMARK  6 active torsions:
REMARK  status: ('A' for Active; 'I' for Inactive)
REMARK    1  A    between atoms: O_2  and  C_10
REMARK    2  A    between atoms: N_5  and  C_9
REMARK    3  A    between atoms: N_5  and  C_14
REMARK    4  A    between atoms: N_6  and  C_13
REMARK    5  A    between atoms: C_11  and  C_13
REMARK    6  A    between atoms: C_14  and  C_18
REMARK                            x       y       z     vdW  Elec       q    Type
REMARK                         _______ _______ _______ _____ _____    ______ ____
ROOT
ATOM      1  O   UNL     1      19.115   7.178  21.674  0.00  0.00    -0.371 OA
ATOM      9  C   UNL     1      20.134   5.502  20.335  0.00  0.00    +0.111 C 
ATOM     10  C   UNL     1      18.640   5.509  20.067  0.00  0.00    +0.164 C 
ATOM     11  C   UNL     1      18.262   6.903  20.551  0.00  0.00    +0.165 C 
ATOM     12  C   UNL     1      20.206   6.241  21.661  0.00  0.00    +0.181 C 
ENDROOT
BRANCH  10   2
ATOM      2  O   UNL     1      18.329   5.323  18.700  0.00  0.00    -0.388 OA
ATOM     27  H   UNL     1      18.314   4.369  18.518  0.00  0.00    +0.210 HD
ENDBRANCH  10   2
BRANCH   9   5
ATOM      5  N   UNL     1      20.709   4.169  20.397  0.00  0.00    -0.305 NA
ATOM     25  H   UNL     1      21.172   3.964  19.510  0.00  0.00    +0.123 HD
BRANCH   5  14
ATOM     14  C   UNL     1      21.687   4.068  21.473  0.00  0.00    +0.116 C 
BRANCH  14  18
ATOM      8  N   UNL     1      25.575   2.958  20.006  0.00  0.00    -0.263 NA
ATOM     18  C   UNL     1      23.048   3.679  20.959  0.00  0.00    -0.031 A 
ATOM     21  C   UNL     1      23.511   2.378  21.125  0.00  0.00    +0.024 A 
ATOM     22  C   UNL     1      23.847   4.620  20.318  0.00  0.00    +0.024 A 
ATOM     23  C   UNL     1      24.771   2.071  20.635  0.00  0.00    +0.111 A 
ATOM     24  C   UNL     1      25.091   4.212  19.864  0.00  0.00    +0.111 A 
ENDBRANCH  14  18
ENDBRANCH   5  14
ENDBRANCH   9   5
BRANCH  11  13
ATOM     13  C   UNL     1      16.807   7.019  20.970  0.00  0.00    +0.140 C 
BRANCH  13   6
ATOM      3  O   UNL     1      12.325   8.421  16.595  0.00  0.00    -0.377 OA
ATOM      4  O   UNL     1      13.996   6.871  20.987  0.00  0.00    -0.253 OA
ATOM      6  N   UNL     1      15.944   7.236  19.831  0.00  0.00    -0.297 N 
ATOM      7  N   UNL     1      13.859   7.375  18.727  0.00  0.00    -0.281 N 
ATOM     15  C   UNL     1      14.560   7.144  19.922  0.00  0.00    +0.302 C 
ATOM     16  C   UNL     1      12.396   7.292  18.730  0.00  0.00    +0.137 C 
ATOM     17  C   UNL     1      14.453   7.555  17.394  0.00  0.00    +0.137 C 
ATOM     19  C   UNL     1      11.784   8.422  17.917  0.00  0.00    +0.179 C 
ATOM     20  C   UNL     1      13.733   8.659  16.624  0.00  0.00    +0.179 C 
ATOM     26  H   UNL     1      16.407   7.441  18.957  0.00  0.00    +0.150 HD
ENDBRANCH  13   6
ENDBRANCH  11  13
TORSDOF 6
ENDMDL
MODEL 5
REMARK VINA RESULT:      -6.4      3.293      7.096
REMARK  Name = 75536839
REMARK  6 active torsions:
REMARK  status: ('A' for Active; 'I' for Inactive)
REMARK    1  A    between atoms: O_2  and  C_10
REMARK    2  A    between atoms: N_5  and  C_9
REMARK    3  A    between atoms: N_5  and  C_14
REMARK    4  A    between atoms: N_6  and  C_13
REMARK    5  A    between atoms: C_11  and  C_13
REMARK    6  A    between atoms: C_14  and  C_18
REMARK                            x       y       z     vdW  Elec       q    Type
REMARK                         _______ _______ _______ _____ _____    ______ ____
ROOT
ATOM      1  O   UNL     1      12.376   6.591  21.313  0.00  0.00    -0.371 OA
ATOM      9  C   UNL     1      10.625   8.195  21.301  0.00  0.00    +0.111 C 
ATOM     10  C   UNL     1      11.417   8.317  20.012  0.00  0.00    +0.164 C 
ATOM     11  C   UNL     1      12.091   6.953  19.952  0.00  0.00    +0.165 C 
ATOM     12  C   UNL     1      11.601   7.434  22.183  0.00  0.00    +0.181 C 
ENDROOT
BRANCH  10   2
ATOM      2  O   UNL     1      10.594   8.549  18.885  0.00  0.00    -0.388 OA
ATOM     27  H   UNL     1       9.668   8.430  19.154  0.00  0.00    +0.210 HD
ENDBRANCH  10   2
BRANCH   9   5
ATOM      5  N   UNL     1      10.230   9.475  21.867  0.00  0.00    -0.305 NA
ATOM     25  H   UNL     1       9.871   9.325  22.810  0.00  0.00    +0.123 HD
BRANCH   5  14
ATOM     14  C   UNL     1      11.361  10.392  21.933  0.00  0.00    +0.116 C 
BRANCH  14  18
ATOM      8  N   UNL     1      10.765  13.459  24.889  0.00  0.00    -0.263 NA
ATOM     18  C   UNL     1      11.152  11.466  22.967  0.00  0.00    -0.031 A 
ATOM     21  C   UNL     1      10.980  12.789  22.576  0.00  0.00    +0.024 A 
ATOM     22  C   UNL     1      11.131  11.138  24.319  0.00  0.00    +0.024 A 
ATOM     23  C   UNL     1      10.792  13.739  23.567  0.00  0.00    +0.111 A 
ATOM     24  C   UNL     1      10.935  12.162  25.231  0.00  0.00    +0.111 A 
ENDBRANCH  14  18
ENDBRANCH   5  14
ENDBRANCH   9   5
BRANCH  11  13
ATOM     13  C   UNL     1      13.375   6.953  19.140  0.00  0.00    +0.140 C 
BRANCH  13   6
ATOM      3  O   UNL     1      14.446  12.677  16.441  0.00  0.00    -0.377 OA
ATOM      4  O   UNL     1      13.974   7.751  16.509  0.00  0.00    -0.253 OA
ATOM      6  N   UNL     1      13.739   8.290  18.727  0.00  0.00    -0.297 N 
ATOM      7  N   UNL     1      14.364   9.943  17.159  0.00  0.00    -0.281 N 
ATOM     15  C   UNL     1      14.021   8.604  17.402  0.00  0.00    +0.302 C 
ATOM     16  C   UNL     1      14.685  10.362  15.792  0.00  0.00    +0.137 C 
ATOM     17  C   UNL     1      14.590  10.980  18.177  0.00  0.00    +0.137 C 
ATOM     19  C   UNL     1      14.051  11.706  15.470  0.00  0.00    +0.179 C 
ATOM     20  C   UNL     1      13.982  12.310  17.741  0.00  0.00    +0.179 C 
ATOM     26  H   UNL     1      13.794   8.981  19.461  0.00  0.00    +0.150 HD
ENDBRANCH  13   6
ENDBRANCH  11  13
TORSDOF 6
ENDMDL
MODEL 6
REMARK VINA RESULT:      -6.3      2.869      5.313
REMARK  Name = 75536839
REMARK  6 active torsions:
REMARK  status: ('A' for Active; 'I' for Inactive)
REMARK    1  A    between atoms: O_2  and  C_10
REMARK    2  A    between atoms: N_5  and  C_9
REMARK    3  A    between atoms: N_5  and  C_14
REMARK    4  A    between atoms: N_6  and  C_13
REMARK    5  A    between atoms: C_11  and  C_13
REMARK    6  A    between atoms: C_14  and  C_18
REMARK                            x       y       z     vdW  Elec       q    Type
REMARK                         _______ _______ _______ _____ _____    ______ ____
ROOT
ATOM      1  O   UNL     1      17.270   5.933  18.986  0.00  0.00    -0.371 OA
ATOM      9  C   UNL     1      17.893   6.463  21.216  0.00  0.00    +0.111 C 
ATOM     10  C   UNL     1      16.537   7.078  20.922  0.00  0.00    +0.164 C 
ATOM     11  C   UNL     1      16.083   6.234  19.739  0.00  0.00    +0.165 C 
ATOM     12  C   UNL     1      18.416   6.201  19.813  0.00  0.00    +0.181 C 
ENDROOT
BRANCH  10   2
ATOM      2  O   UNL     1      15.644   6.979  22.014  0.00  0.00    -0.388 OA
ATOM     27  H   UNL     1      15.913   6.223  22.562  0.00  0.00    +0.210 HD
ENDBRANCH  10   2
BRANCH   9   5
ATOM      5  N   UNL     1      18.768   7.324  21.996  0.00  0.00    -0.305 NA
ATOM     25  H   UNL     1      18.203   7.877  22.641  0.00  0.00    +0.123 HD
BRANCH   5  14
ATOM     14  C   UNL     1      19.728   6.541  22.763  0.00  0.00    +0.116 C 
BRANCH  14  18
ATOM      8  N   UNL     1      23.296   5.724  20.504  0.00  0.00    -0.263 NA
ATOM     18  C   UNL     1      20.977   6.254  21.972  0.00  0.00    -0.031 A 
ATOM     21  C   UNL     1      21.424   4.946  21.822  0.00  0.00    +0.024 A 
ATOM     22  C   UNL     1      21.688   7.297  21.389  0.00  0.00    +0.024 A 
ATOM     23  C   UNL     1      22.579   4.735  21.085  0.00  0.00    +0.111 A 
ATOM     24  C   UNL     1      22.831   6.982  20.672  0.00  0.00    +0.111 A 
ENDBRANCH  14  18
ENDBRANCH   5  14
ENDBRANCH   9   5
BRANCH  11  13
ATOM     13  C   UNL     1      15.076   6.941  18.848  0.00  0.00    +0.140 C 
BRANCH  13   6
ATOM      3  O   UNL     1      10.902  10.055  22.600  0.00  0.00    -0.377 OA
ATOM      4  O   UNL     1      12.355   6.534  19.442  0.00  0.00    -0.253 OA
ATOM      6  N   UNL     1      14.235   7.838  19.610  0.00  0.00    -0.297 N 
ATOM      7  N   UNL     1      12.210   8.533  20.609  0.00  0.00    -0.281 N 
ATOM     15  C   UNL     1      12.896   7.563  19.860  0.00  0.00    +0.302 C 
ATOM     16  C   UNL     1      10.791   8.329  20.914  0.00  0.00    +0.137 C 
ATOM     17  C   UNL     1      12.732   9.847  21.012  0.00  0.00    +0.137 C 
ATOM     19  C   UNL     1      10.482   8.713  22.352  0.00  0.00    +0.179 C 
ATOM     20  C   UNL     1      12.316  10.180  22.442  0.00  0.00    +0.179 C 
ATOM     26  H   UNL     1      14.674   8.687  19.935  0.00  0.00    +0.150 HD
ENDBRANCH  13   6
ENDBRANCH  11  13
TORSDOF 6
ENDMDL
MODEL 7
REMARK VINA RESULT:      -6.3      4.788      9.078
REMARK  Name = 75536839
REMARK  6 active torsions:
REMARK  status: ('A' for Active; 'I' for Inactive)
REMARK    1  A    between atoms: O_2  and  C_10
REMARK    2  A    between atoms: N_5  and  C_9
REMARK    3  A    between atoms: N_5  and  C_14
REMARK    4  A    between atoms: N_6  and  C_13
REMARK    5  A    between atoms: C_11  and  C_13
REMARK    6  A    between atoms: C_14  and  C_18
REMARK                            x       y       z     vdW  Elec       q    Type
REMARK                         _______ _______ _______ _____ _____    ______ ____
ROOT
ATOM      1  O   UNL     1      17.591   6.901  21.611  0.00  0.00    -0.371 OA
ATOM      9  C   UNL     1      16.247   6.141  19.806  0.00  0.00    +0.111 C 
ATOM     10  C   UNL     1      17.695   6.200  19.354  0.00  0.00    +0.164 C 
ATOM     11  C   UNL     1      18.421   6.170  20.692  0.00  0.00    +0.165 C 
ATOM     12  C   UNL     1      16.279   7.032  21.037  0.00  0.00    +0.181 C 
ENDROOT
BRANCH  10   2
ATOM      2  O   UNL     1      18.057   5.107  18.533  0.00  0.00    -0.388 OA
ATOM     27  H   UNL     1      18.293   5.449  17.655  0.00  0.00    +0.210 HD
ENDBRANCH  10   2
BRANCH   9   5
ATOM      5  N   UNL     1      15.303   6.598  18.800  0.00  0.00    -0.305 NA
ATOM     25  H   UNL     1      14.465   6.017  18.841  0.00  0.00    +0.123 HD
BRANCH   5  14
ATOM     14  C   UNL     1      14.924   7.987  19.027  0.00  0.00    +0.116 C 
BRANCH  14  18
ATOM      8  N   UNL     1      10.656   8.515  18.948  0.00  0.00    -0.263 NA
ATOM     18  C   UNL     1      13.430   8.172  19.000  0.00  0.00    -0.031 A 
ATOM     21  C   UNL     1      12.694   8.086  20.177  0.00  0.00    +0.024 A 
ATOM     22  C   UNL     1      12.781   8.429  17.797  0.00  0.00    +0.024 A 
ATOM     23  C   UNL     1      11.322   8.264  20.098  0.00  0.00    +0.111 A 
ATOM     24  C   UNL     1      11.405   8.591  17.825  0.00  0.00    +0.111 A 
ENDBRANCH  14  18
ENDBRANCH   5  14
ENDBRANCH   9   5
BRANCH  11  13
ATOM     13  C   UNL     1      19.804   6.797  20.639  0.00  0.00    +0.140 C 
BRANCH  13   6
ATOM      3  O   UNL     1      23.818   2.104  22.388  0.00  0.00    -0.377 OA
ATOM      4  O   UNL     1      20.704   5.875  23.141  0.00  0.00    -0.253 OA
ATOM      6  N   UNL     1      20.840   5.811  20.852  0.00  0.00    -0.297 N 
ATOM      7  N   UNL     1      22.251   4.447  22.168  0.00  0.00    -0.281 N 
ATOM     15  C   UNL     1      21.227   5.408  22.124  0.00  0.00    +0.302 C 
ATOM     16  C   UNL     1      22.727   3.969  23.469  0.00  0.00    +0.137 C 
ATOM     17  C   UNL     1      23.027   3.954  21.021  0.00  0.00    +0.137 C 
ATOM     19  C   UNL     1      22.937   2.463  23.453  0.00  0.00    +0.179 C 
ATOM     20  C   UNL     1      23.249   2.448  21.123  0.00  0.00    +0.179 C 
ATOM     26  H   UNL     1      21.279   5.444  20.020  0.00  0.00    +0.150 HD
ENDBRANCH  13   6
ENDBRANCH  11  13
TORSDOF 6
ENDMDL
MODEL 8
REMARK VINA RESULT:      -6.1     26.482     28.458
REMARK  Name = 75536839
REMARK  6 active torsions:
REMARK  status: ('A' for Active; 'I' for Inactive)
REMARK    1  A    between atoms: O_2  and  C_10
REMARK    2  A    between atoms: N_5  and  C_9
REMARK    3  A    between atoms: N_5  and  C_14
REMARK    4  A    between atoms: N_6  and  C_13
REMARK    5  A    between atoms: C_11  and  C_13
REMARK    6  A    between atoms: C_14  and  C_18
REMARK                            x       y       z     vdW  Elec       q    Type
REMARK                         _______ _______ _______ _____ _____    ______ ____
ROOT
ATOM      1  O   UNL     1      -5.237 -11.684  15.974  0.00  0.00    -0.371 OA
ATOM      9  C   UNL     1      -3.163 -11.242  14.904  0.00  0.00    +0.111 C 
ATOM     10  C   UNL     1      -3.088 -10.767  16.344  0.00  0.00    +0.164 C 
ATOM     11  C   UNL     1      -4.213 -11.574  16.977  0.00  0.00    +0.165 C 
ATOM     12  C   UNL     1      -4.666 -11.345  14.699  0.00  0.00    +0.181 C 
ENDROOT
BRANCH  10   2
ATOM      2  O   UNL     1      -1.838 -11.042  16.945  0.00  0.00    -0.388 OA
ATOM     27  H   UNL     1      -1.419 -11.771  16.458  0.00  0.00    +0.210 HD
ENDBRANCH  10   2
BRANCH   9   5
ATOM      5  N   UNL     1      -2.523 -10.342  13.959  0.00  0.00    -0.305 NA
ATOM     25  H   UNL     1      -1.777  -9.834  14.435  0.00  0.00    +0.123 HD
BRANCH   5  14
ATOM     14  C   UNL     1      -1.949 -11.078  12.839  0.00  0.00    +0.116 C 
BRANCH  14  18
ATOM      8  N   UNL     1      -4.140 -10.414   9.198  0.00  0.00    -0.263 NA
ATOM     18  C   UNL     1      -2.716 -10.845  11.564  0.00  0.00    -0.031 A 
ATOM     21  C   UNL     1      -2.756  -9.577  10.995  0.00  0.00    +0.024 A 
ATOM     22  C   UNL     1      -3.387 -11.898  10.952  0.00  0.00    +0.024 A 
ATOM     23  C   UNL     1      -3.476  -9.415   9.822  0.00  0.00    +0.111 A 
ATOM     24  C   UNL     1      -4.078 -11.632   9.781  0.00  0.00    +0.111 A 
ENDBRANCH  14  18
ENDBRANCH   5  14
ENDBRANCH   9   5
BRANCH  11  13
ATOM     13  C   UNL     1      -4.786 -10.928  18.227  0.00  0.00    +0.140 C 
BRANCH  13   6
ATOM      3  O   UNL     1     -11.096  -9.872  18.739  0.00  0.00    -0.377 OA
ATOM      4  O   UNL     1      -6.719 -11.730  20.109  0.00  0.00    -0.253 OA
ATOM      6  N   UNL     1      -6.212 -10.724  18.110  0.00  0.00    -0.297 N 
ATOM      7  N   UNL     1      -8.458 -10.885  18.827  0.00  0.00    -0.281 N 
ATOM     15  C   UNL     1      -7.104 -11.151  19.087  0.00  0.00    +0.302 C 
ATOM     16  C   UNL     1      -9.468 -11.308  19.801  0.00  0.00    +0.137 C 
ATOM     17  C   UNL     1      -9.012 -10.342  17.577  0.00  0.00    +0.137 C 
ATOM     19  C   UNL     1     -10.521 -10.228  19.997  0.00  0.00    +0.179 C 
ATOM     20  C   UNL     1     -10.107  -9.321  17.868  0.00  0.00    +0.179 C 
ATOM     26  H   UNL     1      -6.527 -10.267  17.266  0.00  0.00    +0.150 HD
ENDBRANCH  13   6
ENDBRANCH  11  13
TORSDOF 6
ENDMDL
MODEL 9
REMARK VINA RESULT:      -5.9      3.310      6.696
REMARK  Name = 75536839
REMARK  6 active torsions:
REMARK  status: ('A' for Active; 'I' for Inactive)
REMARK    1  A    between atoms: O_2  and  C_10
REMARK    2  A    between atoms: N_5  and  C_9
REMARK    3  A    between atoms: N_5  and  C_14
REMARK    4  A    between atoms: N_6  and  C_13
REMARK    5  A    between atoms: C_11  and  C_13
REMARK    6  A    between atoms: C_14  and  C_18
REMARK                            x       y       z     vdW  Elec       q    Type
REMARK                         _______ _______ _______ _____ _____    ______ ____
ROOT
ATOM      1  O   UNL     1      12.424   6.607  21.421  0.00  0.00    -0.371 OA
ATOM      9  C   UNL     1      10.613   8.143  21.372  0.00  0.00    +0.111 C 
ATOM     10  C   UNL     1      11.411   8.279  20.088  0.00  0.00    +0.164 C 
ATOM     11  C   UNL     1      12.137   6.941  20.052  0.00  0.00    +0.165 C 
ATOM     12  C   UNL     1      11.609   7.431  22.272  0.00  0.00    +0.181 C 
ENDROOT
BRANCH  10   2
ATOM      2  O   UNL     1      10.590   8.464  18.951  0.00  0.00    -0.388 OA
ATOM     27  H   UNL     1       9.672   8.569  19.251  0.00  0.00    +0.210 HD
ENDBRANCH  10   2
BRANCH   9   5
ATOM      5  N   UNL     1      10.163   9.413  21.917  0.00  0.00    -0.305 NA
ATOM     25  H   UNL     1       9.443   9.239  22.618  0.00  0.00    +0.123 HD
BRANCH   5  14
ATOM     14  C   UNL     1      11.264  10.136  22.542  0.00  0.00    +0.116 C 
BRANCH  14  18
ATOM      8  N   UNL     1      12.012  13.902  20.602  0.00  0.00    -0.263 NA
ATOM     18  C   UNL     1      11.526  11.454  21.864  0.00  0.00    -0.031 A 
ATOM     21  C   UNL     1      10.880  12.605  22.302  0.00  0.00    +0.024 A 
ATOM     22  C   UNL     1      12.414  11.525  20.795  0.00  0.00    +0.024 A 
ATOM     23  C   UNL     1      11.155  13.794  21.643  0.00  0.00    +0.111 A 
ATOM     24  C   UNL     1      12.620  12.762  20.205  0.00  0.00    +0.111 A 
ENDBRANCH  14  18
ENDBRANCH   5  14
ENDBRANCH   9   5
BRANCH  11  13
ATOM     13  C   UNL     1      13.428   6.980  19.252  0.00  0.00    +0.140 C 
BRANCH  13   6
ATOM      3  O   UNL     1      14.626  12.044  15.496  0.00  0.00    -0.377 OA
ATOM      4  O   UNL     1      15.119   9.213  19.524  0.00  0.00    -0.253 OA
ATOM      6  N   UNL     1      13.466   8.121  18.366  0.00  0.00    -0.297 N 
ATOM      7  N   UNL     1      14.249  10.225  17.627  0.00  0.00    -0.281 N 
ATOM     15  C   UNL     1      14.334   9.188  18.570  0.00  0.00    +0.302 C 
ATOM     16  C   UNL     1      15.123  11.393  17.768  0.00  0.00    +0.137 C 
ATOM     17  C   UNL     1      13.247  10.345  16.557  0.00  0.00    +0.137 C 
ATOM     19  C   UNL     1      15.688  11.817  16.422  0.00  0.00    +0.179 C 
ATOM     20  C   UNL     1      13.889  10.842  15.266  0.00  0.00    +0.179 C 
ATOM     26  H   UNL     1      12.812   8.107  17.597  0.00  0.00    +0.150 HD
ENDBRANCH  13   6
ENDBRANCH  11  13
TORSDOF 6
ENDMDL
MODEL 10
REMARK VINA RESULT:      -5.9     26.242     28.848
REMARK  Name = 75536839
REMARK  6 active torsions:
REMARK  status: ('A' for Active; 'I' for Inactive)
REMARK    1  A    between atoms: O_2  and  C_10
REMARK    2  A    between atoms: N_5  and  C_9
REMARK    3  A    between atoms: N_5  and  C_14
REMARK    4  A    between atoms: N_6  and  C_13
REMARK    5  A    between atoms: C_11  and  C_13
REMARK    6  A    between atoms: C_14  and  C_18
REMARK                            x       y       z     vdW  Elec       q    Type
REMARK                         _______ _______ _______ _____ _____    ______ ____
ROOT
ATOM      1  O   UNL     1      -8.588 -11.762  17.663  0.00  0.00    -0.371 OA
ATOM      9  C   UNL     1      -6.317 -11.189  18.057  0.00  0.00    +0.111 C 
ATOM     10  C   UNL     1      -7.204 -10.333  18.943  0.00  0.00    +0.164 C 
ATOM     11  C   UNL     1      -8.481 -11.161  18.965  0.00  0.00    +0.165 C 
ATOM     12  C   UNL     1      -7.309 -11.669  17.011  0.00  0.00    +0.181 C 
ENDROOT
BRANCH  10   2
ATOM      2  O   UNL     1      -6.669 -10.154  20.240  0.00  0.00    -0.388 OA
ATOM     27  H   UNL     1      -7.355 -10.388  20.888  0.00  0.00    +0.210 HD
ENDBRANCH  10   2
BRANCH   9   5
ATOM      5  N   UNL     1      -5.194 -10.465  17.483  0.00  0.00    -0.305 NA
ATOM     25  H   UNL     1      -4.911  -9.725  18.125  0.00  0.00    +0.123 HD
BRANCH   5  14
ATOM     14  C   UNL     1      -4.059 -11.351  17.256  0.00  0.00    +0.116 C 
BRANCH  14  18
ATOM      8  N   UNL     1      -1.819 -10.223  13.761  0.00  0.00    -0.263 NA
ATOM     18  C   UNL     1      -3.276 -10.956  16.032  0.00  0.00    -0.031 A 
ATOM     21  C   UNL     1      -3.878 -10.980  14.779  0.00  0.00    +0.024 A 
ATOM     22  C   UNL     1      -1.945 -10.567  16.151  0.00  0.00    +0.024 A 
ATOM     23  C   UNL     1      -3.113 -10.608  13.685  0.00  0.00    +0.111 A 
ATOM     24  C   UNL     1      -1.268 -10.213  14.996  0.00  0.00    +0.111 A 
ENDBRANCH  14  18
ENDBRANCH   5  14
ENDBRANCH   9   5
BRANCH  11  13
ATOM     13  C   UNL     1      -9.725 -10.338  19.253  0.00  0.00    +0.140 C 
BRANCH  13   6
ATOM      3  O   UNL     1     -11.825  -5.980  15.035  0.00  0.00    -0.377 OA
ATOM      4  O   UNL     1     -12.269  -9.759  18.199  0.00  0.00    -0.253 OA
ATOM      6  N   UNL     1     -10.002  -9.406  18.183  0.00  0.00    -0.297 N 
ATOM      7  N   UNL     1     -11.399  -8.246  16.671  0.00  0.00    -0.281 N 
ATOM     15  C   UNL     1     -11.292  -9.175  17.719  0.00  0.00    +0.302 C 
ATOM     16  C   UNL     1     -12.721  -7.947  16.114  0.00  0.00    +0.137 C 
ATOM     17  C   UNL     1     -10.281  -7.626  15.944  0.00  0.00    +0.137 C 
ATOM     19  C   UNL     1     -12.884  -6.455  15.867  0.00  0.00    +0.179 C 
ATOM     20  C   UNL     1     -10.560  -6.149  15.679  0.00  0.00    +0.179 C 
ATOM     26  H   UNL     1      -9.200  -8.944  17.780  0.00  0.00    +0.150 HD
ENDBRANCH  13   6
ENDBRANCH  11  13
TORSDOF 6
ENDMDL
