MODEL 1
REMARK VINA RESULT:      -7.5      0.000      0.000
REMARK  Name = 11887612
REMARK  8 active torsions:
REMARK  status: ('A' for Active; 'I' for Inactive)
REMARK    1  A    between atoms: S_1  and  N_8
REMARK    2  A    between atoms: S_1  and  C_27
REMARK    3  A    between atoms: N_9  and  C_19
REMARK    4  A    between atoms: C_12  and  C_15
REMARK    5  A    between atoms: C_15  and  C_19
REMARK    6  A    between atoms: C_19  and  C_25
REMARK    7  A    between atoms: C_20  and  C_23
REMARK    8  A    between atoms: C_26  and  C_28
REMARK                            x       y       z     vdW  Elec       q    Type
REMARK                         _______ _______ _______ _____ _____    ______ ____
ROOT
ATOM      7  O   UNL     1      15.794   7.922   6.150  0.00  0.00    -0.270 OA
ATOM      8  N   UNL     1      10.758   7.822   5.599  0.00  0.00    -0.162 NA
ATOM     10  N   UNL     1      13.528   8.495   6.058  0.00  0.00    -0.294 N 
ATOM     20  C   UNL     1      11.803   6.762   5.554  0.00  0.00    +0.183 C 
ATOM     21  C   UNL     1      13.069   7.132   6.323  0.00  0.00    +0.138 C 
ATOM     22  C   UNL     1      11.126   9.035   6.374  0.00  0.00    +0.129 C 
ATOM     24  C   UNL     1      12.493   9.525   5.916  0.00  0.00    +0.125 C 
ATOM     26  C   UNL     1      14.902   8.761   6.033  0.00  0.00    +0.247 C 
ENDROOT
BRANCH  26  28
ATOM      2  F   UNL     1      16.344  12.415   3.195  0.00  0.00    -0.205 F 
ATOM     28  C   UNL     1      15.331  10.157   5.857  0.00  0.00    +0.040 A 
ATOM     31  C   UNL     1      15.640  10.632   4.585  0.00  0.00    +0.051 A 
ATOM     32  C   UNL     1      15.427  10.998   6.963  0.00  0.00    +0.013 A 
ATOM     36  C   UNL     1      16.046  11.955   4.418  0.00  0.00    +0.124 A 
ATOM     37  C   UNL     1      15.833  12.321   6.796  0.00  0.00    +0.004 A 
ATOM     38  C   UNL     1      16.143  12.801   5.523  0.00  0.00    +0.038 A 
ENDBRANCH  26  28
BRANCH  20  23
ATOM      3  O   UNL     1      12.686   7.424   3.441  0.00  0.00    -0.274 OA
ATOM      9  N   UNL     1      11.572   5.387   3.611  0.00  0.00    -0.303 N 
ATOM     23  C   UNL     1      12.083   6.578   4.097  0.00  0.00    +0.234 C 
ATOM     39  H   UNL     1      11.033   4.790   4.232  0.00  0.00    +0.149 HD
BRANCH   9  19
ATOM     19  C   UNL     1      11.688   4.981   2.229  0.00  0.00    +0.159 C 
BRANCH  19  25
ATOM      6  O   UNL     1       9.775   4.403   0.847  0.00  0.00    -0.274 OA
ATOM     11  N   UNL     1       9.894   6.524   1.720  0.00  0.00    -0.328 N 
ATOM     25  C   UNL     1      10.360   5.239   1.532  0.00  0.00    +0.231 C 
ATOM     40  H   UNL     1      10.397   7.211   2.273  0.00  0.00    +0.145 HD
ATOM     41  H   UNL     1       9.022   6.827   1.302  0.00  0.00    +0.145 HD
ENDBRANCH  19  25
BRANCH  19  15
ATOM     15  C   UNL     1      12.162   3.532   2.088  0.00  0.00    +0.035 C 
BRANCH  15  12
ATOM     12  C   UNL     1      13.309   3.339   1.098  0.00  0.00    -0.009 C 
ATOM     13  C   UNL     1      13.027   4.087  -0.212  0.00  0.00    +0.003 C 
ATOM     14  C   UNL     1      14.638   3.799   1.714  0.00  0.00    +0.003 C 
ATOM     16  C   UNL     1      14.184   3.953  -1.198  0.00  0.00    +0.000 C 
ATOM     17  C   UNL     1      15.793   3.665   0.723  0.00  0.00    +0.000 C 
ATOM     18  C   UNL     1      15.505   4.402  -0.581  0.00  0.00    +0.000 C 
ENDBRANCH  15  12
ENDBRANCH  19  15
ENDBRANCH   9  19
ENDBRANCH  20  23
BRANCH   8   1
ATOM      1  S   UNL     1       9.137   7.299   5.740  0.00  0.00    +0.062 S 
ATOM      4  O   UNL     1       8.776   6.548   4.556  0.00  0.00    -0.153 OA
ATOM      5  O   UNL     1       8.323   8.407   6.196  0.00  0.00    -0.153 OA
BRANCH   1  27
ATOM     27  C   UNL     1       9.295   6.157   7.077  0.00  0.00    +0.106 A 
ATOM     29  C   UNL     1       9.669   4.850   6.811  0.00  0.00    +0.028 A 
ATOM     30  C   UNL     1       9.040   6.586   8.368  0.00  0.00    +0.028 A 
ATOM     33  C   UNL     1       9.793   3.947   7.867  0.00  0.00    +0.002 A 
ATOM     34  C   UNL     1       9.162   5.684   9.425  0.00  0.00    +0.002 A 
ATOM     35  C   UNL     1       9.538   4.364   9.174  0.00  0.00    +0.000 A 
ENDBRANCH   1  27
ENDBRANCH   8   1
TORSDOF 8
ENDMDL
MODEL 2
REMARK VINA RESULT:      -7.4     23.154     27.290
REMARK  Name = 11887612
REMARK  8 active torsions:
REMARK  status: ('A' for Active; 'I' for Inactive)
REMARK    1  A    between atoms: S_1  and  N_8
REMARK    2  A    between atoms: S_1  and  C_27
REMARK    3  A    between atoms: N_9  and  C_19
REMARK    4  A    between atoms: C_12  and  C_15
REMARK    5  A    between atoms: C_15  and  C_19
REMARK    6  A    between atoms: C_19  and  C_25
REMARK    7  A    between atoms: C_20  and  C_23
REMARK    8  A    between atoms: C_26  and  C_28
REMARK                            x       y       z     vdW  Elec       q    Type
REMARK                         _______ _______ _______ _____ _____    ______ ____
ROOT
ATOM      7  O   UNL     1      18.082  -6.861  30.056  0.00  0.00    -0.270 OA
ATOM      8  N   UNL     1      17.919  -5.620  25.146  0.00  0.00    -0.162 NA
ATOM     10  N   UNL     1      17.480  -6.657  27.805  0.00  0.00    -0.294 N 
ATOM     20  C   UNL     1      18.916  -5.366  26.223  0.00  0.00    +0.183 C 
ATOM     21  C   UNL     1      18.845  -6.381  27.361  0.00  0.00    +0.138 C 
ATOM     22  C   UNL     1      17.045  -6.802  25.365  0.00  0.00    +0.129 C 
ATOM     24  C   UNL     1      16.448  -6.728  26.764  0.00  0.00    +0.125 C 
ATOM     26  C   UNL     1      17.240  -6.912  29.160  0.00  0.00    +0.247 C 
ENDROOT
BRANCH  26  28
ATOM      2  F   UNL     1      12.766  -5.668  30.549  0.00  0.00    -0.205 F 
ATOM     28  C   UNL     1      15.873  -7.278  29.562  0.00  0.00    +0.040 A 
ATOM     31  C   UNL     1      14.952  -6.280  29.871  0.00  0.00    +0.051 A 
ATOM     32  C   UNL     1      15.506  -8.619  29.631  0.00  0.00    +0.013 A 
ATOM     36  C   UNL     1      13.655  -6.626  30.251  0.00  0.00    +0.124 A 
ATOM     37  C   UNL     1      14.209  -8.965  30.011  0.00  0.00    +0.004 A 
ATOM     38  C   UNL     1      13.284  -7.969  30.321  0.00  0.00    +0.038 A 
ENDBRANCH  26  28
BRANCH  20  23
ATOM      3  O   UNL     1      17.486  -3.489  26.558  0.00  0.00    -0.274 OA
ATOM      9  N   UNL     1      19.695  -3.369  27.282  0.00  0.00    -0.303 N 
ATOM     23  C   UNL     1      18.600  -3.985  26.702  0.00  0.00    +0.234 C 
ATOM     39  H   UNL     1      20.589  -3.852  27.291  0.00  0.00    +0.149 HD
BRANCH   9  19
ATOM     19  C   UNL     1      19.660  -2.022  27.806  0.00  0.00    +0.159 C 
BRANCH  19  25
ATOM      6  O   UNL     1      21.969  -1.270  27.720  0.00  0.00    -0.274 OA
ATOM     11  N   UNL     1      20.501  -0.484  26.139  0.00  0.00    -0.328 N 
ATOM     25  C   UNL     1      20.840  -1.246  27.237  0.00  0.00    +0.231 C 
ATOM     40  H   UNL     1      19.560  -0.457  25.761  0.00  0.00    +0.145 HD
ATOM     41  H   UNL     1      21.195   0.088  25.669  0.00  0.00    +0.145 HD
ENDBRANCH  19  25
BRANCH  19  15
ATOM     15  C   UNL     1      19.615  -1.997  29.336  0.00  0.00    +0.035 C 
BRANCH  15  12
ATOM     12  C   UNL     1      18.218  -1.786  29.920  0.00  0.00    -0.009 C 
ATOM     13  C   UNL     1      17.511  -3.130  30.136  0.00  0.00    +0.003 C 
ATOM     14  C   UNL     1      18.295  -0.992  31.231  0.00  0.00    +0.003 C 
ATOM     16  C   UNL     1      16.133  -2.948  30.768  0.00  0.00    +0.000 C 
ATOM     17  C   UNL     1      16.915  -0.813  31.862  0.00  0.00    +0.000 C 
ATOM     18  C   UNL     1      16.211  -2.151  32.066  0.00  0.00    +0.000 C 
ENDBRANCH  15  12
ENDBRANCH  19  15
ENDBRANCH   9  19
ENDBRANCH  20  23
BRANCH   8   1
ATOM      1  S   UNL     1      18.436  -5.352  23.539  0.00  0.00    +0.062 S 
ATOM      4  O   UNL     1      17.840  -6.350  22.676  0.00  0.00    -0.153 OA
ATOM      5  O   UNL     1      19.865  -5.123  23.536  0.00  0.00    -0.153 OA
BRANCH   1  27
ATOM     27  C   UNL     1      17.640  -3.810  23.210  0.00  0.00    +0.106 A 
ATOM     29  C   UNL     1      16.260  -3.768  23.110  0.00  0.00    +0.028 A 
ATOM     30  C   UNL     1      18.411  -2.670  23.056  0.00  0.00    +0.028 A 
ATOM     33  C   UNL     1      15.632  -2.550  22.850  0.00  0.00    +0.002 A 
ATOM     34  C   UNL     1      17.783  -1.452  22.794  0.00  0.00    +0.002 A 
ATOM     35  C   UNL     1      16.394  -1.392  22.691  0.00  0.00    +0.000 A 
ENDBRANCH   1  27
ENDBRANCH   8   1
TORSDOF 8
ENDMDL
MODEL 3
REMARK VINA RESULT:      -7.2     23.527     27.810
REMARK  Name = 11887612
REMARK  8 active torsions:
REMARK  status: ('A' for Active; 'I' for Inactive)
REMARK    1  A    between atoms: S_1  and  N_8
REMARK    2  A    between atoms: S_1  and  C_27
REMARK    3  A    between atoms: N_9  and  C_19
REMARK    4  A    between atoms: C_12  and  C_15
REMARK    5  A    between atoms: C_15  and  C_19
REMARK    6  A    between atoms: C_19  and  C_25
REMARK    7  A    between atoms: C_20  and  C_23
REMARK    8  A    between atoms: C_26  and  C_28
REMARK                            x       y       z     vdW  Elec       q    Type
REMARK                         _______ _______ _______ _____ _____    ______ ____
ROOT
ATOM      7  O   UNL     1      17.309 -10.227  27.901  0.00  0.00    -0.270 OA
ATOM      8  N   UNL     1      18.532  -5.811  25.737  0.00  0.00    -0.162 NA
ATOM     10  N   UNL     1      17.737  -8.515  26.366  0.00  0.00    -0.294 N 
ATOM     20  C   UNL     1      18.589  -6.301  27.143  0.00  0.00    +0.183 C 
ATOM     21  C   UNL     1      18.675  -7.821  27.248  0.00  0.00    +0.138 C 
ATOM     22  C   UNL     1      18.570  -6.874  24.700  0.00  0.00    +0.129 C 
ATOM     24  C   UNL     1      17.531  -7.935  25.034  0.00  0.00    +0.125 C 
ATOM     26  C   UNL     1      17.156  -9.715  26.793  0.00  0.00    +0.247 C 
ENDROOT
BRANCH  26  28
ATOM      2  F   UNL     1      12.878 -10.328  24.600  0.00  0.00    -0.205 F 
ATOM     28  C   UNL     1      16.290 -10.437  25.849  0.00  0.00    +0.040 A 
ATOM     31  C   UNL     1      14.970 -10.032  25.671  0.00  0.00    +0.051 A 
ATOM     32  C   UNL     1      16.794 -11.522  25.136  0.00  0.00    +0.013 A 
ATOM     36  C   UNL     1      14.149 -10.716  24.774  0.00  0.00    +0.124 A 
ATOM     37  C   UNL     1      15.973 -12.206  24.240  0.00  0.00    +0.004 A 
ATOM     38  C   UNL     1      14.651 -11.803  24.059  0.00  0.00    +0.038 A 
ENDBRANCH  26  28
BRANCH  20  23
ATOM      3  O   UNL     1      16.226  -6.198  27.442  0.00  0.00    -0.274 OA
ATOM      9  N   UNL     1      17.586  -4.793  28.705  0.00  0.00    -0.303 N 
ATOM     23  C   UNL     1      17.334  -5.780  27.768  0.00  0.00    +0.234 C 
ATOM     39  H   UNL     1      18.542  -4.480  28.850  0.00  0.00    +0.149 HD
BRANCH   9  19
ATOM     19  C   UNL     1      16.542  -4.112  29.437  0.00  0.00    +0.159 C 
BRANCH  19  25
ATOM      6  O   UNL     1      16.482  -2.008  30.650  0.00  0.00    -0.274 OA
ATOM     11  N   UNL     1      18.188  -2.360  29.153  0.00  0.00    -0.328 N 
ATOM     25  C   UNL     1      17.047  -2.731  29.833  0.00  0.00    +0.231 C 
ATOM     40  H   UNL     1      18.633  -2.959  28.466  0.00  0.00    +0.145 HD
ATOM     41  H   UNL     1      18.622  -1.459  29.319  0.00  0.00    +0.145 HD
ENDBRANCH  19  25
BRANCH  19  15
ATOM     15  C   UNL     1      16.045  -4.929  30.632  0.00  0.00    +0.035 C 
BRANCH  15  12
ATOM     12  C   UNL     1      14.525  -5.069  30.708  0.00  0.00    -0.009 C 
ATOM     13  C   UNL     1      14.095  -6.504  30.377  0.00  0.00    +0.003 C 
ATOM     14  C   UNL     1      14.012  -4.650  32.093  0.00  0.00    +0.003 C 
ATOM     16  C   UNL     1      12.583  -6.682  30.498  0.00  0.00    +0.000 C 
ATOM     17  C   UNL     1      12.500  -4.831  32.211  0.00  0.00    +0.000 C 
ATOM     18  C   UNL     1      12.075  -6.256  31.872  0.00  0.00    +0.000 C 
ENDBRANCH  15  12
ENDBRANCH  19  15
ENDBRANCH   9  19
ENDBRANCH  20  23
BRANCH   8   1
ATOM      1  S   UNL     1      19.399  -4.381  25.385  0.00  0.00    +0.062 S 
ATOM      4  O   UNL     1      20.498  -4.698  24.499  0.00  0.00    -0.153 OA
ATOM      5  O   UNL     1      19.620  -3.649  26.614  0.00  0.00    -0.153 OA
BRANCH   1  27
ATOM     27  C   UNL     1      18.185  -3.506  24.446  0.00  0.00    +0.106 A 
ATOM     29  C   UNL     1      18.570  -2.838  23.296  0.00  0.00    +0.028 A 
ATOM     30  C   UNL     1      16.870  -3.501  24.878  0.00  0.00    +0.028 A 
ATOM     33  C   UNL     1      17.611  -2.146  22.555  0.00  0.00    +0.002 A 
ATOM     34  C   UNL     1      15.910  -2.809  24.138  0.00  0.00    +0.002 A 
ATOM     35  C   UNL     1      16.282  -2.131  22.977  0.00  0.00    +0.000 A 
ENDBRANCH   1  27
ENDBRANCH   8   1
TORSDOF 8
ENDMDL
MODEL 4
REMARK VINA RESULT:      -7.0     25.442     28.256
REMARK  Name = 11887612
REMARK  8 active torsions:
REMARK  status: ('A' for Active; 'I' for Inactive)
REMARK    1  A    between atoms: S_1  and  N_8
REMARK    2  A    between atoms: S_1  and  C_27
REMARK    3  A    between atoms: N_9  and  C_19
REMARK    4  A    between atoms: C_12  and  C_15
REMARK    5  A    between atoms: C_15  and  C_19
REMARK    6  A    between atoms: C_19  and  C_25
REMARK    7  A    between atoms: C_20  and  C_23
REMARK    8  A    between atoms: C_26  and  C_28
REMARK                            x       y       z     vdW  Elec       q    Type
REMARK                         _______ _______ _______ _____ _____    ______ ____
ROOT
ATOM      7  O   UNL     1      -4.753  -8.418  10.690  0.00  0.00    -0.270 OA
ATOM      8  N   UNL     1      -7.990 -11.283  13.335  0.00  0.00    -0.162 NA
ATOM     10  N   UNL     1      -6.410  -9.943  11.323  0.00  0.00    -0.294 N 
ATOM     20  C   UNL     1      -7.044 -10.199  13.724  0.00  0.00    +0.183 C 
ATOM     21  C   UNL     1      -6.710  -9.251  12.576  0.00  0.00    +0.138 C 
ATOM     22  C   UNL     1      -8.436 -11.248  11.918  0.00  0.00    +0.129 C 
ATOM     24  C   UNL     1      -7.218 -11.128  11.014  0.00  0.00    +0.125 C 
ATOM     26  C   UNL     1      -5.445  -9.409  10.461  0.00  0.00    +0.247 C 
ENDROOT
BRANCH  26  28
ATOM      2  F   UNL     1      -6.121  -9.650   5.668  0.00  0.00    -0.205 F 
ATOM     28  C   UNL     1      -5.232 -10.075   9.167  0.00  0.00    +0.040 A 
ATOM     31  C   UNL     1      -5.789  -9.536   8.010  0.00  0.00    +0.051 A 
ATOM     32  C   UNL     1      -4.474 -11.241   9.104  0.00  0.00    +0.013 A 
ATOM     36  C   UNL     1      -5.586 -10.167   6.783  0.00  0.00    +0.124 A 
ATOM     37  C   UNL     1      -4.271 -11.872   7.877  0.00  0.00    +0.004 A 
ATOM     38  C   UNL     1      -4.827 -11.335   6.716  0.00  0.00    +0.038 A 
ENDBRANCH  26  28
BRANCH  20  23
ATOM      3  O   UNL     1      -5.587 -12.080  13.868  0.00  0.00    -0.274 OA
ATOM      9  N   UNL     1      -5.061 -10.151  15.060  0.00  0.00    -0.303 N 
ATOM     23  C   UNL     1      -5.828 -10.924  14.205  0.00  0.00    +0.234 C 
ATOM     39  H   UNL     1      -5.390  -9.226  15.320  0.00  0.00    +0.149 HD
BRANCH   9  19
ATOM     19  C   UNL     1      -3.845 -10.626  15.680  0.00  0.00    +0.159 C 
BRANCH  19  25
ATOM      6  O   UNL     1      -2.487 -10.340  13.685  0.00  0.00    -0.274 OA
ATOM     11  N   UNL     1      -2.527 -12.401  14.696  0.00  0.00    -0.328 N 
ATOM     25  C   UNL     1      -2.883 -11.073  14.588  0.00  0.00    +0.231 C 
ATOM     40  H   UNL     1      -2.876 -13.002  15.436  0.00  0.00    +0.145 HD
ATOM     41  H   UNL     1      -1.896 -12.827  14.025  0.00  0.00    +0.145 HD
ENDBRANCH  19  25
BRANCH  19  15
ATOM     15  C   UNL     1      -4.113 -11.718  16.719  0.00  0.00    +0.035 C 
BRANCH  15  12
ATOM     12  C   UNL     1      -5.428 -11.552  17.479  0.00  0.00    -0.009 C 
ATOM     13  C   UNL     1      -6.032 -12.919  17.826  0.00  0.00    +0.003 C 
ATOM     14  C   UNL     1      -5.218 -10.711  18.746  0.00  0.00    +0.003 C 
ATOM     16  C   UNL     1      -7.321 -12.779  18.632  0.00  0.00    +0.000 C 
ATOM     17  C   UNL     1      -6.509 -10.574  19.551  0.00  0.00    +0.000 C 
ATOM     18  C   UNL     1      -7.111 -11.935  19.886  0.00  0.00    +0.000 C 
ENDBRANCH  15  12
ENDBRANCH  19  15
ENDBRANCH   9  19
ENDBRANCH  20  23
BRANCH   8   1
ATOM      1  S   UNL     1      -9.172 -11.724  14.488  0.00  0.00    +0.062 S 
ATOM      4  O   UNL     1      -8.599 -12.678  15.413  0.00  0.00    -0.153 OA
ATOM      5  O   UNL     1     -10.416 -12.005  13.803  0.00  0.00    -0.153 OA
BRANCH   1  27
ATOM     27  C   UNL     1      -9.359 -10.190  15.343  0.00  0.00    +0.106 A 
ATOM     29  C   UNL     1     -10.114  -9.181  14.768  0.00  0.00    +0.028 A 
ATOM     30  C   UNL     1      -8.744 -10.020  16.572  0.00  0.00    +0.028 A 
ATOM     33  C   UNL     1     -10.261  -7.970  15.442  0.00  0.00    +0.002 A 
ATOM     34  C   UNL     1      -8.890  -8.808  17.247  0.00  0.00    +0.002 A 
ATOM     35  C   UNL     1      -9.648  -7.783  16.682  0.00  0.00    +0.000 A 
ENDBRANCH   1  27
ENDBRANCH   8   1
TORSDOF 8
ENDMDL
MODEL 5
REMARK VINA RESULT:      -6.9      3.314      6.610
REMARK  Name = 11887612
REMARK  8 active torsions:
REMARK  status: ('A' for Active; 'I' for Inactive)
REMARK    1  A    between atoms: S_1  and  N_8
REMARK    2  A    between atoms: S_1  and  C_27
REMARK    3  A    between atoms: N_9  and  C_19
REMARK    4  A    between atoms: C_12  and  C_15
REMARK    5  A    between atoms: C_15  and  C_19
REMARK    6  A    between atoms: C_19  and  C_25
REMARK    7  A    between atoms: C_20  and  C_23
REMARK    8  A    between atoms: C_26  and  C_28
REMARK                            x       y       z     vdW  Elec       q    Type
REMARK                         _______ _______ _______ _____ _____    ______ ____
ROOT
ATOM      7  O   UNL     1       9.649   6.282   3.683  0.00  0.00    -0.270 OA
ATOM      8  N   UNL     1      13.889   9.058   3.734  0.00  0.00    -0.162 NA
ATOM     10  N   UNL     1      11.383   7.732   4.285  0.00  0.00    -0.294 N 
ATOM     20  C   UNL     1      13.241   8.215   2.689  0.00  0.00    +0.183 C 
ATOM     21  C   UNL     1      11.739   8.042   2.901  0.00  0.00    +0.138 C 
ATOM     22  C   UNL     1      12.971   9.575   4.781  0.00  0.00    +0.129 C 
ATOM     24  C   UNL     1      12.143   8.423   5.333  0.00  0.00    +0.125 C 
ATOM     26  C   UNL     1      10.306   6.874   4.538  0.00  0.00    +0.247 C 
ENDROOT
BRANCH  26  28
ATOM      2  F   UNL     1      10.103   4.065   8.482  0.00  0.00    -0.205 F 
ATOM     28  C   UNL     1       9.913   6.655   5.938  0.00  0.00    +0.040 A 
ATOM     31  C   UNL     1      10.200   5.441   6.556  0.00  0.00    +0.051 A 
ATOM     32  C   UNL     1       9.256   7.663   6.640  0.00  0.00    +0.013 A 
ATOM     36  C   UNL     1       9.828   5.233   7.884  0.00  0.00    +0.124 A 
ATOM     37  C   UNL     1       8.885   7.455   7.968  0.00  0.00    +0.004 A 
ATOM     38  C   UNL     1       9.170   6.240   8.590  0.00  0.00    +0.038 A 
ENDBRANCH  26  28
BRANCH  20  23
ATOM      3  O   UNL     1      14.751   6.657   3.676  0.00  0.00    -0.274 OA
ATOM      9  N   UNL     1      13.635   6.064   1.722  0.00  0.00    -0.303 N 
ATOM     23  C   UNL     1      13.959   6.906   2.771  0.00  0.00    +0.234 C 
ATOM     39  H   UNL     1      13.013   6.399   0.992  0.00  0.00    +0.149 HD
BRANCH   9  19
ATOM     19  C   UNL     1      14.209   4.748   1.557  0.00  0.00    +0.159 C 
BRANCH  19  25
ATOM      6  O   UNL     1      15.649   5.831  -0.073  0.00  0.00    -0.274 OA
ATOM     11  N   UNL     1      16.202   3.722   0.646  0.00  0.00    -0.328 N 
ATOM     25  C   UNL     1      15.415   4.854   0.633  0.00  0.00    +0.231 C 
ATOM     40  H   UNL     1      15.987   2.914   1.220  0.00  0.00    +0.145 HD
ATOM     41  H   UNL     1      17.034   3.661   0.068  0.00  0.00    +0.145 HD
ENDBRANCH  19  25
BRANCH  19  15
ATOM     15  C   UNL     1      13.179   3.723   1.073  0.00  0.00    +0.035 C 
BRANCH  15  12
ATOM     12  C   UNL     1      12.624   4.002  -0.323  0.00  0.00    -0.009 C 
ATOM     13  C   UNL     1      12.846   2.796  -1.246  0.00  0.00    +0.003 C 
ATOM     14  C   UNL     1      11.135   4.367  -0.250  0.00  0.00    +0.003 C 
ATOM     16  C   UNL     1      12.252   3.031  -2.633  0.00  0.00    +0.000 C 
ATOM     17  C   UNL     1      10.544   4.599  -1.639  0.00  0.00    +0.000 C 
ATOM     18  C   UNL     1      10.775   3.402  -2.557  0.00  0.00    +0.000 C 
ENDBRANCH  15  12
ENDBRANCH  19  15
ENDBRANCH   9  19
ENDBRANCH  20  23
BRANCH   8   1
ATOM      1  S   UNL     1      15.114  10.127   3.209  0.00  0.00    +0.062 S 
ATOM      4  O   UNL     1      14.897  11.428   3.806  0.00  0.00    -0.153 OA
ATOM      5  O   UNL     1      15.285   9.983   1.779  0.00  0.00    -0.153 OA
BRANCH   1  27
ATOM     27  C   UNL     1      16.518   9.400   3.998  0.00  0.00    +0.106 A 
ATOM     29  C   UNL     1      17.472   8.758   3.226  0.00  0.00    +0.028 A 
ATOM     30  C   UNL     1      16.638   9.482   5.375  0.00  0.00    +0.028 A 
ATOM     33  C   UNL     1      18.579   8.183   3.849  0.00  0.00    +0.002 A 
ATOM     34  C   UNL     1      17.746   8.906   5.998  0.00  0.00    +0.002 A 
ATOM     35  C   UNL     1      18.716   8.257   5.236  0.00  0.00    +0.000 A 
ENDBRANCH   1  27
ENDBRANCH   8   1
TORSDOF 8
ENDMDL
MODEL 6
REMARK VINA RESULT:      -6.8     25.417     28.290
REMARK  Name = 11887612
REMARK  8 active torsions:
REMARK  status: ('A' for Active; 'I' for Inactive)
REMARK    1  A    between atoms: S_1  and  N_8
REMARK    2  A    between atoms: S_1  and  C_27
REMARK    3  A    between atoms: N_9  and  C_19
REMARK    4  A    between atoms: C_12  and  C_15
REMARK    5  A    between atoms: C_15  and  C_19
REMARK    6  A    between atoms: C_19  and  C_25
REMARK    7  A    between atoms: C_20  and  C_23
REMARK    8  A    between atoms: C_26  and  C_28
REMARK                            x       y       z     vdW  Elec       q    Type
REMARK                         _______ _______ _______ _____ _____    ______ ____
ROOT
ATOM      7  O   UNL     1      -4.606 -13.277  15.497  0.00  0.00    -0.270 OA
ATOM      8  N   UNL     1      -8.314  -9.880  16.120  0.00  0.00    -0.162 NA
ATOM     10  N   UNL     1      -5.821 -11.324  15.922  0.00  0.00    -0.294 N 
ATOM     20  C   UNL     1      -8.317 -11.345  15.848  0.00  0.00    +0.183 C 
ATOM     21  C   UNL     1      -7.037 -12.043  16.301  0.00  0.00    +0.138 C 
ATOM     22  C   UNL     1      -7.084  -9.365  16.776  0.00  0.00    +0.129 C 
ATOM     24  C   UNL     1      -5.865  -9.860  16.011  0.00  0.00    +0.125 C 
ATOM     26  C   UNL     1      -4.675 -12.051  15.579  0.00  0.00    +0.247 C 
ENDROOT
BRANCH  26  28
ATOM      2  F   UNL     1      -1.679  -9.874  12.454  0.00  0.00    -0.205 F 
ATOM     28  C   UNL     1      -3.443 -11.302  15.294  0.00  0.00    +0.040 A 
ATOM     31  C   UNL     1      -3.140 -10.938  13.984  0.00  0.00    +0.051 A 
ATOM     32  C   UNL     1      -2.583 -10.960  16.334  0.00  0.00    +0.013 A 
ATOM     36  C   UNL     1      -1.972 -10.227  13.713  0.00  0.00    +0.124 A 
ATOM     37  C   UNL     1      -1.414 -10.248  16.063  0.00  0.00    +0.004 A 
ATOM     38  C   UNL     1      -1.108  -9.882  14.753  0.00  0.00    +0.038 A 
ENDBRANCH  26  28
BRANCH  20  23
ATOM      3  O   UNL     1      -8.748 -12.517  13.817  0.00  0.00    -0.274 OA
ATOM      9  N   UNL     1      -8.336 -10.227  13.734  0.00  0.00    -0.303 N 
ATOM     23  C   UNL     1      -8.500 -11.447  14.367  0.00  0.00    +0.234 C 
ATOM     39  H   UNL     1      -8.069  -9.415  14.284  0.00  0.00    +0.149 HD
BRANCH   9  19
ATOM     19  C   UNL     1      -8.440 -10.059  12.302  0.00  0.00    +0.159 C 
BRANCH  19  25
ATOM      6  O   UNL     1     -10.268 -11.102  11.087  0.00  0.00    -0.274 OA
ATOM     11  N   UNL     1     -10.746  -9.352  12.495  0.00  0.00    -0.328 N 
ATOM     25  C   UNL     1      -9.894 -10.253  11.893  0.00  0.00    +0.231 C 
ATOM     40  H   UNL     1     -10.421  -8.642  13.144  0.00  0.00    +0.145 HD
ATOM     41  H   UNL     1     -11.742  -9.368  12.301  0.00  0.00    +0.145 HD
ENDBRANCH  19  25
BRANCH  19  15
ATOM     15  C   UNL     1      -7.481 -10.977  11.540  0.00  0.00    +0.035 C 
BRANCH  15  12
ATOM     12  C   UNL     1      -6.078 -10.401  11.352  0.00  0.00    -0.009 C 
ATOM     13  C   UNL     1      -5.245 -11.296  10.424  0.00  0.00    +0.003 C 
ATOM     14  C   UNL     1      -6.150  -8.968  10.808  0.00  0.00    +0.003 C 
ATOM     16  C   UNL     1      -3.855 -10.713  10.178  0.00  0.00    +0.000 C 
ATOM     17  C   UNL     1      -4.758  -8.389  10.562  0.00  0.00    +0.000 C 
ATOM     18  C   UNL     1      -3.930  -9.285   9.646  0.00  0.00    +0.000 C 
ENDBRANCH  15  12
ENDBRANCH  19  15
ENDBRANCH   9  19
ENDBRANCH  20  23
BRANCH   8   1
ATOM      1  S   UNL     1      -9.790  -9.190  16.636  0.00  0.00    +0.062 S 
ATOM      4  O   UNL     1     -10.730  -9.202  15.535  0.00  0.00    -0.153 OA
ATOM      5  O   UNL     1      -9.511  -7.970  17.363  0.00  0.00    -0.153 OA
BRANCH   1  27
ATOM     27  C   UNL     1     -10.311 -10.409  17.803  0.00  0.00    +0.106 A 
ATOM     29  C   UNL     1     -11.326 -11.285  17.460  0.00  0.00    +0.028 A 
ATOM     30  C   UNL     1      -9.696 -10.465  19.042  0.00  0.00    +0.028 A 
ATOM     33  C   UNL     1     -11.738 -12.247  18.383  0.00  0.00    +0.002 A 
ATOM     34  C   UNL     1     -10.108 -11.426  19.966  0.00  0.00    +0.002 A 
ATOM     35  C   UNL     1     -11.129 -12.317  19.636  0.00  0.00    +0.000 A 
ENDBRANCH   1  27
ENDBRANCH   8   1
TORSDOF 8
ENDMDL
MODEL 7
REMARK VINA RESULT:      -6.6     25.595     29.826
REMARK  Name = 11887612
REMARK  8 active torsions:
REMARK  status: ('A' for Active; 'I' for Inactive)
REMARK    1  A    between atoms: S_1  and  N_8
REMARK    2  A    between atoms: S_1  and  C_27
REMARK    3  A    between atoms: N_9  and  C_19
REMARK    4  A    between atoms: C_12  and  C_15
REMARK    5  A    between atoms: C_15  and  C_19
REMARK    6  A    between atoms: C_19  and  C_25
REMARK    7  A    between atoms: C_20  and  C_23
REMARK    8  A    between atoms: C_26  and  C_28
REMARK                            x       y       z     vdW  Elec       q    Type
REMARK                         _______ _______ _______ _____ _____    ______ ____
ROOT
ATOM      7  O   UNL     1     -10.762  -8.320  17.442  0.00  0.00    -0.270 OA
ATOM      8  N   UNL     1      -6.372 -10.849  17.563  0.00  0.00    -0.162 NA
ATOM     10  N   UNL     1      -9.019  -9.778  17.996  0.00  0.00    -0.294 N 
ATOM     20  C   UNL     1      -6.855  -9.696  16.752  0.00  0.00    +0.183 C 
ATOM     21  C   UNL     1      -7.983  -8.918  17.426  0.00  0.00    +0.138 C 
ATOM     22  C   UNL     1      -7.061 -11.035  18.866  0.00  0.00    +0.129 C 
ATOM     24  C   UNL     1      -8.567 -11.017  18.641  0.00  0.00    +0.125 C 
ATOM     26  C   UNL     1     -10.351  -9.352  17.972  0.00  0.00    +0.247 C 
ENDROOT
BRANCH  26  28
ATOM      2  F   UNL     1     -13.533 -13.007  17.876  0.00  0.00    -0.205 F 
ATOM     28  C   UNL     1     -11.357 -10.195  18.636  0.00  0.00    +0.040 A 
ATOM     31  C   UNL     1     -11.979 -11.219  17.927  0.00  0.00    +0.051 A 
ATOM     32  C   UNL     1     -11.684  -9.966  19.970  0.00  0.00    +0.013 A 
ATOM     36  C   UNL     1     -12.933 -12.020  18.556  0.00  0.00    +0.124 A 
ATOM     37  C   UNL     1     -12.637 -10.766  20.599  0.00  0.00    +0.004 A 
ATOM     38  C   UNL     1     -13.262 -11.793  19.892  0.00  0.00    +0.038 A 
ENDBRANCH  26  28
BRANCH  20  23
ATOM      3  O   UNL     1      -7.677 -11.480  15.402  0.00  0.00    -0.274 OA
ATOM      9  N   UNL     1      -7.234  -9.423  14.407  0.00  0.00    -0.303 N 
ATOM     23  C   UNL     1      -7.308 -10.311  15.466  0.00  0.00    +0.234 C 
ATOM     39  H   UNL     1      -6.851  -8.495  14.564  0.00  0.00    +0.149 HD
BRANCH   9  19
ATOM     19  C   UNL     1      -7.593  -9.776  13.052  0.00  0.00    +0.159 C 
BRANCH  19  25
ATOM      6  O   UNL     1      -9.975  -9.367  13.301  0.00  0.00    -0.274 OA
ATOM     11  N   UNL     1      -9.284 -11.466  12.676  0.00  0.00    -0.328 N 
ATOM     25  C   UNL     1      -9.069 -10.148  13.020  0.00  0.00    +0.231 C 
ATOM     40  H   UNL     1      -8.525 -12.106  12.466  0.00  0.00    +0.145 HD
ATOM     41  H   UNL     1     -10.224 -11.844  12.627  0.00  0.00    +0.145 HD
ENDBRANCH  19  25
BRANCH  19  15
ATOM     15  C   UNL     1      -6.691 -10.874  12.482  0.00  0.00    +0.035 C 
BRANCH  15  12
ATOM     12  C   UNL     1      -5.839 -10.432  11.293  0.00  0.00    -0.009 C 
ATOM     13  C   UNL     1      -5.587  -8.919  11.339  0.00  0.00    +0.003 C 
ATOM     14  C   UNL     1      -4.514 -11.206  11.260  0.00  0.00    +0.003 C 
ATOM     16  C   UNL     1      -4.692  -8.462  10.189  0.00  0.00    +0.000 C 
ATOM     17  C   UNL     1      -3.622 -10.744  10.110  0.00  0.00    +0.000 C 
ATOM     18  C   UNL     1      -3.380  -9.239  10.153  0.00  0.00    +0.000 C 
ENDBRANCH  15  12
ENDBRANCH  19  15
ENDBRANCH   9  19
ENDBRANCH  20  23
BRANCH   8   1
ATOM      1  S   UNL     1      -4.689 -11.147  17.551  0.00  0.00    +0.062 S 
ATOM      4  O   UNL     1      -4.266 -11.536  18.879  0.00  0.00    -0.153 OA
ATOM      5  O   UNL     1      -4.026 -10.072  16.843  0.00  0.00    -0.153 OA
BRANCH   1  27
ATOM     27  C   UNL     1      -4.635 -12.583  16.525  0.00  0.00    +0.106 A 
ATOM     29  C   UNL     1      -4.192 -12.467  15.218  0.00  0.00    +0.028 A 
ATOM     30  C   UNL     1      -5.041 -13.801  17.044  0.00  0.00    +0.028 A 
ATOM     33  C   UNL     1      -4.151 -13.602  14.408  0.00  0.00    +0.002 A 
ATOM     34  C   UNL     1      -5.001 -14.936  16.234  0.00  0.00    +0.002 A 
ATOM     35  C   UNL     1      -4.556 -14.836  14.916  0.00  0.00    +0.000 A 
ENDBRANCH   1  27
ENDBRANCH   8   1
TORSDOF 8
ENDMDL
MODEL 8
REMARK VINA RESULT:      -6.6      3.282      6.832
REMARK  Name = 11887612
REMARK  8 active torsions:
REMARK  status: ('A' for Active; 'I' for Inactive)
REMARK    1  A    between atoms: S_1  and  N_8
REMARK    2  A    between atoms: S_1  and  C_27
REMARK    3  A    between atoms: N_9  and  C_19
REMARK    4  A    between atoms: C_12  and  C_15
REMARK    5  A    between atoms: C_15  and  C_19
REMARK    6  A    between atoms: C_19  and  C_25
REMARK    7  A    between atoms: C_20  and  C_23
REMARK    8  A    between atoms: C_26  and  C_28
REMARK                            x       y       z     vdW  Elec       q    Type
REMARK                         _______ _______ _______ _____ _____    ______ ____
ROOT
ATOM      7  O   UNL     1       8.163   7.833   6.094  0.00  0.00    -0.270 OA
ATOM      8  N   UNL     1      12.848   9.747   5.823  0.00  0.00    -0.162 NA
ATOM     10  N   UNL     1      10.408   8.356   6.495  0.00  0.00    -0.294 N 
ATOM     20  C   UNL     1      11.600  10.008   5.052  0.00  0.00    +0.183 C 
ATOM     21  C   UNL     1      10.331   9.651   5.821  0.00  0.00    +0.138 C 
ATOM     22  C   UNL     1      12.639   9.196   7.187  0.00  0.00    +0.129 C 
ATOM     24  C   UNL     1      11.695   8.004   7.105  0.00  0.00    +0.125 C 
ATOM     26  C   UNL     1       9.256   7.566   6.593  0.00  0.00    +0.247 C 
ENDROOT
BRANCH  26  28
ATOM      2  F   UNL     1       8.699   5.078  10.715  0.00  0.00    -0.205 F 
ATOM     28  C   UNL     1       9.342   6.312   7.356  0.00  0.00    +0.040 A 
ATOM     31  C   UNL     1       8.973   6.291   8.699  0.00  0.00    +0.051 A 
ATOM     32  C   UNL     1       9.793   5.151   6.733  0.00  0.00    +0.013 A 
ATOM     36  C   UNL     1       9.054   5.102   9.422  0.00  0.00    +0.124 A 
ATOM     37  C   UNL     1       9.873   3.961   7.457  0.00  0.00    +0.004 A 
ATOM     38  C   UNL     1       9.504   3.936   8.802  0.00  0.00    +0.038 A 
ENDBRANCH  26  28
BRANCH  20  23
ATOM      3  O   UNL     1      12.692   8.406   3.664  0.00  0.00    -0.274 OA
ATOM      9  N   UNL     1      10.720   9.392   2.915  0.00  0.00    -0.303 N 
ATOM     23  C   UNL     1      11.745   9.172   3.820  0.00  0.00    +0.234 C 
ATOM     39  H   UNL     1      10.020  10.099   3.121  0.00  0.00    +0.149 HD
BRANCH   9  19
ATOM     19  C   UNL     1      10.639   8.725   1.636  0.00  0.00    +0.159 C 
BRANCH  19  25
ATOM      6  O   UNL     1      10.171  10.905   0.670  0.00  0.00    -0.274 OA
ATOM     11  N   UNL     1      11.195   9.324  -0.642  0.00  0.00    -0.328 N 
ATOM     25  C   UNL     1      10.641   9.778   0.536  0.00  0.00    +0.231 C 
ATOM     40  H   UNL     1      11.562   8.383  -0.746  0.00  0.00    +0.145 HD
ATOM     41  H   UNL     1      11.250   9.925  -1.457  0.00  0.00    +0.145 HD
ENDBRANCH  19  25
BRANCH  19  15
ATOM     15  C   UNL     1       9.437   7.780   1.551  0.00  0.00    +0.035 C 
BRANCH  15  12
ATOM     12  C   UNL     1       9.795   6.298   1.662  0.00  0.00    -0.009 C 
ATOM     13  C   UNL     1      10.936   5.942   0.699  0.00  0.00    +0.003 C 
ATOM     14  C   UNL     1      10.168   5.939   3.107  0.00  0.00    +0.003 C 
ATOM     16  C   UNL     1      11.347   4.477   0.830  0.00  0.00    +0.000 C 
ATOM     17  C   UNL     1      10.580   4.474   3.233  0.00  0.00    +0.000 C 
ATOM     18  C   UNL     1      11.708   4.121   2.269  0.00  0.00    +0.000 C 
ENDBRANCH  15  12
ENDBRANCH  19  15
ENDBRANCH   9  19
ENDBRANCH  20  23
BRANCH   8   1
ATOM      1  S   UNL     1      14.109  10.888   5.655  0.00  0.00    +0.062 S 
ATOM      4  O   UNL     1      14.662  11.179   6.961  0.00  0.00    -0.153 OA
ATOM      5  O   UNL     1      13.668  11.952   4.778  0.00  0.00    -0.153 OA
BRANCH   1  27
ATOM     27  C   UNL     1      15.291   9.915   4.774  0.00  0.00    +0.106 A 
ATOM     29  C   UNL     1      15.899   8.846   5.410  0.00  0.00    +0.028 A 
ATOM     30  C   UNL     1      15.592  10.240   3.462  0.00  0.00    +0.028 A 
ATOM     33  C   UNL     1      16.833   8.078   4.714  0.00  0.00    +0.002 A 
ATOM     34  C   UNL     1      16.527   9.474   2.766  0.00  0.00    +0.002 A 
ATOM     35  C   UNL     1      17.147   8.393   3.392  0.00  0.00    +0.000 A 
ENDBRANCH   1  27
ENDBRANCH   8   1
TORSDOF 8
ENDMDL
MODEL 9
REMARK VINA RESULT:      -6.5     23.740     27.819
REMARK  Name = 11887612
REMARK  8 active torsions:
REMARK  status: ('A' for Active; 'I' for Inactive)
REMARK    1  A    between atoms: S_1  and  N_8
REMARK    2  A    between atoms: S_1  and  C_27
REMARK    3  A    between atoms: N_9  and  C_19
REMARK    4  A    between atoms: C_12  and  C_15
REMARK    5  A    between atoms: C_15  and  C_19
REMARK    6  A    between atoms: C_19  and  C_25
REMARK    7  A    between atoms: C_20  and  C_23
REMARK    8  A    between atoms: C_26  and  C_28
REMARK                            x       y       z     vdW  Elec       q    Type
REMARK                         _______ _______ _______ _____ _____    ______ ____
ROOT
ATOM      7  O   UNL     1      18.523  -6.949  30.468  0.00  0.00    -0.270 OA
ATOM      8  N   UNL     1      19.549  -4.196  26.339  0.00  0.00    -0.162 NA
ATOM     10  N   UNL     1      18.364  -5.743  28.470  0.00  0.00    -0.294 N 
ATOM     20  C   UNL     1      20.411  -4.810  27.388  0.00  0.00    +0.183 C 
ATOM     21  C   UNL     1      19.753  -5.995  28.090  0.00  0.00    +0.138 C 
ATOM     22  C   UNL     1      18.221  -4.838  26.162  0.00  0.00    +0.129 C 
ATOM     24  C   UNL     1      17.549  -4.976  27.521  0.00  0.00    +0.125 C 
ATOM     26  C   UNL     1      17.867  -6.300  29.653  0.00  0.00    +0.247 C 
ENDROOT
BRANCH  26  28
ATOM      2  F   UNL     1      14.306  -3.816  31.806  0.00  0.00    -0.205 F 
ATOM     28  C   UNL     1      16.442  -6.107  29.962  0.00  0.00    +0.040 A 
ATOM     31  C   UNL     1      16.044  -5.033  30.753  0.00  0.00    +0.051 A 
ATOM     32  C   UNL     1      15.497  -6.999  29.460  0.00  0.00    +0.013 A 
ATOM     36  C   UNL     1      14.692  -4.849  31.045  0.00  0.00    +0.124 A 
ATOM     37  C   UNL     1      14.145  -6.815  29.752  0.00  0.00    +0.004 A 
ATOM     38  C   UNL     1      13.743  -5.740  30.544  0.00  0.00    +0.038 A 
ENDBRANCH  26  28
BRANCH  20  23
ATOM      3  O   UNL     1      21.383  -3.850  29.342  0.00  0.00    -0.274 OA
ATOM      9  N   UNL     1      20.053  -2.519  27.971  0.00  0.00    -0.303 N 
ATOM     23  C   UNL     1      20.685  -3.693  28.343  0.00  0.00    +0.234 C 
ATOM     39  H   UNL     1      19.446  -2.520  27.156  0.00  0.00    +0.149 HD
BRANCH   9  19
ATOM     19  C   UNL     1      20.139  -1.297  28.738  0.00  0.00    +0.159 C 
BRANCH  19  25
ATOM      6  O   UNL     1      22.344  -0.411  29.248  0.00  0.00    -0.274 OA
ATOM     11  N   UNL     1      21.552  -0.210  27.101  0.00  0.00    -0.328 N 
ATOM     25  C   UNL     1      21.461  -0.612  28.417  0.00  0.00    +0.231 C 
ATOM     40  H   UNL     1      20.808  -0.366  26.430  0.00  0.00    +0.145 HD
ATOM     41  H   UNL     1      22.380   0.266  26.759  0.00  0.00    +0.145 HD
ENDBRANCH  19  25
BRANCH  19  15
ATOM     15  C   UNL     1      19.944  -1.539  30.237  0.00  0.00    +0.035 C 
BRANCH  15  12
ATOM     12  C   UNL     1      18.649  -0.958  30.803  0.00  0.00    -0.009 C 
ATOM     13  C   UNL     1      17.894  -2.013  31.623  0.00  0.00    +0.003 C 
ATOM     14  C   UNL     1      18.939   0.287  31.651  0.00  0.00    +0.003 C 
ATOM     16  C   UNL     1      16.622  -1.441  32.243  0.00  0.00    +0.000 C 
ATOM     17  C   UNL     1      17.664   0.856  32.271  0.00  0.00    +0.000 C 
ATOM     18  C   UNL     1      16.912  -0.198  33.078  0.00  0.00    +0.000 C 
ENDBRANCH  15  12
ENDBRANCH  19  15
ENDBRANCH   9  19
ENDBRANCH  20  23
BRANCH   8   1
ATOM      1  S   UNL     1      20.329  -3.672  24.912  0.00  0.00    +0.062 S 
ATOM      4  O   UNL     1      20.567  -4.813  24.054  0.00  0.00    -0.153 OA
ATOM      5  O   UNL     1      21.405  -2.770  25.267  0.00  0.00    -0.153 OA
BRANCH   1  27
ATOM     27  C   UNL     1      19.037  -2.712  24.187  0.00  0.00    +0.106 A 
ATOM     29  C   UNL     1      18.466  -3.132  22.997  0.00  0.00    +0.028 A 
ATOM     30  C   UNL     1      18.618  -1.553  24.819  0.00  0.00    +0.028 A 
ATOM     33  C   UNL     1      17.445  -2.373  22.424  0.00  0.00    +0.002 A 
ATOM     34  C   UNL     1      17.598  -0.793  24.246  0.00  0.00    +0.002 A 
ATOM     35  C   UNL     1      17.012  -1.203  23.049  0.00  0.00    +0.000 A 
ENDBRANCH   1  27
ENDBRANCH   8   1
TORSDOF 8
ENDMDL
MODEL 10
REMARK VINA RESULT:      -6.5     27.992     32.106
REMARK  Name = 11887612
REMARK  8 active torsions:
REMARK  status: ('A' for Active; 'I' for Inactive)
REMARK    1  A    between atoms: S_1  and  N_8
REMARK    2  A    between atoms: S_1  and  C_27
REMARK    3  A    between atoms: N_9  and  C_19
REMARK    4  A    between atoms: C_12  and  C_15
REMARK    5  A    between atoms: C_15  and  C_19
REMARK    6  A    between atoms: C_19  and  C_25
REMARK    7  A    between atoms: C_20  and  C_23
REMARK    8  A    between atoms: C_26  and  C_28
REMARK                            x       y       z     vdW  Elec       q    Type
REMARK                         _______ _______ _______ _____ _____    ______ ____
ROOT
ATOM      7  O   UNL     1     -16.306   9.001  20.560  0.00  0.00    -0.270 OA
ATOM      8  N   UNL     1     -13.905  11.538  24.231  0.00  0.00    -0.162 NA
ATOM     10  N   UNL     1     -15.325   9.636  22.586  0.00  0.00    -0.294 N 
ATOM     20  C   UNL     1     -14.337  11.913  22.855  0.00  0.00    +0.183 C 
ATOM     21  C   UNL     1     -15.496  11.067  22.337  0.00  0.00    +0.138 C 
ATOM     22  C   UNL     1     -14.671  10.424  24.848  0.00  0.00    +0.129 C 
ATOM     24  C   UNL     1     -14.728   9.257  23.872  0.00  0.00    +0.125 C 
ATOM     26  C   UNL     1     -15.800   8.715  21.645  0.00  0.00    +0.247 C 
ENDROOT
BRANCH  26  28
ATOM      2  F   UNL     1     -13.191   4.652  22.060  0.00  0.00    -0.205 F 
ATOM     28  C   UNL     1     -15.697   7.284  21.967  0.00  0.00    +0.040 A 
ATOM     31  C   UNL     1     -14.470   6.636  21.858  0.00  0.00    +0.051 A 
ATOM     32  C   UNL     1     -16.828   6.583  22.380  0.00  0.00    +0.013 A 
ATOM     36  C   UNL     1     -14.371   5.279  22.164  0.00  0.00    +0.124 A 
ATOM     37  C   UNL     1     -16.729   5.226  22.686  0.00  0.00    +0.004 A 
ATOM     38  C   UNL     1     -15.501   4.573  22.578  0.00  0.00    +0.038 A 
ENDBRANCH  26  28
BRANCH  20  23
ATOM      3  O   UNL     1     -12.082  11.237  22.477  0.00  0.00    -0.274 OA
ATOM      9  N   UNL     1     -13.283  12.192  20.727  0.00  0.00    -0.303 N 
ATOM     23  C   UNL     1     -13.110  11.729  22.020  0.00  0.00    +0.234 C 
ATOM     39  H   UNL     1     -14.159  12.641  20.474  0.00  0.00    +0.149 HD
BRANCH   9  19
ATOM     19  C   UNL     1     -12.241  12.150  19.726  0.00  0.00    +0.159 C 
BRANCH  19  25
ATOM      6  O   UNL     1     -11.411  13.780  18.126  0.00  0.00    -0.274 OA
ATOM     11  N   UNL     1     -12.772  14.509  19.826  0.00  0.00    -0.328 N 
ATOM     25  C   UNL     1     -12.091  13.539  19.121  0.00  0.00    +0.231 C 
ATOM     40  H   UNL     1     -13.315  14.300  20.657  0.00  0.00    +0.145 HD
ATOM     41  H   UNL     1     -12.747  15.480  19.532  0.00  0.00    +0.145 HD
ENDBRANCH  19  25
BRANCH  19  15
ATOM     15  C   UNL     1     -12.493  11.067  18.673  0.00  0.00    +0.035 C 
BRANCH  15  12
ATOM     12  C   UNL     1     -11.621   9.822  18.833  0.00  0.00    -0.009 C 
ATOM     13  C   UNL     1     -12.181   8.905  19.928  0.00  0.00    +0.003 C 
ATOM     14  C   UNL     1     -11.502   9.071  17.500  0.00  0.00    +0.003 C 
ATOM     16  C   UNL     1     -11.357   7.628  20.070  0.00  0.00    +0.000 C 
ATOM     17  C   UNL     1     -10.678   7.793  17.646  0.00  0.00    +0.000 C 
ATOM     18  C   UNL     1     -11.232   6.888  18.742  0.00  0.00    +0.000 C 
ENDBRANCH  15  12
ENDBRANCH  19  15
ENDBRANCH   9  19
ENDBRANCH  20  23
BRANCH   8   1
ATOM      1  S   UNL     1     -13.463  12.818  25.275  0.00  0.00    +0.062 S 
ATOM      4  O   UNL     1     -14.618  13.220  26.049  0.00  0.00    -0.153 OA
ATOM      5  O   UNL     1     -12.693  13.790  24.527  0.00  0.00    -0.153 OA
BRANCH   1  27
ATOM     27  C   UNL     1     -12.357  11.967  26.357  0.00  0.00    +0.106 A 
ATOM     29  C   UNL     1     -11.515  10.996  25.840  0.00  0.00    +0.028 A 
ATOM     30  C   UNL     1     -12.352  12.283  27.705  0.00  0.00    +0.028 A 
ATOM     33  C   UNL     1     -10.642  10.324  26.695  0.00  0.00    +0.002 A 
ATOM     34  C   UNL     1     -11.480  11.610  28.561  0.00  0.00    +0.002 A 
ATOM     35  C   UNL     1     -10.625  10.631  28.056  0.00  0.00    +0.000 A 
ENDBRANCH   1  27
ENDBRANCH   8   1
TORSDOF 8
ENDMDL
