MODEL 1
REMARK VINA RESULT:      -6.9      0.000      0.000
REMARK  Name = 45783977
REMARK  14 active torsions:
REMARK  status: ('A' for Active; 'I' for Inactive)
REMARK    1  A    between atoms: N_2  and  C_14
REMARK    2  A    between atoms: N_2  and  C_20
REMARK    3  A    between atoms: N_6  and  C_32
REMARK    4  A    between atoms: N_6  and  C_33
REMARK    5  A    between atoms: N_6  and  C_34
REMARK    6  A    between atoms: C_7  and  C_11
REMARK    7  A    between atoms: C_8  and  C_14
REMARK    8  A    between atoms: C_10  and  C_15
REMARK    9  A    between atoms: C_11  and  C_16
REMARK   10  A    between atoms: C_11  and  C_17
REMARK   11  A    between atoms: C_12  and  C_18
REMARK   12  A    between atoms: C_15  and  C_19
REMARK   13  A    between atoms: C_20  and  C_21
REMARK   14  A    between atoms: C_22  and  C_24
REMARK                            x       y       z     vdW  Elec       q    Type
REMARK                         _______ _______ _______ _____ _____    ______ ____
ROOT
ATOM      7  C   UNL     1      -4.234 -10.443  15.215  0.00  0.00    +0.000 C 
ATOM      8  C   UNL     1      -5.361 -11.347  14.665  0.00  0.00    +0.029 C 
ATOM      9  C   UNL     1      -4.313 -10.356  16.746  0.00  0.00    +0.012 C 
ATOM     10  C   UNL     1      -4.252 -11.733  17.440  0.00  0.00    +0.024 C 
ATOM     12  C   UNL     1      -5.036 -12.808  16.702  0.00  0.00    -0.073 C 
ATOM     13  C   UNL     1      -5.533 -12.612  15.467  0.00  0.00    -0.023 C 
ATOM     18  C   UNL     1      -5.192 -14.142  17.379  0.00  0.00    +0.039 C 
ENDROOT
BRANCH   7  11
ATOM     11  C   UNL     1      -2.852 -10.929  14.758  0.00  0.00    -0.013 C 
ATOM     16  C   UNL     1      -2.645 -10.628  13.278  0.00  0.00    +0.007 C 
ATOM     17  C   UNL     1      -1.755 -10.285  15.600  0.00  0.00    +0.007 C 
ENDBRANCH   7  11
BRANCH   8  14
ATOM     14  C   UNL     1      -6.700 -10.605  14.599  0.00  0.00    +0.089 C 
BRANCH  14   2
ATOM      2  N   UNL     1      -6.580  -9.399  13.799  0.00  0.00    -0.310 NA
ATOM     35  H   UNL     1      -5.598  -9.127  13.760  0.00  0.00    +0.122 HD
BRANCH   2  20
ATOM     20  C   UNL     1      -7.068  -9.618  12.442  0.00  0.00    +0.136 C 
BRANCH  20  21
ATOM      5  N   UNL     1      -5.669 -10.974  10.985  0.00  0.00    -0.259 NA
ATOM     21  C   UNL     1      -5.939  -9.735  11.453  0.00  0.00    +0.055 A 
ATOM     23  C   UNL     1      -5.247  -8.595  11.075  0.00  0.00    +0.024 A 
ATOM     25  C   UNL     1      -4.211  -8.738  10.159  0.00  0.00    +0.003 A 
ATOM     28  C   UNL     1      -4.656 -11.073  10.097  0.00  0.00    +0.111 A 
ATOM     29  C   UNL     1      -3.903  -9.996   9.655  0.00  0.00    +0.020 A 
ENDBRANCH  20  21
ENDBRANCH   2  20
ENDBRANCH  14   2
ENDBRANCH   8  14
BRANCH  10  15
ATOM     15  C   UNL     1      -4.697 -11.566  18.898  0.00  0.00    +0.105 C 
BRANCH  15  19
ATOM      1  O   UNL     1      -6.808 -10.505  18.288  0.00  0.00    -0.420 OA
ATOM      3  N   UNL     1      -7.022 -12.218  19.711  0.00  0.00    -0.112 NA
ATOM      4  N   UNL     1      -8.285 -11.716  19.453  0.00  0.00    -0.107 NA
ATOM     19  C   UNL     1      -6.193 -11.481  19.010  0.00  0.00    +0.218 A 
ATOM     22  C   UNL     1      -8.111 -10.717  18.619  0.00  0.00    +0.248 A 
BRANCH  22  24
ATOM     24  C   UNL     1      -9.065  -9.834  18.013  0.00  0.00    +0.039 A 
ATOM     26  C   UNL     1     -10.425  -9.986  18.280  0.00  0.00    +0.015 A 
ATOM     27  C   UNL     1      -8.632  -8.822  17.155  0.00  0.00    +0.015 A 
ATOM     30  C   UNL     1     -11.352  -9.127  17.692  0.00  0.00    +0.024 A 
ATOM     31  C   UNL     1      -9.558  -7.964  16.566  0.00  0.00    +0.024 A 
ATOM     32  C   UNL     1     -10.919  -8.115  16.834  0.00  0.00    +0.029 A 
BRANCH  32   6
ATOM      6  N   UNL     1     -11.857  -7.247  16.237  0.00  0.00    -0.336 N 
ATOM     33  C   UNL     1     -11.446  -5.946  15.749  0.00  0.00    +0.129 C 
ATOM     34  C   UNL     1     -13.246  -7.642  16.110  0.00  0.00    +0.129 C 
ENDBRANCH  32   6
ENDBRANCH  22  24
ENDBRANCH  15  19
ENDBRANCH  10  15
TORSDOF 9
ENDMDL
MODEL 2
REMARK VINA RESULT:      -6.5      2.249      5.598
REMARK  Name = 45783977
REMARK  14 active torsions:
REMARK  status: ('A' for Active; 'I' for Inactive)
REMARK    1  A    between atoms: N_2  and  C_14
REMARK    2  A    between atoms: N_2  and  C_20
REMARK    3  A    between atoms: N_6  and  C_32
REMARK    4  A    between atoms: N_6  and  C_33
REMARK    5  A    between atoms: N_6  and  C_34
REMARK    6  A    between atoms: C_7  and  C_11
REMARK    7  A    between atoms: C_8  and  C_14
REMARK    8  A    between atoms: C_10  and  C_15
REMARK    9  A    between atoms: C_11  and  C_16
REMARK   10  A    between atoms: C_11  and  C_17
REMARK   11  A    between atoms: C_12  and  C_18
REMARK   12  A    between atoms: C_15  and  C_19
REMARK   13  A    between atoms: C_20  and  C_21
REMARK   14  A    between atoms: C_22  and  C_24
REMARK                            x       y       z     vdW  Elec       q    Type
REMARK                         _______ _______ _______ _____ _____    ______ ____
ROOT
ATOM      7  C   UNL     1      -4.195 -10.213  11.742  0.00  0.00    +0.000 C 
ATOM      8  C   UNL     1      -5.289 -11.289  11.543  0.00  0.00    +0.029 C 
ATOM      9  C   UNL     1      -3.160 -10.684  12.774  0.00  0.00    +0.012 C 
ATOM     10  C   UNL     1      -2.497 -12.028  12.405  0.00  0.00    +0.024 C 
ATOM     12  C   UNL     1      -3.472 -13.028  11.802  0.00  0.00    -0.073 C 
ATOM     13  C   UNL     1      -4.719 -12.681  11.434  0.00  0.00    -0.023 C 
ATOM     18  C   UNL     1      -2.976 -14.429  11.569  0.00  0.00    +0.039 C 
ENDROOT
BRANCH   7  11
ATOM     11  C   UNL     1      -3.525  -9.843  10.412  0.00  0.00    -0.013 C 
ATOM     16  C   UNL     1      -4.438  -8.939   9.590  0.00  0.00    +0.007 C 
ATOM     17  C   UNL     1      -2.180  -9.169  10.664  0.00  0.00    +0.007 C 
ENDBRANCH   7  11
BRANCH   8  14
ATOM     14  C   UNL     1      -6.327 -11.255  12.668  0.00  0.00    +0.089 C 
BRANCH  14   2
ATOM      2  N   UNL     1      -6.926  -9.937  12.775  0.00  0.00    -0.310 NA
ATOM     35  H   UNL     1      -6.827  -9.457  11.881  0.00  0.00    +0.122 HD
BRANCH   2  20
ATOM     20  C   UNL     1      -8.342 -10.029  13.112  0.00  0.00    +0.136 C 
BRANCH  20  21
ATOM      5  N   UNL     1      -7.683  -9.728  15.434  0.00  0.00    -0.259 NA
ATOM     21  C   UNL     1      -8.626  -9.500  14.492  0.00  0.00    +0.055 A 
ATOM     23  C   UNL     1      -9.809  -8.819  14.728  0.00  0.00    +0.024 A 
ATOM     25  C   UNL     1     -10.040  -8.343  16.013  0.00  0.00    +0.003 A 
ATOM     28  C   UNL     1      -7.943  -9.251  16.671  0.00  0.00    +0.111 A 
ATOM     29  C   UNL     1      -9.094  -8.558  17.010  0.00  0.00    +0.020 A 
ENDBRANCH  20  21
ENDBRANCH   2  20
ENDBRANCH  14   2
ENDBRANCH   8  14
BRANCH  10  15
ATOM     15  C   UNL     1      -1.774 -12.572  13.643  0.00  0.00    +0.105 C 
BRANCH  15  19
ATOM      1  O   UNL     1      -3.464 -12.321  15.385  0.00  0.00    -0.420 OA
ATOM      3  N   UNL     1      -1.695 -10.971  15.622  0.00  0.00    -0.112 NA
ATOM      4  N   UNL     1      -2.565 -10.725  16.669  0.00  0.00    -0.107 NA
ATOM     19  C   UNL     1      -2.261 -11.909  14.900  0.00  0.00    +0.218 A 
ATOM     22  C   UNL     1      -3.582 -11.534  16.490  0.00  0.00    +0.248 A 
BRANCH  22  24
ATOM     24  C   UNL     1      -4.776 -11.715  17.264  0.00  0.00    +0.039 A 
ATOM     26  C   UNL     1      -4.934 -11.036  18.472  0.00  0.00    +0.015 A 
ATOM     27  C   UNL     1      -5.780 -12.571  16.809  0.00  0.00    +0.015 A 
ATOM     30  C   UNL     1      -6.095 -11.211  19.224  0.00  0.00    +0.024 A 
ATOM     31  C   UNL     1      -6.940 -12.746  17.561  0.00  0.00    +0.024 A 
ATOM     32  C   UNL     1      -7.099 -12.067  18.769  0.00  0.00    +0.029 A 
BRANCH  32   6
ATOM      6  N   UNL     1      -8.272 -12.245  19.531  0.00  0.00    -0.336 N 
ATOM     33  C   UNL     1      -8.545 -13.516  20.171  0.00  0.00    +0.129 C 
ATOM     34  C   UNL     1      -9.224 -11.162  19.678  0.00  0.00    +0.129 C 
ENDBRANCH  32   6
ENDBRANCH  22  24
ENDBRANCH  15  19
ENDBRANCH  10  15
TORSDOF 9
ENDMDL
MODEL 3
REMARK VINA RESULT:      -6.5     27.402     30.975
REMARK  Name = 45783977
REMARK  14 active torsions:
REMARK  status: ('A' for Active; 'I' for Inactive)
REMARK    1  A    between atoms: N_2  and  C_14
REMARK    2  A    between atoms: N_2  and  C_20
REMARK    3  A    between atoms: N_6  and  C_32
REMARK    4  A    between atoms: N_6  and  C_33
REMARK    5  A    between atoms: N_6  and  C_34
REMARK    6  A    between atoms: C_7  and  C_11
REMARK    7  A    between atoms: C_8  and  C_14
REMARK    8  A    between atoms: C_10  and  C_15
REMARK    9  A    between atoms: C_11  and  C_16
REMARK   10  A    between atoms: C_11  and  C_17
REMARK   11  A    between atoms: C_12  and  C_18
REMARK   12  A    between atoms: C_15  and  C_19
REMARK   13  A    between atoms: C_20  and  C_21
REMARK   14  A    between atoms: C_22  and  C_24
REMARK                            x       y       z     vdW  Elec       q    Type
REMARK                         _______ _______ _______ _____ _____    ______ ____
ROOT
ATOM      7  C   UNL     1      13.136   9.810  18.888  0.00  0.00    +0.000 C 
ATOM      8  C   UNL     1      12.397   8.457  19.008  0.00  0.00    +0.029 C 
ATOM      9  C   UNL     1      14.110   9.998  20.061  0.00  0.00    +0.012 C 
ATOM     10  C   UNL     1      15.142   8.857  20.186  0.00  0.00    +0.024 C 
ATOM     12  C   UNL     1      14.551   7.484  19.907  0.00  0.00    -0.073 C 
ATOM     13  C   UNL     1      13.318   7.326  19.390  0.00  0.00    -0.023 C 
ATOM     18  C   UNL     1      15.421   6.286  20.171  0.00  0.00    +0.039 C 
ENDROOT
BRANCH   7  11
ATOM     11  C   UNL     1      13.860   9.935  17.541  0.00  0.00    -0.013 C 
ATOM     16  C   UNL     1      12.939   9.513  16.401  0.00  0.00    +0.007 C 
ATOM     17  C   UNL     1      14.358  11.362  17.334  0.00  0.00    +0.007 C 
ENDBRANCH   7  11
BRANCH   8  14
ATOM     14  C   UNL     1      11.243   8.530  20.013  0.00  0.00    +0.089 C 
BRANCH  14   2
ATOM      2  N   UNL     1      11.747   8.755  21.357  0.00  0.00    -0.310 NA
ATOM     35  H   UNL     1      12.487   9.454  21.318  0.00  0.00    +0.122 HD
BRANCH   2  20
ATOM     20  C   UNL     1      10.688   9.231  22.241  0.00  0.00    +0.136 C 
BRANCH  20  21
ATOM      5  N   UNL     1      10.928  10.682  24.179  0.00  0.00    -0.259 NA
ATOM     21  C   UNL     1      11.016  10.576  22.833  0.00  0.00    +0.055 A 
ATOM     23  C   UNL     1      11.385  11.615  21.996  0.00  0.00    +0.024 A 
ATOM     25  C   UNL     1      11.682  12.843  22.575  0.00  0.00    +0.003 A 
ATOM     28  C   UNL     1      11.224  11.891  24.706  0.00  0.00    +0.111 A 
ATOM     29  C   UNL     1      11.603  12.993  23.955  0.00  0.00    +0.020 A 
ENDBRANCH  20  21
ENDBRANCH   2  20
ENDBRANCH  14   2
ENDBRANCH   8  14
BRANCH  10  15
ATOM     15  C   UNL     1      15.808   8.950  21.565  0.00  0.00    +0.105 C 
BRANCH  15  19
ATOM      1  O   UNL     1      17.834   7.594  21.668  0.00  0.00    -0.420 OA
ATOM      3  N   UNL     1      18.199   9.751  21.197  0.00  0.00    -0.112 NA
ATOM      4  N   UNL     1      19.422   9.106  21.224  0.00  0.00    -0.107 NA
ATOM     19  C   UNL     1      17.302   8.830  21.462  0.00  0.00    +0.218 A 
ATOM     22  C   UNL     1      19.161   7.850  21.503  0.00  0.00    +0.248 A 
BRANCH  22  24
ATOM     24  C   UNL     1      20.041   6.729  21.655  0.00  0.00    +0.039 A 
ATOM     26  C   UNL     1      20.105   5.751  20.662  0.00  0.00    +0.015 A 
ATOM     27  C   UNL     1      20.834   6.614  22.798  0.00  0.00    +0.015 A 
ATOM     30  C   UNL     1      20.961   4.661  20.809  0.00  0.00    +0.024 A 
ATOM     31  C   UNL     1      21.690   5.524  22.945  0.00  0.00    +0.024 A 
ATOM     32  C   UNL     1      21.754   4.547  21.952  0.00  0.00    +0.029 A 
BRANCH  32   6
ATOM      6  N   UNL     1      22.620   3.443  22.102  0.00  0.00    -0.336 N 
ATOM     33  C   UNL     1      22.710   2.749  23.370  0.00  0.00    +0.129 C 
ATOM     34  C   UNL     1      23.435   2.993  20.991  0.00  0.00    +0.129 C 
ENDBRANCH  32   6
ENDBRANCH  22  24
ENDBRANCH  15  19
ENDBRANCH  10  15
TORSDOF 9
ENDMDL
MODEL 4
REMARK VINA RESULT:      -6.3     24.673     29.024
REMARK  Name = 45783977
REMARK  14 active torsions:
REMARK  status: ('A' for Active; 'I' for Inactive)
REMARK    1  A    between atoms: N_2  and  C_14
REMARK    2  A    between atoms: N_2  and  C_20
REMARK    3  A    between atoms: N_6  and  C_32
REMARK    4  A    between atoms: N_6  and  C_33
REMARK    5  A    between atoms: N_6  and  C_34
REMARK    6  A    between atoms: C_7  and  C_11
REMARK    7  A    between atoms: C_8  and  C_14
REMARK    8  A    between atoms: C_10  and  C_15
REMARK    9  A    between atoms: C_11  and  C_16
REMARK   10  A    between atoms: C_11  and  C_17
REMARK   11  A    between atoms: C_12  and  C_18
REMARK   12  A    between atoms: C_15  and  C_19
REMARK   13  A    between atoms: C_20  and  C_21
REMARK   14  A    between atoms: C_22  and  C_24
REMARK                            x       y       z     vdW  Elec       q    Type
REMARK                         _______ _______ _______ _____ _____    ______ ____
ROOT
ATOM      7  C   UNL     1       9.331   9.007   2.628  0.00  0.00    +0.000 C 
ATOM      8  C   UNL     1       8.514   9.230   3.921  0.00  0.00    +0.029 C 
ATOM      9  C   UNL     1      10.460   7.995   2.872  0.00  0.00    +0.012 C 
ATOM     10  C   UNL     1       9.958   6.636   3.404  0.00  0.00    +0.024 C 
ATOM     12  C   UNL     1       8.831   6.771   4.418  0.00  0.00    -0.073 C 
ATOM     13  C   UNL     1       8.206   7.942   4.642  0.00  0.00    -0.023 C 
ATOM     18  C   UNL     1       8.386   5.525   5.132  0.00  0.00    +0.039 C 
ENDROOT
BRANCH   7  11
ATOM     11  C   UNL     1       8.431   8.564   1.467  0.00  0.00    -0.013 C 
ATOM     16  C   UNL     1       7.269   9.536   1.293  0.00  0.00    +0.007 C 
ATOM     17  C   UNL     1       9.240   8.453   0.179  0.00  0.00    +0.007 C 
ENDBRANCH   7  11
BRANCH   8  14
ATOM     14  C   UNL     1       9.225  10.188   4.882  0.00  0.00    +0.089 C 
BRANCH  14   2
ATOM      2  N   UNL     1       8.766   9.983   6.245  0.00  0.00    -0.310 NA
ATOM     35  H   UNL     1       8.168   9.157   6.270  0.00  0.00    +0.122 HD
BRANCH   2  20
ATOM     20  C   UNL     1       9.891   9.784   7.153  0.00  0.00    +0.136 C 
BRANCH  20  21
ATOM      5  N   UNL     1       9.041   7.748   8.177  0.00  0.00    -0.259 NA
ATOM     21  C   UNL     1      10.066   8.335   7.519  0.00  0.00    +0.055 A 
ATOM     23  C   UNL     1      11.238   7.683   7.171  0.00  0.00    +0.024 A 
ATOM     25  C   UNL     1      11.367   6.345   7.523  0.00  0.00    +0.003 A 
ATOM     28  C   UNL     1       9.203   6.447   8.503  0.00  0.00    +0.111 A 
ATOM     29  C   UNL     1      10.335   5.706   8.201  0.00  0.00    +0.020 A 
ENDBRANCH  20  21
ENDBRANCH   2  20
ENDBRANCH  14   2
ENDBRANCH   8  14
BRANCH  10  15
ATOM     15  C   UNL     1      11.158   5.851   3.948  0.00  0.00    +0.105 C 
BRANCH  15  19
ATOM      1  O   UNL     1      12.694   5.312   2.129  0.00  0.00    -0.420 OA
ATOM      3  N   UNL     1      11.313   3.642   2.688  0.00  0.00    -0.112 NA
ATOM      4  N   UNL     1      12.120   3.202   1.655  0.00  0.00    -0.107 NA
ATOM     19  C   UNL     1      11.683   4.877   2.931  0.00  0.00    +0.218 A 
ATOM     22  C   UNL     1      12.909   4.209   1.361  0.00  0.00    +0.248 A 
BRANCH  22  24
ATOM     24  C   UNL     1      13.944   4.324   0.375  0.00  0.00    +0.039 A 
ATOM     26  C   UNL     1      15.270   4.062   0.721  0.00  0.00    +0.015 A 
ATOM     27  C   UNL     1      13.626   4.698  -0.931  0.00  0.00    +0.015 A 
ATOM     30  C   UNL     1      16.276   4.172  -0.237  0.00  0.00    +0.024 A 
ATOM     31  C   UNL     1      14.632   4.808  -1.889  0.00  0.00    +0.024 A 
ATOM     32  C   UNL     1      15.958   4.546  -1.543  0.00  0.00    +0.029 A 
BRANCH  32   6
ATOM      6  N   UNL     1      16.976   4.659  -2.513  0.00  0.00    -0.336 N 
ATOM     33  C   UNL     1      16.658   5.061  -3.868  0.00  0.00    +0.129 C 
ATOM     34  C   UNL     1      18.354   4.368  -2.168  0.00  0.00    +0.129 C 
ENDBRANCH  32   6
ENDBRANCH  22  24
ENDBRANCH  15  19
ENDBRANCH  10  15
TORSDOF 9
ENDMDL
MODEL 5
REMARK VINA RESULT:      -6.2     24.879     28.399
REMARK  Name = 45783977
REMARK  14 active torsions:
REMARK  status: ('A' for Active; 'I' for Inactive)
REMARK    1  A    between atoms: N_2  and  C_14
REMARK    2  A    between atoms: N_2  and  C_20
REMARK    3  A    between atoms: N_6  and  C_32
REMARK    4  A    between atoms: N_6  and  C_33
REMARK    5  A    between atoms: N_6  and  C_34
REMARK    6  A    between atoms: C_7  and  C_11
REMARK    7  A    between atoms: C_8  and  C_14
REMARK    8  A    between atoms: C_10  and  C_15
REMARK    9  A    between atoms: C_11  and  C_16
REMARK   10  A    between atoms: C_11  and  C_17
REMARK   11  A    between atoms: C_12  and  C_18
REMARK   12  A    between atoms: C_15  and  C_19
REMARK   13  A    between atoms: C_20  and  C_21
REMARK   14  A    between atoms: C_22  and  C_24
REMARK                            x       y       z     vdW  Elec       q    Type
REMARK                         _______ _______ _______ _____ _____    ______ ____
ROOT
ATOM      7  C   UNL     1      11.341   9.529   5.513  0.00  0.00    +0.000 C 
ATOM      8  C   UNL     1      11.952   8.774   6.716  0.00  0.00    +0.029 C 
ATOM      9  C   UNL     1      10.284   8.663   4.814  0.00  0.00    +0.012 C 
ATOM     10  C   UNL     1       9.154   8.199   5.758  0.00  0.00    +0.024 C 
ATOM     12  C   UNL     1       9.653   7.813   7.142  0.00  0.00    -0.073 C 
ATOM     13  C   UNL     1      10.911   8.069   7.547  0.00  0.00    -0.023 C 
ATOM     18  C   UNL     1       8.667   7.180   8.085  0.00  0.00    +0.039 C 
ENDROOT
BRANCH   7  11
ATOM     11  C   UNL     1      10.756  10.882   5.940  0.00  0.00    -0.013 C 
ATOM     16  C   UNL     1      11.653  11.545   6.981  0.00  0.00    +0.007 C 
ATOM     17  C   UNL     1      10.573  11.789   4.728  0.00  0.00    +0.007 C 
ENDBRANCH   7  11
BRANCH   8  14
ATOM     14  C   UNL     1      13.012   7.761   6.269  0.00  0.00    +0.089 C 
BRANCH  14   2
ATOM      2  N   UNL     1      13.867   8.331   5.244  0.00  0.00    -0.310 NA
ATOM     35  H   UNL     1      14.516   8.984   5.682  0.00  0.00    +0.122 HD
BRANCH   2  20
ATOM     20  C   UNL     1      14.627   7.293   4.557  0.00  0.00    +0.136 C 
BRANCH  20  21
ATOM      5  N   UNL     1      15.123   6.566   2.289  0.00  0.00    -0.259 NA
ATOM     21  C   UNL     1      14.239   7.181   3.107  0.00  0.00    +0.055 A 
ATOM     23  C   UNL     1      13.023   7.697   2.687  0.00  0.00    +0.024 A 
ATOM     25  C   UNL     1      12.695   7.576   1.342  0.00  0.00    +0.003 A 
ATOM     28  C   UNL     1      14.769   6.467   0.989  0.00  0.00    +0.111 A 
ATOM     29  C   UNL     1      13.579   6.950   0.469  0.00  0.00    +0.020 A 
ENDBRANCH  20  21
ENDBRANCH   2  20
ENDBRANCH  14   2
ENDBRANCH   8  14
BRANCH  10  15
ATOM     15  C   UNL     1       8.374   7.071   5.069  0.00  0.00    +0.105 C 
BRANCH  15  19
ATOM      1  O   UNL     1       9.647   5.864   3.373  0.00  0.00    -0.420 OA
ATOM      3  N   UNL     1       9.783   4.979   5.423  0.00  0.00    -0.112 NA
ATOM      4  N   UNL     1      10.545   4.201   4.570  0.00  0.00    -0.107 NA
ATOM     19  C   UNL     1       9.279   5.936   4.681  0.00  0.00    +0.218 A 
ATOM     22  C   UNL     1      10.436   4.754   3.385  0.00  0.00    +0.248 A 
BRANCH  22  24
ATOM     24  C   UNL     1      11.010   4.379   2.126  0.00  0.00    +0.039 A 
ATOM     26  C   UNL     1      10.357   4.701   0.937  0.00  0.00    +0.015 A 
ATOM     27  C   UNL     1      12.224   3.690   2.090  0.00  0.00    +0.015 A 
ATOM     30  C   UNL     1      10.916   4.337  -0.287  0.00  0.00    +0.024 A 
ATOM     31  C   UNL     1      12.782   3.326   0.866  0.00  0.00    +0.024 A 
ATOM     32  C   UNL     1      12.129   3.648  -0.323  0.00  0.00    +0.029 A 
BRANCH  32   6
ATOM      6  N   UNL     1      12.694   3.278  -1.562  0.00  0.00    -0.336 N 
ATOM     33  C   UNL     1      12.102   2.216  -2.349  0.00  0.00    +0.129 C 
ATOM     34  C   UNL     1      13.877   3.952  -2.060  0.00  0.00    +0.129 C 
ENDBRANCH  32   6
ENDBRANCH  22  24
ENDBRANCH  15  19
ENDBRANCH  10  15
TORSDOF 9
ENDMDL
MODEL 6
REMARK VINA RESULT:      -6.2     24.525     29.265
REMARK  Name = 45783977
REMARK  14 active torsions:
REMARK  status: ('A' for Active; 'I' for Inactive)
REMARK    1  A    between atoms: N_2  and  C_14
REMARK    2  A    between atoms: N_2  and  C_20
REMARK    3  A    between atoms: N_6  and  C_32
REMARK    4  A    between atoms: N_6  and  C_33
REMARK    5  A    between atoms: N_6  and  C_34
REMARK    6  A    between atoms: C_7  and  C_11
REMARK    7  A    between atoms: C_8  and  C_14
REMARK    8  A    between atoms: C_10  and  C_15
REMARK    9  A    between atoms: C_11  and  C_16
REMARK   10  A    between atoms: C_11  and  C_17
REMARK   11  A    between atoms: C_12  and  C_18
REMARK   12  A    between atoms: C_15  and  C_19
REMARK   13  A    between atoms: C_20  and  C_21
REMARK   14  A    between atoms: C_22  and  C_24
REMARK                            x       y       z     vdW  Elec       q    Type
REMARK                         _______ _______ _______ _____ _____    ______ ____
ROOT
ATOM      7  C   UNL     1      12.910   8.066   5.664  0.00  0.00    +0.000 C 
ATOM      8  C   UNL     1      11.820   9.159   5.575  0.00  0.00    +0.029 C 
ATOM      9  C   UNL     1      12.373   6.727   5.140  0.00  0.00    +0.012 C 
ATOM     10  C   UNL     1      11.841   6.805   3.694  0.00  0.00    +0.024 C 
ATOM     12  C   UNL     1      11.078   8.090   3.408  0.00  0.00    -0.073 C 
ATOM     13  C   UNL     1      11.072   9.126   4.267  0.00  0.00    -0.023 C 
ATOM     18  C   UNL     1      10.366   8.196   2.087  0.00  0.00    +0.039 C 
ENDROOT
BRANCH   7  11
ATOM     11  C   UNL     1      14.184   8.483   4.917  0.00  0.00    -0.013 C 
ATOM     16  C   UNL     1      14.650   9.857   5.386  0.00  0.00    +0.007 C 
ATOM     17  C   UNL     1      15.282   7.443   5.115  0.00  0.00    +0.007 C 
ENDBRANCH   7  11
BRANCH   8  14
ATOM     14  C   UNL     1      10.820   9.057   6.731  0.00  0.00    +0.089 C 
BRANCH  14   2
ATOM      2  N   UNL     1       9.500   8.705   6.238  0.00  0.00    -0.310 NA
ATOM     35  H   UNL     1       9.601   8.023   5.487  0.00  0.00    +0.122 HD
BRANCH   2  20
ATOM     20  C   UNL     1       8.680   8.130   7.298  0.00  0.00    +0.136 C 
BRANCH  20  21
ATOM      5  N   UNL     1       9.162   6.374   8.912  0.00  0.00    -0.259 NA
ATOM     21  C   UNL     1       9.077   6.710   7.605  0.00  0.00    +0.055 A 
ATOM     23  C   UNL     1       9.329   5.834   6.561  0.00  0.00    +0.024 A 
ATOM     25  C   UNL     1       9.692   4.531   6.879  0.00  0.00    +0.003 A 
ATOM     28  C   UNL     1       9.518   5.099   9.182  0.00  0.00    +0.111 A 
ATOM     29  C   UNL     1       9.790   4.147   8.212  0.00  0.00    +0.020 A 
ENDBRANCH  20  21
ENDBRANCH   2  20
ENDBRANCH  14   2
ENDBRANCH   8  14
BRANCH  10  15
ATOM     15  C   UNL     1      11.015   5.545   3.407  0.00  0.00    +0.105 C 
BRANCH  15  19
ATOM      1  O   UNL     1      12.671   5.102   1.670  0.00  0.00    -0.420 OA
ATOM      3  N   UNL     1      11.710   3.264   2.510  0.00  0.00    -0.112 NA
ATOM      4  N   UNL     1      12.618   2.869   1.545  0.00  0.00    -0.107 NA
ATOM     19  C   UNL     1      11.775   4.574   2.548  0.00  0.00    +0.218 A 
ATOM     22  C   UNL     1      13.154   3.974   1.081  0.00  0.00    +0.248 A 
BRANCH  22  24
ATOM     24  C   UNL     1      14.153   4.171   0.072  0.00  0.00    +0.039 A 
ATOM     26  C   UNL     1      13.780   4.280  -1.268  0.00  0.00    +0.015 A 
ATOM     27  C   UNL     1      15.500   4.255   0.429  0.00  0.00    +0.015 A 
ATOM     30  C   UNL     1      14.751   4.473  -2.249  0.00  0.00    +0.024 A 
ATOM     31  C   UNL     1      16.471   4.448  -0.552  0.00  0.00    +0.024 A 
ATOM     32  C   UNL     1      16.098   4.557  -1.892  0.00  0.00    +0.029 A 
BRANCH  32   6
ATOM      6  N   UNL     1      17.080   4.751  -2.885  0.00  0.00    -0.336 N 
ATOM     33  C   UNL     1      18.466   4.423  -2.620  0.00  0.00    +0.129 C 
ATOM     34  C   UNL     1      16.717   5.287  -4.182  0.00  0.00    +0.129 C 
ENDBRANCH  32   6
ENDBRANCH  22  24
ENDBRANCH  15  19
ENDBRANCH  10  15
TORSDOF 9
ENDMDL
MODEL 7
REMARK VINA RESULT:      -6.2     24.355     28.932
REMARK  Name = 45783977
REMARK  14 active torsions:
REMARK  status: ('A' for Active; 'I' for Inactive)
REMARK    1  A    between atoms: N_2  and  C_14
REMARK    2  A    between atoms: N_2  and  C_20
REMARK    3  A    between atoms: N_6  and  C_32
REMARK    4  A    between atoms: N_6  and  C_33
REMARK    5  A    between atoms: N_6  and  C_34
REMARK    6  A    between atoms: C_7  and  C_11
REMARK    7  A    between atoms: C_8  and  C_14
REMARK    8  A    between atoms: C_10  and  C_15
REMARK    9  A    between atoms: C_11  and  C_16
REMARK   10  A    between atoms: C_11  and  C_17
REMARK   11  A    between atoms: C_12  and  C_18
REMARK   12  A    between atoms: C_15  and  C_19
REMARK   13  A    between atoms: C_20  and  C_21
REMARK   14  A    between atoms: C_22  and  C_24
REMARK                            x       y       z     vdW  Elec       q    Type
REMARK                         _______ _______ _______ _____ _____    ______ ____
ROOT
ATOM      7  C   UNL     1       9.400   6.140   7.418  0.00  0.00    +0.000 C 
ATOM      8  C   UNL     1      10.176   7.402   7.862  0.00  0.00    +0.029 C 
ATOM      9  C   UNL     1       9.390   6.025   5.887  0.00  0.00    +0.012 C 
ATOM     10  C   UNL     1      10.802   6.005   5.266  0.00  0.00    +0.024 C 
ATOM     12  C   UNL     1      11.766   6.966   5.945  0.00  0.00    -0.073 C 
ATOM     13  C   UNL     1      11.463   7.589   7.099  0.00  0.00    -0.023 C 
ATOM     18  C   UNL     1      13.117   7.158   5.312  0.00  0.00    +0.039 C 
ENDROOT
BRANCH   7  11
ATOM     11  C   UNL     1       9.976   4.873   8.065  0.00  0.00    -0.013 C 
ATOM     16  C   UNL     1       9.422   4.696   9.475  0.00  0.00    +0.007 C 
ATOM     17  C   UNL     1       9.670   3.650   7.206  0.00  0.00    +0.007 C 
ENDBRANCH   7  11
BRANCH   8  14
ATOM     14  C   UNL     1       9.322   8.667   7.728  0.00  0.00    +0.089 C 
BRANCH  14   2
ATOM      2  N   UNL     1      10.140   9.857   7.885  0.00  0.00    -0.310 NA
ATOM     35  H   UNL     1      10.609  10.053   7.001  0.00  0.00    +0.122 HD
BRANCH   2  20
ATOM     20  C   UNL     1       9.325  11.008   8.257  0.00  0.00    +0.136 C 
BRANCH  20  21
ATOM      5  N   UNL     1      10.914  11.542  10.020  0.00  0.00    -0.259 NA
ATOM     21  C   UNL     1       9.612  11.468   9.661  0.00  0.00    +0.055 A 
ATOM     23  C   UNL     1       8.557  11.788  10.500  0.00  0.00    +0.024 A 
ATOM     25  C   UNL     1       8.857  12.210  11.790  0.00  0.00    +0.003 A 
ATOM     28  C   UNL     1      11.166  11.956  11.281  0.00  0.00    +0.111 A 
ATOM     29  C   UNL     1      10.184  12.299  12.197  0.00  0.00    +0.020 A 
ENDBRANCH  20  21
ENDBRANCH   2  20
ENDBRANCH  14   2
ENDBRANCH   8  14
BRANCH  10  15
ATOM     15  C   UNL     1      10.676   6.254   3.758  0.00  0.00    +0.105 C 
BRANCH  15  19
ATOM      1  O   UNL     1      12.334   5.601   2.090  0.00  0.00    -0.420 OA
ATOM      3  N   UNL     1      11.209   3.886   2.983  0.00  0.00    -0.112 NA
ATOM      4  N   UNL     1      12.107   3.376   2.063  0.00  0.00    -0.107 NA
ATOM     19  C   UNL     1      11.377   5.187   2.965  0.00  0.00    +0.218 A 
ATOM     22  C   UNL     1      12.741   4.412   1.566  0.00  0.00    +0.248 A 
BRANCH  22  24
ATOM     24  C   UNL     1      13.777   4.483   0.578  0.00  0.00    +0.039 A 
ATOM     26  C   UNL     1      13.542   5.131  -0.635  0.00  0.00    +0.015 A 
ATOM     27  C   UNL     1      15.022   3.904   0.829  0.00  0.00    +0.015 A 
ATOM     30  C   UNL     1      14.550   5.201  -1.595  0.00  0.00    +0.024 A 
ATOM     31  C   UNL     1      16.029   3.974  -0.131  0.00  0.00    +0.024 A 
ATOM     32  C   UNL     1      15.795   4.622  -1.344  0.00  0.00    +0.029 A 
BRANCH  32   6
ATOM      6  N   UNL     1      16.814   4.691  -2.316  0.00  0.00    -0.336 N 
ATOM     33  C   UNL     1      18.179   4.348  -1.974  0.00  0.00    +0.129 C 
ATOM     34  C   UNL     1      16.510   5.113  -3.670  0.00  0.00    +0.129 C 
ENDBRANCH  32   6
ENDBRANCH  22  24
ENDBRANCH  15  19
ENDBRANCH  10  15
TORSDOF 9
ENDMDL
MODEL 8
REMARK VINA RESULT:      -6.2     23.825     27.849
REMARK  Name = 45783977
REMARK  14 active torsions:
REMARK  status: ('A' for Active; 'I' for Inactive)
REMARK    1  A    between atoms: N_2  and  C_14
REMARK    2  A    between atoms: N_2  and  C_20
REMARK    3  A    between atoms: N_6  and  C_32
REMARK    4  A    between atoms: N_6  and  C_33
REMARK    5  A    between atoms: N_6  and  C_34
REMARK    6  A    between atoms: C_7  and  C_11
REMARK    7  A    between atoms: C_8  and  C_14
REMARK    8  A    between atoms: C_10  and  C_15
REMARK    9  A    between atoms: C_11  and  C_16
REMARK   10  A    between atoms: C_11  and  C_17
REMARK   11  A    between atoms: C_12  and  C_18
REMARK   12  A    between atoms: C_15  and  C_19
REMARK   13  A    between atoms: C_20  and  C_21
REMARK   14  A    between atoms: C_22  and  C_24
REMARK                            x       y       z     vdW  Elec       q    Type
REMARK                         _______ _______ _______ _____ _____    ______ ____
ROOT
ATOM      7  C   UNL     1       9.261   6.124   7.375  0.00  0.00    +0.000 C 
ATOM      8  C   UNL     1      10.025   7.404   7.788  0.00  0.00    +0.029 C 
ATOM      9  C   UNL     1       9.151   6.033   5.846  0.00  0.00    +0.012 C 
ATOM     10  C   UNL     1      10.518   6.070   5.132  0.00  0.00    +0.024 C 
ATOM     12  C   UNL     1      11.495   7.051   5.762  0.00  0.00    -0.073 C 
ATOM     13  C   UNL     1      11.251   7.645   6.945  0.00  0.00    -0.023 C 
ATOM     18  C   UNL     1      12.793   7.298   5.043  0.00  0.00    +0.039 C 
ENDROOT
BRANCH   7  11
ATOM     11  C   UNL     1       9.920   4.867   7.959  0.00  0.00    -0.013 C 
ATOM     16  C   UNL     1       9.400   4.600   9.368  0.00  0.00    +0.007 C 
ATOM     17  C   UNL     1       9.669   3.666   7.053  0.00  0.00    +0.007 C 
ENDBRANCH   7  11
BRANCH   8  14
ATOM     14  C   UNL     1       9.124   8.642   7.735  0.00  0.00    +0.089 C 
BRANCH  14   2
ATOM      2  N   UNL     1       9.871   9.801   7.280  0.00  0.00    -0.310 NA
ATOM     35  H   UNL     1      10.639   9.486   6.687  0.00  0.00    +0.122 HD
BRANCH   2  20
ATOM     20  C   UNL     1       9.021  10.707   6.515  0.00  0.00    +0.136 C 
BRANCH  20  21
ATOM      5  N   UNL     1       7.470   9.820   4.864  0.00  0.00    -0.259 NA
ATOM     21  C   UNL     1       8.745  10.182   5.132  0.00  0.00    +0.055 A 
ATOM     23  C   UNL     1       9.783  10.098   4.218  0.00  0.00    +0.024 A 
ATOM     25  C   UNL     1       9.494   9.610   2.949  0.00  0.00    +0.003 A 
ATOM     28  C   UNL     1       7.227   9.351   3.621  0.00  0.00    +0.111 A 
ATOM     29  C   UNL     1       8.194   9.227   2.635  0.00  0.00    +0.020 A 
ENDBRANCH  20  21
ENDBRANCH   2  20
ENDBRANCH  14   2
ENDBRANCH   8  14
BRANCH  10  15
ATOM     15  C   UNL     1      10.283   6.338   3.640  0.00  0.00    +0.105 C 
BRANCH  15  19
ATOM      1  O   UNL     1      10.733   5.376   1.443  0.00  0.00    -0.420 OA
ATOM      3  N   UNL     1      11.273   4.042   3.156  0.00  0.00    -0.112 NA
ATOM      4  N   UNL     1      11.579   3.376   1.983  0.00  0.00    -0.107 NA
ATOM     19  C   UNL     1      10.783   5.203   2.792  0.00  0.00    +0.218 A 
ATOM     22  C   UNL     1      11.246   4.192   1.010  0.00  0.00    +0.248 A 
BRANCH  22  24
ATOM     24  C   UNL     1      11.341   4.032  -0.412  0.00  0.00    +0.039 A 
ATOM     26  C   UNL     1      10.419   4.661  -1.249  0.00  0.00    +0.015 A 
ATOM     27  C   UNL     1      12.357   3.246  -0.960  0.00  0.00    +0.015 A 
ATOM     30  C   UNL     1      10.512   4.506  -2.631  0.00  0.00    +0.024 A 
ATOM     31  C   UNL     1      12.449   3.091  -2.342  0.00  0.00    +0.024 A 
ATOM     32  C   UNL     1      11.527   3.720  -3.179  0.00  0.00    +0.029 A 
BRANCH  32   6
ATOM      6  N   UNL     1      11.620   3.562  -4.577  0.00  0.00    -0.336 N 
ATOM     33  C   UNL     1      12.896   3.271  -5.200  0.00  0.00    +0.129 C 
ATOM     34  C   UNL     1      10.442   3.696  -5.411  0.00  0.00    +0.129 C 
ENDBRANCH  32   6
ENDBRANCH  22  24
ENDBRANCH  15  19
ENDBRANCH  10  15
TORSDOF 9
ENDMDL
MODEL 9
REMARK VINA RESULT:      -6.1     25.219     29.029
REMARK  Name = 45783977
REMARK  14 active torsions:
REMARK  status: ('A' for Active; 'I' for Inactive)
REMARK    1  A    between atoms: N_2  and  C_14
REMARK    2  A    between atoms: N_2  and  C_20
REMARK    3  A    between atoms: N_6  and  C_32
REMARK    4  A    between atoms: N_6  and  C_33
REMARK    5  A    between atoms: N_6  and  C_34
REMARK    6  A    between atoms: C_7  and  C_11
REMARK    7  A    between atoms: C_8  and  C_14
REMARK    8  A    between atoms: C_10  and  C_15
REMARK    9  A    between atoms: C_11  and  C_16
REMARK   10  A    between atoms: C_11  and  C_17
REMARK   11  A    between atoms: C_12  and  C_18
REMARK   12  A    between atoms: C_15  and  C_19
REMARK   13  A    between atoms: C_20  and  C_21
REMARK   14  A    between atoms: C_22  and  C_24
REMARK                            x       y       z     vdW  Elec       q    Type
REMARK                         _______ _______ _______ _____ _____    ______ ____
ROOT
ATOM      7  C   UNL     1      16.917  -3.175  24.483  0.00  0.00    +0.000 C 
ATOM      8  C   UNL     1      17.056  -4.711  24.588  0.00  0.00    +0.029 C 
ATOM      9  C   UNL     1      18.098  -2.479  25.176  0.00  0.00    +0.012 C 
ATOM     10  C   UNL     1      19.472  -2.911  24.623  0.00  0.00    +0.024 C 
ATOM     12  C   UNL     1      19.549  -4.398  24.309  0.00  0.00    -0.073 C 
ATOM     13  C   UNL     1      18.459  -5.187  24.310  0.00  0.00    -0.023 C 
ATOM     18  C   UNL     1      20.892  -4.960  23.932  0.00  0.00    +0.039 C 
ENDROOT
BRANCH   7  11
ATOM     11  C   UNL     1      16.789  -2.724  23.022  0.00  0.00    -0.013 C 
ATOM     16  C   UNL     1      15.343  -2.846  22.552  0.00  0.00    +0.007 C 
ATOM     17  C   UNL     1      17.290  -1.292  22.861  0.00  0.00    +0.007 C 
ENDBRANCH   7  11
BRANCH   8  14
ATOM     14  C   UNL     1      16.611  -5.227  25.961  0.00  0.00    +0.089 C 
BRANCH  14   2
ATOM      2  N   UNL     1      17.755  -5.403  26.838  0.00  0.00    -0.310 NA
ATOM     35  H   UNL     1      17.900  -4.544  27.367  0.00  0.00    +0.122 HD
BRANCH   2  20
ATOM     20  C   UNL     1      17.538  -6.505  27.768  0.00  0.00    +0.136 C 
BRANCH  20  21
ATOM      5  N   UNL     1      15.344  -7.011  28.689  0.00  0.00    -0.259 NA
ATOM     21  C   UNL     1      16.429  -6.206  28.742  0.00  0.00    +0.055 A 
ATOM     23  C   UNL     1      16.569  -5.149  29.626  0.00  0.00    +0.024 A 
ATOM     25  C   UNL     1      15.527  -4.900  30.512  0.00  0.00    +0.003 A 
ATOM     28  C   UNL     1      14.352  -6.738  29.565  0.00  0.00    +0.111 A 
ATOM     29  C   UNL     1      14.393  -5.706  30.489  0.00  0.00    +0.020 A 
ENDBRANCH  20  21
ENDBRANCH   2  20
ENDBRANCH  14   2
ENDBRANCH   8  14
BRANCH  10  15
ATOM     15  C   UNL     1      20.560  -2.451  25.602  0.00  0.00    +0.105 C 
BRANCH  15  19
ATOM      1  O   UNL     1      19.663  -1.756  27.763  0.00  0.00    -0.420 OA
ATOM      3  N   UNL     1      20.296  -3.901  27.680  0.00  0.00    -0.112 NA
ATOM      4  N   UNL     1      19.812  -3.646  28.950  0.00  0.00    -0.107 NA
ATOM     19  C   UNL     1      20.190  -2.770  27.023  0.00  0.00    +0.218 A 
ATOM     22  C   UNL     1      19.455  -2.383  28.953  0.00  0.00    +0.248 A 
BRANCH  22  24
ATOM     24  C   UNL     1      18.889  -1.578  29.996  0.00  0.00    +0.039 A 
ATOM     26  C   UNL     1      19.674  -0.629  30.650  0.00  0.00    +0.015 A 
ATOM     27  C   UNL     1      17.551  -1.744  30.357  0.00  0.00    +0.015 A 
ATOM     30  C   UNL     1      19.124   0.154  31.663  0.00  0.00    +0.024 A 
ATOM     31  C   UNL     1      17.000  -0.961  31.370  0.00  0.00    +0.024 A 
ATOM     32  C   UNL     1      17.785  -0.011  32.024  0.00  0.00    +0.029 A 
BRANCH  32   6
ATOM      6  N   UNL     1      17.229   0.780  33.050  0.00  0.00    -0.336 N 
ATOM     33  C   UNL     1      16.619   2.058  32.742  0.00  0.00    +0.129 C 
ATOM     34  C   UNL     1      17.264   0.328  34.427  0.00  0.00    +0.129 C 
ENDBRANCH  32   6
ENDBRANCH  22  24
ENDBRANCH  15  19
ENDBRANCH  10  15
TORSDOF 9
ENDMDL
MODEL 10
REMARK VINA RESULT:      -6.1     24.819     28.317
REMARK  Name = 45783977
REMARK  14 active torsions:
REMARK  status: ('A' for Active; 'I' for Inactive)
REMARK    1  A    between atoms: N_2  and  C_14
REMARK    2  A    between atoms: N_2  and  C_20
REMARK    3  A    between atoms: N_6  and  C_32
REMARK    4  A    between atoms: N_6  and  C_33
REMARK    5  A    between atoms: N_6  and  C_34
REMARK    6  A    between atoms: C_7  and  C_11
REMARK    7  A    between atoms: C_8  and  C_14
REMARK    8  A    between atoms: C_10  and  C_15
REMARK    9  A    between atoms: C_11  and  C_16
REMARK   10  A    between atoms: C_11  and  C_17
REMARK   11  A    between atoms: C_12  and  C_18
REMARK   12  A    between atoms: C_15  and  C_19
REMARK   13  A    between atoms: C_20  and  C_21
REMARK   14  A    between atoms: C_22  and  C_24
REMARK                            x       y       z     vdW  Elec       q    Type
REMARK                         _______ _______ _______ _____ _____    ______ ____
ROOT
ATOM      7  C   UNL     1       9.562   8.885   2.532  0.00  0.00    +0.000 C 
ATOM      8  C   UNL     1       9.036   8.820   3.985  0.00  0.00    +0.029 C 
ATOM      9  C   UNL     1      10.802   7.994   2.369  0.00  0.00    +0.012 C 
ATOM     10  C   UNL     1      10.553   6.522   2.760  0.00  0.00    +0.024 C 
ATOM     12  C   UNL     1       9.672   6.373   3.991  0.00  0.00    -0.073 C 
ATOM     13  C   UNL     1       9.011   7.414   4.530  0.00  0.00    -0.023 C 
ATOM     18  C   UNL     1       9.508   4.992   4.565  0.00  0.00    +0.039 C 
ENDROOT
BRANCH   7  11
ATOM     11  C   UNL     1       8.469   8.505   1.524  0.00  0.00    -0.013 C 
ATOM     16  C   UNL     1       7.231   9.371   1.729  0.00  0.00    +0.007 C 
ATOM     17  C   UNL     1       8.993   8.639   0.097  0.00  0.00    +0.007 C 
ENDBRANCH   7  11
BRANCH   8  14
ATOM     14  C   UNL     1       9.855   9.710   4.924  0.00  0.00    +0.089 C 
BRANCH  14   2
ATOM      2  N   UNL     1       9.145   9.932   6.171  0.00  0.00    -0.310 NA
ATOM     35  H   UNL     1       8.336   9.312   6.203  0.00  0.00    +0.122 HD
BRANCH   2  20
ATOM     20  C   UNL     1      10.001   9.657   7.319  0.00  0.00    +0.136 C 
BRANCH  20  21
ATOM      5  N   UNL     1      11.226   7.555   7.332  0.00  0.00    -0.259 NA
ATOM     21  C   UNL     1      10.067   8.185   7.629  0.00  0.00    +0.055 A 
ATOM     23  C   UNL     1       8.967   7.560   8.193  0.00  0.00    +0.024 A 
ATOM     25  C   UNL     1       9.061   6.201   8.467  0.00  0.00    +0.003 A 
ATOM     28  C   UNL     1      11.280   6.234   7.613  0.00  0.00    +0.111 A 
ATOM     29  C   UNL     1      10.236   5.517   8.176  0.00  0.00    +0.020 A 
ENDBRANCH  20  21
ENDBRANCH   2  20
ENDBRANCH  14   2
ENDBRANCH   8  14
BRANCH  10  15
ATOM     15  C   UNL     1      11.908   5.819   2.908  0.00  0.00    +0.105 C 
BRANCH  15  19
ATOM      1  O   UNL     1      11.431   5.027   0.650  0.00  0.00    -0.420 OA
ATOM      3  N   UNL     1      12.948   3.803   1.749  0.00  0.00    -0.112 NA
ATOM      4  N   UNL     1      12.776   3.246   0.495  0.00  0.00    -0.107 NA
ATOM     19  C   UNL     1      12.143   4.839   1.794  0.00  0.00    +0.218 A 
ATOM     22  C   UNL     1      11.882   3.992  -0.111  0.00  0.00    +0.248 A 
BRANCH  22  24
ATOM     24  C   UNL     1      11.320   3.888  -1.426  0.00  0.00    +0.039 A 
ATOM     26  C   UNL     1      10.269   4.724  -1.804  0.00  0.00    +0.015 A 
ATOM     27  C   UNL     1      11.825   2.951  -2.329  0.00  0.00    +0.015 A 
ATOM     30  C   UNL     1       9.723   4.623  -3.083  0.00  0.00    +0.024 A 
ATOM     31  C   UNL     1      11.279   2.851  -3.607  0.00  0.00    +0.024 A 
ATOM     32  C   UNL     1      10.228   3.686  -3.986  0.00  0.00    +0.029 A 
BRANCH  32   6
ATOM      6  N   UNL     1       9.675   3.584  -5.279  0.00  0.00    -0.336 N 
ATOM     33  C   UNL     1       8.827   4.636  -5.800  0.00  0.00    +0.129 C 
ATOM     34  C   UNL     1       9.943   2.420  -6.102  0.00  0.00    +0.129 C 
ENDBRANCH  32   6
ENDBRANCH  22  24
ENDBRANCH  15  19
ENDBRANCH  10  15
TORSDOF 9
ENDMDL
