MODEL 1
REMARK VINA RESULT:      -7.4      0.000      0.000
REMARK  Name = 45360996
REMARK  8 active torsions:
REMARK  status: ('A' for Active; 'I' for Inactive)
REMARK    1  A    between atoms: N_4  and  C_16
REMARK    2  A    between atoms: N_5  and  C_18
REMARK    3  A    between atoms: N_7  and  C_27
REMARK    4  A    between atoms: C_13  and  C_17
REMARK    5  A    between atoms: C_16  and  C_20
REMARK    6  A    between atoms: C_17  and  C_19
REMARK    7  A    between atoms: C_19  and  C_21
REMARK    8  A    between atoms: C_27  and  C_28
REMARK                            x       y       z     vdW  Elec       q    Type
REMARK                         _______ _______ _______ _____ _____    ______ ____
ROOT
ATOM      2  O   UNL     1     -13.302   4.877  23.170  0.00  0.00    -0.274 OA
ATOM      4  N   UNL     1     -14.766   6.648  21.751  0.00  0.00    -0.286 NA
ATOM      5  N   UNL     1     -16.979   3.840  22.535  0.00  0.00    -0.296 NA
ATOM      6  N   UNL     1     -15.003   4.298  24.588  0.00  0.00    -0.312 N 
ATOM      9  C   UNL     1     -16.703   5.255  22.197  0.00  0.00    +0.084 C 
ATOM     10  C   UNL     1     -15.465   5.944  22.842  0.00  0.00    +0.161 C 
ATOM     11  C   UNL     1     -16.461   5.502  20.696  0.00  0.00    +0.036 C 
ATOM     12  C   UNL     1     -15.730   6.828  20.672  0.00  0.00    +0.087 C 
ATOM     13  C   UNL     1     -17.299   3.602  23.971  0.00  0.00    +0.074 C 
ATOM     14  C   UNL     1     -14.477   4.996  23.517  0.00  0.00    +0.232 C 
ATOM     15  C   UNL     1     -16.400   4.356  24.970  0.00  0.00    +0.123 C 
ATOM     18  C   UNL     1     -18.045   3.295  21.678  0.00  0.00    +0.105 C 
ATOM     33  H   UNL     1     -14.391   3.668  25.095  0.00  0.00    +0.149 HD
ENDROOT
BRANCH   4  16
ATOM     16  C   UNL     1     -14.169   7.910  22.168  0.00  0.00    +0.120 C 
BRANCH  16  20
ATOM      1  F   UNL     1      -9.782   9.325  18.928  0.00  0.00    -0.205 F 
ATOM     20  C   UNL     1     -12.997   8.288  21.303  0.00  0.00    -0.033 A 
ATOM     22  C   UNL     1     -12.192   7.295  20.744  0.00  0.00    +0.008 A 
ATOM     23  C   UNL     1     -12.714   9.632  21.059  0.00  0.00    +0.008 A 
ATOM     24  C   UNL     1     -11.106   7.644  19.943  0.00  0.00    +0.038 A 
ATOM     25  C   UNL     1     -11.628   9.982  20.258  0.00  0.00    +0.038 A 
ATOM     26  C   UNL     1     -10.824   8.989  19.699  0.00  0.00    +0.123 A 
ENDBRANCH  16  20
ENDBRANCH   4  16
BRANCH  13  17
ATOM     17  C   UNL     1     -17.200   2.098  24.302  0.00  0.00    +0.029 C 
BRANCH  17  19
ATOM     19  C   UNL     1     -18.526   1.576  24.826  0.00  0.00    +0.097 C 
BRANCH  19  21
ATOM      3  O   UNL     1     -18.797  -0.384  26.220  0.00  0.00    -0.276 OA
ATOM      7  N   UNL     1     -17.606   1.431  27.042  0.00  0.00    -0.311 N 
ATOM     21  C   UNL     1     -18.343   0.748  26.085  0.00  0.00    +0.213 C 
ATOM     34  H   UNL     1     -17.285   2.375  26.848  0.00  0.00    +0.149 HD
BRANCH   7  27
ATOM     27  C   UNL     1     -17.296   0.856  28.330  0.00  0.00    +0.141 C 
BRANCH  27  28
ATOM      8  N   UNL     1     -14.077   1.377  30.252  0.00  0.00    -0.263 NA
ATOM     28  C   UNL     1     -16.130   1.545  28.986  0.00  0.00    -0.012 A 
ATOM     29  C   UNL     1     -16.004   2.930  28.953  0.00  0.00    +0.008 A 
ATOM     30  C   UNL     1     -15.148   0.821  29.642  0.00  0.00    +0.115 A 
ATOM     31  C   UNL     1     -14.916   3.539  29.568  0.00  0.00    +0.020 A 
ATOM     32  C   UNL     1     -13.988   2.725  30.200  0.00  0.00    +0.111 A 
ENDBRANCH  27  28
ENDBRANCH   7  27
ENDBRANCH  19  21
ENDBRANCH  17  19
ENDBRANCH  13  17
TORSDOF 7
ENDMDL
MODEL 2
REMARK VINA RESULT:      -7.1     30.436     34.404
REMARK  Name = 45360996
REMARK  8 active torsions:
REMARK  status: ('A' for Active; 'I' for Inactive)
REMARK    1  A    between atoms: N_4  and  C_16
REMARK    2  A    between atoms: N_5  and  C_18
REMARK    3  A    between atoms: N_7  and  C_27
REMARK    4  A    between atoms: C_13  and  C_17
REMARK    5  A    between atoms: C_16  and  C_20
REMARK    6  A    between atoms: C_17  and  C_19
REMARK    7  A    between atoms: C_19  and  C_21
REMARK    8  A    between atoms: C_27  and  C_28
REMARK                            x       y       z     vdW  Elec       q    Type
REMARK                         _______ _______ _______ _____ _____    ______ ____
ROOT
ATOM      2  O   UNL     1      20.183   6.260  23.978  0.00  0.00    -0.274 OA
ATOM      4  N   UNL     1      21.167   5.242  21.678  0.00  0.00    -0.286 NA
ATOM      5  N   UNL     1      18.114   7.060  20.804  0.00  0.00    -0.296 NA
ATOM      6  N   UNL     1      19.497   8.236  23.046  0.00  0.00    -0.312 N 
ATOM      9  C   UNL     1      19.445   6.487  20.505  0.00  0.00    +0.084 C 
ATOM     10  C   UNL     1      20.554   6.580  21.593  0.00  0.00    +0.161 C 
ATOM     11  C   UNL     1      19.421   4.977  20.201  0.00  0.00    +0.036 C 
ATOM     12  C   UNL     1      20.855   4.549  20.434  0.00  0.00    +0.087 C 
ATOM     13  C   UNL     1      18.111   8.535  21.015  0.00  0.00    +0.074 C 
ATOM     14  C   UNL     1      20.063   6.976  22.984  0.00  0.00    +0.232 C 
ATOM     15  C   UNL     1      19.269   9.068  21.882  0.00  0.00    +0.123 C 
ATOM     18  C   UNL     1      17.140   6.693  19.762  0.00  0.00    +0.105 C 
ATOM     33  H   UNL     1      19.171   8.569  23.948  0.00  0.00    +0.149 HD
ENDROOT
BRANCH   4  16
ATOM     16  C   UNL     1      22.600   5.278  21.941  0.00  0.00    +0.120 C 
BRANCH  16  20
ATOM      1  F   UNL     1      24.940   0.169  21.534  0.00  0.00    -0.205 F 
ATOM     20  C   UNL     1      23.225   3.913  21.833  0.00  0.00    -0.033 A 
ATOM     22  C   UNL     1      23.944   3.564  20.690  0.00  0.00    +0.008 A 
ATOM     23  C   UNL     1      23.084   2.996  22.875  0.00  0.00    +0.008 A 
ATOM     24  C   UNL     1      24.523   2.299  20.588  0.00  0.00    +0.038 A 
ATOM     25  C   UNL     1      23.663   1.731  22.774  0.00  0.00    +0.038 A 
ATOM     26  C   UNL     1      24.383   1.384  21.631  0.00  0.00    +0.123 A 
ENDBRANCH  16  20
ENDBRANCH   4  16
BRANCH  13  17
ATOM     17  C   UNL     1      16.792   8.982  21.678  0.00  0.00    +0.029 C 
BRANCH  17  19
ATOM     19  C   UNL     1      16.368  10.346  21.162  0.00  0.00    +0.097 C 
BRANCH  19  21
ATOM      3  O   UNL     1      14.075  11.120  21.146  0.00  0.00    -0.276 OA
ATOM      7  N   UNL     1      14.687   9.373  19.746  0.00  0.00    -0.311 N 
ATOM     21  C   UNL     1      14.920  10.346  20.707  0.00  0.00    +0.213 C 
ATOM     34  H   UNL     1      15.445   8.763  19.456  0.00  0.00    +0.149 HD
BRANCH   7  27
ATOM     27  C   UNL     1      13.385   9.170  19.155  0.00  0.00    +0.141 C 
BRANCH  27  28
ATOM      8  N   UNL     1      12.005   6.291  21.188  0.00  0.00    -0.263 NA
ATOM     28  C   UNL     1      12.478   8.373  20.054  0.00  0.00    -0.012 A 
ATOM     29  C   UNL     1      11.314   8.929  20.573  0.00  0.00    +0.008 A 
ATOM     30  C   UNL     1      12.776   7.062  20.388  0.00  0.00    +0.115 A 
ATOM     31  C   UNL     1      10.496   8.168  21.401  0.00  0.00    +0.020 A 
ATOM     32  C   UNL     1      10.882   6.865  21.675  0.00  0.00    +0.111 A 
ENDBRANCH  27  28
ENDBRANCH   7  27
ENDBRANCH  19  21
ENDBRANCH  17  19
ENDBRANCH  13  17
TORSDOF 7
ENDMDL
MODEL 3
REMARK VINA RESULT:      -6.9     18.727     20.927
REMARK  Name = 45360996
REMARK  8 active torsions:
REMARK  status: ('A' for Active; 'I' for Inactive)
REMARK    1  A    between atoms: N_4  and  C_16
REMARK    2  A    between atoms: N_5  and  C_18
REMARK    3  A    between atoms: N_7  and  C_27
REMARK    4  A    between atoms: C_13  and  C_17
REMARK    5  A    between atoms: C_16  and  C_20
REMARK    6  A    between atoms: C_17  and  C_19
REMARK    7  A    between atoms: C_19  and  C_21
REMARK    8  A    between atoms: C_27  and  C_28
REMARK                            x       y       z     vdW  Elec       q    Type
REMARK                         _______ _______ _______ _____ _____    ______ ____
ROOT
ATOM      2  O   UNL     1      -7.956  -9.391  15.484  0.00  0.00    -0.274 OA
ATOM      4  N   UNL     1      -8.875 -10.689  17.667  0.00  0.00    -0.286 NA
ATOM      5  N   UNL     1      -5.727 -12.301  16.728  0.00  0.00    -0.296 NA
ATOM      6  N   UNL     1      -5.755  -9.484  16.105  0.00  0.00    -0.312 N 
ATOM      9  C   UNL     1      -6.785 -11.922  17.691  0.00  0.00    +0.084 C 
ATOM     10  C   UNL     1      -7.415 -10.503  17.580  0.00  0.00    +0.161 C 
ATOM     11  C   UNL     1      -8.028 -12.830  17.642  0.00  0.00    +0.036 C 
ATOM     12  C   UNL     1      -9.105 -11.987  18.292  0.00  0.00    +0.087 C 
ATOM     13  C   UNL     1      -4.484 -11.485  16.825  0.00  0.00    +0.074 C 
ATOM     14  C   UNL     1      -7.099  -9.755  16.287  0.00  0.00    +0.232 C 
ATOM     15  C   UNL     1      -4.715  -9.969  16.989  0.00  0.00    +0.123 C 
ATOM     18  C   UNL     1      -5.405 -13.734  16.841  0.00  0.00    +0.105 C 
ATOM     33  H   UNL     1      -5.480  -8.968  15.275  0.00  0.00    +0.149 HD
ENDROOT
BRANCH   4  16
ATOM     16  C   UNL     1      -9.554  -9.612  18.375  0.00  0.00    +0.120 C 
BRANCH  16  20
ATOM      1  F   UNL     1     -13.347  -7.020  15.113  0.00  0.00    -0.205 F 
ATOM     20  C   UNL     1     -10.567  -8.920  17.504  0.00  0.00    -0.033 A 
ATOM     22  C   UNL     1     -10.375  -7.589  17.132  0.00  0.00    +0.008 A 
ATOM     23  C   UNL     1     -11.699  -9.608  17.068  0.00  0.00    +0.008 A 
ATOM     24  C   UNL     1     -11.314  -6.946  16.325  0.00  0.00    +0.038 A 
ATOM     25  C   UNL     1     -12.639  -8.966  16.261  0.00  0.00    +0.038 A 
ATOM     26  C   UNL     1     -12.446  -7.636  15.889  0.00  0.00    +0.123 A 
ENDBRANCH  16  20
ENDBRANCH   4  16
BRANCH  13  17
ATOM     17  C   UNL     1      -3.607 -11.687  15.572  0.00  0.00    +0.029 C 
BRANCH  17  19
ATOM     19  C   UNL     1      -2.254 -11.022  15.751  0.00  0.00    +0.097 C 
BRANCH  19  21
ATOM      3  O   UNL     1      -1.029  -9.390  14.448  0.00  0.00    -0.276 OA
ATOM      7  N   UNL     1      -2.306 -10.988  13.348  0.00  0.00    -0.311 N 
ATOM     21  C   UNL     1      -1.782 -10.360  14.469  0.00  0.00    +0.213 C 
ATOM     34  H   UNL     1      -2.937 -11.775  13.464  0.00  0.00    +0.149 HD
BRANCH   7  27
ATOM     27  C   UNL     1      -2.007 -10.544  12.006  0.00  0.00    +0.141 C 
BRANCH  27  28
ATOM      8  N   UNL     1      -5.595  -9.530  11.352  0.00  0.00    -0.263 NA
ATOM     28  C   UNL     1      -3.214  -9.953  11.330  0.00  0.00    -0.012 A 
ATOM     29  C   UNL     1      -3.103  -9.304  10.104  0.00  0.00    +0.008 A 
ATOM     30  C   UNL     1      -4.471 -10.038  11.907  0.00  0.00    +0.115 A 
ATOM     31  C   UNL     1      -4.236  -8.767   9.503  0.00  0.00    +0.020 A 
ATOM     32  C   UNL     1      -5.448  -8.907  10.161  0.00  0.00    +0.111 A 
ENDBRANCH  27  28
ENDBRANCH   7  27
ENDBRANCH  19  21
ENDBRANCH  17  19
ENDBRANCH  13  17
TORSDOF 7
ENDMDL
MODEL 4
REMARK VINA RESULT:      -6.8     20.656     21.898
REMARK  Name = 45360996
REMARK  8 active torsions:
REMARK  status: ('A' for Active; 'I' for Inactive)
REMARK    1  A    between atoms: N_4  and  C_16
REMARK    2  A    between atoms: N_5  and  C_18
REMARK    3  A    between atoms: N_7  and  C_27
REMARK    4  A    between atoms: C_13  and  C_17
REMARK    5  A    between atoms: C_16  and  C_20
REMARK    6  A    between atoms: C_17  and  C_19
REMARK    7  A    between atoms: C_19  and  C_21
REMARK    8  A    between atoms: C_27  and  C_28
REMARK                            x       y       z     vdW  Elec       q    Type
REMARK                         _______ _______ _______ _____ _____    ______ ____
ROOT
ATOM      2  O   UNL     1      -5.634  -9.594   7.377  0.00  0.00    -0.274 OA
ATOM      4  N   UNL     1      -7.675  -8.293   8.575  0.00  0.00    -0.286 NA
ATOM      5  N   UNL     1      -5.926 -10.152  11.197  0.00  0.00    -0.296 NA
ATOM      6  N   UNL     1      -4.155  -9.275   9.094  0.00  0.00    -0.312 N 
ATOM      9  C   UNL     1      -6.781  -9.051  10.700  0.00  0.00    +0.084 C 
ATOM     10  C   UNL     1      -6.418  -8.387   9.340  0.00  0.00    +0.161 C 
ATOM     11  C   UNL     1      -8.251  -9.453  10.478  0.00  0.00    +0.036 C 
ATOM     12  C   UNL     1      -8.768  -8.387   9.535  0.00  0.00    +0.087 C 
ATOM     13  C   UNL     1      -4.521  -9.755  11.497  0.00  0.00    +0.074 C 
ATOM     14  C   UNL     1      -5.397  -9.151   8.500  0.00  0.00    +0.232 C 
ATOM     15  C   UNL     1      -3.868  -8.836  10.446  0.00  0.00    +0.123 C 
ATOM     18  C   UNL     1      -6.535 -10.798  12.372  0.00  0.00    +0.105 C 
ATOM     33  H   UNL     1      -3.424  -9.753   8.578  0.00  0.00    +0.149 HD
ENDROOT
BRANCH   4  16
ATOM     16  C   UNL     1      -7.765  -7.091   7.757  0.00  0.00    +0.120 C 
BRANCH  16  20
ATOM      1  F   UNL     1     -10.357  -8.078   2.852  0.00  0.00    -0.205 F 
ATOM     20  C   UNL     1      -8.457  -7.355   6.446  0.00  0.00    -0.033 A 
ATOM     22  C   UNL     1      -9.781  -6.953   6.263  0.00  0.00    +0.008 A 
ATOM     23  C   UNL     1      -7.776  -8.002   5.415  0.00  0.00    +0.008 A 
ATOM     24  C   UNL     1     -10.423  -7.198   5.049  0.00  0.00    +0.038 A 
ATOM     25  C   UNL     1      -8.418  -8.246   4.201  0.00  0.00    +0.038 A 
ATOM     26  C   UNL     1      -9.741  -7.844   4.018  0.00  0.00    +0.123 A 
ENDBRANCH  16  20
ENDBRANCH   4  16
BRANCH  13  17
ATOM     17  C   UNL     1      -3.627 -11.004  11.641  0.00  0.00    +0.029 C 
BRANCH  17  19
ATOM     19  C   UNL     1      -2.362 -10.671  12.413  0.00  0.00    +0.097 C 
BRANCH  19  21
ATOM      3  O   UNL     1      -2.041 -12.432  14.043  0.00  0.00    -0.276 OA
ATOM      7  N   UNL     1      -2.827 -10.365  14.751  0.00  0.00    -0.311 N 
ATOM     21  C   UNL     1      -2.382 -11.277  13.805  0.00  0.00    +0.213 C 
ATOM     34  H   UNL     1      -3.106  -9.433  14.458  0.00  0.00    +0.149 HD
BRANCH   7  27
ATOM     27  C   UNL     1      -2.938 -10.701  16.152  0.00  0.00    +0.141 C 
BRANCH  27  28
ATOM      8  N   UNL     1      -6.567  -9.635  16.299  0.00  0.00    -0.263 NA
ATOM     28  C   UNL     1      -4.332 -10.477  16.673  0.00  0.00    -0.012 A 
ATOM     29  C   UNL     1      -4.689 -10.876  17.957  0.00  0.00    +0.008 A 
ATOM     30  C   UNL     1      -5.299  -9.867  15.891  0.00  0.00    +0.115 A 
ATOM     31  C   UNL     1      -5.985 -10.655  18.412  0.00  0.00    +0.020 A 
ATOM     32  C   UNL     1      -6.878 -10.036  17.552  0.00  0.00    +0.111 A 
ENDBRANCH  27  28
ENDBRANCH   7  27
ENDBRANCH  19  21
ENDBRANCH  17  19
ENDBRANCH  13  17
TORSDOF 7
ENDMDL
MODEL 5
REMARK VINA RESULT:      -6.7     16.537     18.661
REMARK  Name = 45360996
REMARK  8 active torsions:
REMARK  status: ('A' for Active; 'I' for Inactive)
REMARK    1  A    between atoms: N_4  and  C_16
REMARK    2  A    between atoms: N_5  and  C_18
REMARK    3  A    between atoms: N_7  and  C_27
REMARK    4  A    between atoms: C_13  and  C_17
REMARK    5  A    between atoms: C_16  and  C_20
REMARK    6  A    between atoms: C_17  and  C_19
REMARK    7  A    between atoms: C_19  and  C_21
REMARK    8  A    between atoms: C_27  and  C_28
REMARK                            x       y       z     vdW  Elec       q    Type
REMARK                         _______ _______ _______ _____ _____    ______ ____
ROOT
ATOM      2  O   UNL     1      -8.813  -8.834  18.092  0.00  0.00    -0.274 OA
ATOM      4  N   UNL     1      -7.588 -10.063  16.022  0.00  0.00    -0.286 NA
ATOM      5  N   UNL     1     -11.025  -9.389  14.963  0.00  0.00    -0.296 NA
ATOM      6  N   UNL     1     -10.018  -7.392  16.786  0.00  0.00    -0.312 N 
ATOM      9  C   UNL     1      -9.587  -9.638  14.714  0.00  0.00    +0.084 C 
ATOM     10  C   UNL     1      -8.547  -8.997  15.678  0.00  0.00    +0.161 C 
ATOM     11  C   UNL     1      -9.194 -11.126  14.761  0.00  0.00    +0.036 C 
ATOM     12  C   UNL     1      -7.697 -11.087  14.990  0.00  0.00    +0.087 C 
ATOM     13  C   UNL     1     -11.435  -7.962  14.835  0.00  0.00    +0.074 C 
ATOM     14  C   UNL     1      -9.127  -8.432  16.972  0.00  0.00    +0.232 C 
ATOM     15  C   UNL     1     -10.469  -6.949  15.481  0.00  0.00    +0.123 C 
ATOM     18  C   UNL     1     -11.861 -10.239  14.097  0.00  0.00    +0.105 C 
ATOM     33  H   UNL     1     -10.423  -6.956  17.608  0.00  0.00    +0.149 HD
ENDROOT
BRANCH   4  16
ATOM     16  C   UNL     1      -6.221  -9.583  16.176  0.00  0.00    +0.120 C 
BRANCH  16  20
ATOM      1  F   UNL     1      -3.339 -12.622  19.944  0.00  0.00    -0.205 F 
ATOM     20  C   UNL     1      -5.450 -10.394  17.182  0.00  0.00    -0.033 A 
ATOM     22  C   UNL     1      -6.061 -10.791  18.372  0.00  0.00    +0.008 A 
ATOM     23  C   UNL     1      -4.126 -10.749  16.926  0.00  0.00    +0.008 A 
ATOM     24  C   UNL     1      -5.348 -11.543  19.306  0.00  0.00    +0.038 A 
ATOM     25  C   UNL     1      -3.413 -11.502  17.859  0.00  0.00    +0.038 A 
ATOM     26  C   UNL     1      -4.024 -11.899  19.048  0.00  0.00    +0.123 A 
ENDBRANCH  16  20
ENDBRANCH   4  16
BRANCH  13  17
ATOM     17  C   UNL     1     -12.826  -7.742  15.465  0.00  0.00    +0.029 C 
BRANCH  17  19
ATOM     19  C   UNL     1     -13.174  -6.264  15.494  0.00  0.00    +0.097 C 
BRANCH  19  21
ATOM      3  O   UNL     1     -14.829  -6.325  13.729  0.00  0.00    -0.276 OA
ATOM      7  N   UNL     1     -13.109  -4.770  13.612  0.00  0.00    -0.311 N 
ATOM     21  C   UNL     1     -13.814  -5.815  14.193  0.00  0.00    +0.213 C 
ATOM     34  H   UNL     1     -12.265  -4.424  14.060  0.00  0.00    +0.149 HD
BRANCH   7  27
ATOM     27  C   UNL     1     -13.516  -4.166  12.365  0.00  0.00    +0.141 C 
BRANCH  27  28
ATOM      8  N   UNL     1     -11.431  -6.140   9.898  0.00  0.00    -0.263 NA
ATOM     28  C   UNL     1     -12.555  -4.480  11.250  0.00  0.00    -0.012 A 
ATOM     29  C   UNL     1     -11.910  -3.464  10.551  0.00  0.00    +0.008 A 
ATOM     30  C   UNL     1     -12.283  -5.789  10.888  0.00  0.00    +0.115 A 
ATOM     31  C   UNL     1     -11.027  -3.785   9.526  0.00  0.00    +0.020 A 
ATOM     32  C   UNL     1     -10.823  -5.126   9.241  0.00  0.00    +0.111 A 
ENDBRANCH  27  28
ENDBRANCH   7  27
ENDBRANCH  19  21
ENDBRANCH  17  19
ENDBRANCH  13  17
TORSDOF 7
ENDMDL
MODEL 6
REMARK VINA RESULT:      -6.5     18.939     21.441
REMARK  Name = 45360996
REMARK  8 active torsions:
REMARK  status: ('A' for Active; 'I' for Inactive)
REMARK    1  A    between atoms: N_4  and  C_16
REMARK    2  A    between atoms: N_5  and  C_18
REMARK    3  A    between atoms: N_7  and  C_27
REMARK    4  A    between atoms: C_13  and  C_17
REMARK    5  A    between atoms: C_16  and  C_20
REMARK    6  A    between atoms: C_17  and  C_19
REMARK    7  A    between atoms: C_19  and  C_21
REMARK    8  A    between atoms: C_27  and  C_28
REMARK                            x       y       z     vdW  Elec       q    Type
REMARK                         _______ _______ _______ _____ _____    ______ ____
ROOT
ATOM      2  O   UNL     1      -9.230 -10.967  15.770  0.00  0.00    -0.274 OA
ATOM      4  N   UNL     1      -9.446 -10.733  18.452  0.00  0.00    -0.286 NA
ATOM      5  N   UNL     1      -5.957 -11.582  17.745  0.00  0.00    -0.296 NA
ATOM      6  N   UNL     1      -7.158 -10.003  15.649  0.00  0.00    -0.312 N 
ATOM      9  C   UNL     1      -7.036 -10.992  18.570  0.00  0.00    +0.084 C 
ATOM     10  C   UNL     1      -8.193 -10.241  17.849  0.00  0.00    +0.161 C 
ATOM     11  C   UNL     1      -7.802 -12.020  19.423  0.00  0.00    +0.036 C 
ATOM     12  C   UNL     1      -9.100 -11.310  19.746  0.00  0.00    +0.087 C 
ATOM     13  C   UNL     1      -5.152 -10.588  16.981  0.00  0.00    +0.074 C 
ATOM     14  C   UNL     1      -8.265 -10.460  16.340  0.00  0.00    +0.232 C 
ATOM     15  C   UNL     1      -5.973  -9.476  16.297  0.00  0.00    +0.123 C 
ATOM     18  C   UNL     1      -5.075 -12.429  18.565  0.00  0.00    +0.105 C 
ATOM     33  H   UNL     1      -7.152 -10.098  14.639  0.00  0.00    +0.149 HD
ENDROOT
BRANCH   4  16
ATOM     16  C   UNL     1     -10.474  -9.707  18.566  0.00  0.00    +0.120 C 
BRANCH  16  20
ATOM      1  F   UNL     1     -15.371 -11.832  20.369  0.00  0.00    -0.205 F 
ATOM     20  C   UNL     1     -11.782 -10.275  19.048  0.00  0.00    -0.033 A 
ATOM     22  C   UNL     1     -12.348  -9.813  20.236  0.00  0.00    +0.008 A 
ATOM     23  C   UNL     1     -12.429 -11.264  18.306  0.00  0.00    +0.008 A 
ATOM     24  C   UNL     1     -13.560 -10.339  20.683  0.00  0.00    +0.038 A 
ATOM     25  C   UNL     1     -13.641 -11.790  18.753  0.00  0.00    +0.038 A 
ATOM     26  C   UNL     1     -14.206 -11.327  19.941  0.00  0.00    +0.123 A 
ENDBRANCH  16  20
ENDBRANCH   4  16
BRANCH  13  17
ATOM     17  C   UNL     1      -4.323 -11.292  15.887  0.00  0.00    +0.029 C 
BRANCH  17  19
ATOM     19  C   UNL     1      -2.876 -10.833  15.931  0.00  0.00    +0.097 C 
BRANCH  19  21
ATOM      3  O   UNL     1      -1.530 -12.239  14.492  0.00  0.00    -0.276 OA
ATOM      7  N   UNL     1      -2.244 -10.174  13.708  0.00  0.00    -0.311 N 
ATOM     21  C   UNL     1      -2.139 -11.185  14.652  0.00  0.00    +0.213 C 
ATOM     34  H   UNL     1      -2.754  -9.326  13.936  0.00  0.00    +0.149 HD
BRANCH   7  27
ATOM     27  C   UNL     1      -1.625 -10.269  12.406  0.00  0.00    +0.141 C 
BRANCH  27  28
ATOM      8  N   UNL     1      -4.268 -11.713  10.113  0.00  0.00    -0.263 NA
ATOM     28  C   UNL     1      -2.647 -10.373  11.306  0.00  0.00    -0.012 A 
ATOM     29  C   UNL     1      -2.925  -9.289  10.480  0.00  0.00    +0.008 A 
ATOM     30  C   UNL     1      -3.340 -11.552  11.083  0.00  0.00    +0.115 A 
ATOM     31  C   UNL     1      -3.874  -9.415   9.472  0.00  0.00    +0.020 A 
ATOM     32  C   UNL     1      -4.512 -10.638   9.330  0.00  0.00    +0.111 A 
ENDBRANCH  27  28
ENDBRANCH   7  27
ENDBRANCH  19  21
ENDBRANCH  17  19
ENDBRANCH  13  17
TORSDOF 7
ENDMDL
MODEL 7
REMARK VINA RESULT:      -6.5     30.211     34.104
REMARK  Name = 45360996
REMARK  8 active torsions:
REMARK  status: ('A' for Active; 'I' for Inactive)
REMARK    1  A    between atoms: N_4  and  C_16
REMARK    2  A    between atoms: N_5  and  C_18
REMARK    3  A    between atoms: N_7  and  C_27
REMARK    4  A    between atoms: C_13  and  C_17
REMARK    5  A    between atoms: C_16  and  C_20
REMARK    6  A    between atoms: C_17  and  C_19
REMARK    7  A    between atoms: C_19  and  C_21
REMARK    8  A    between atoms: C_27  and  C_28
REMARK                            x       y       z     vdW  Elec       q    Type
REMARK                         _______ _______ _______ _____ _____    ______ ____
ROOT
ATOM      2  O   UNL     1      20.094   6.281  23.711  0.00  0.00    -0.274 OA
ATOM      4  N   UNL     1      20.975   5.343  21.337  0.00  0.00    -0.286 NA
ATOM      5  N   UNL     1      17.723   6.902  20.714  0.00  0.00    -0.296 NA
ATOM      6  N   UNL     1      19.178   8.192  22.846  0.00  0.00    -0.312 N 
ATOM      9  C   UNL     1      19.070   6.440  20.309  0.00  0.00    +0.084 C 
ATOM     10  C   UNL     1      20.249   6.627  21.307  0.00  0.00    +0.161 C 
ATOM     11  C   UNL     1      19.146   4.933  20.000  0.00  0.00    +0.036 C 
ATOM     12  C   UNL     1      20.624   4.624  20.118  0.00  0.00    +0.087 C 
ATOM     13  C   UNL     1      17.616   8.372  20.932  0.00  0.00    +0.074 C 
ATOM     14  C   UNL     1      19.839   6.983  22.733  0.00  0.00    +0.232 C 
ATOM     15  C   UNL     1      18.791   9.001  21.708  0.00  0.00    +0.123 C 
ATOM     18  C   UNL     1      16.704   6.454  19.750  0.00  0.00    +0.105 C 
ATOM     33  H   UNL     1      18.898   8.498  23.772  0.00  0.00    +0.149 HD
ENDROOT
BRANCH   4  16
ATOM     16  C   UNL     1      22.416   5.497  21.486  0.00  0.00    +0.120 C 
BRANCH  16  20
ATOM      1  F   UNL     1      25.075   0.530  21.444  0.00  0.00    -0.205 F 
ATOM     20  C   UNL     1      23.126   4.171  21.475  0.00  0.00    -0.033 A 
ATOM     22  C   UNL     1      22.961   3.281  22.537  0.00  0.00    +0.008 A 
ATOM     23  C   UNL     1      23.952   3.830  20.403  0.00  0.00    +0.008 A 
ATOM     24  C   UNL     1      23.619   2.052  22.527  0.00  0.00    +0.038 A 
ATOM     25  C   UNL     1      24.610   2.600  20.393  0.00  0.00    +0.038 A 
ATOM     26  C   UNL     1      24.443   1.711  21.454  0.00  0.00    +0.123 A 
ENDBRANCH  16  20
ENDBRANCH   4  16
BRANCH  13  17
ATOM     17  C   UNL     1      16.321   8.711  21.698  0.00  0.00    +0.029 C 
BRANCH  17  19
ATOM     19  C   UNL     1      15.372   9.509  20.822  0.00  0.00    +0.097 C 
BRANCH  19  21
ATOM      3  O   UNL     1      13.443   8.414  21.792  0.00  0.00    -0.276 OA
ATOM      7  N   UNL     1      13.296  10.657  21.212  0.00  0.00    -0.311 N 
ATOM     21  C   UNL     1      13.944   9.436  21.332  0.00  0.00    +0.213 C 
ATOM     34  H   UNL     1      13.786  11.446  20.801  0.00  0.00    +0.149 HD
BRANCH   7  27
ATOM     27  C   UNL     1      11.926  10.846  21.627  0.00  0.00    +0.141 C 
BRANCH  27  28
ATOM      8  N   UNL     1      10.942  11.448  25.232  0.00  0.00    -0.263 NA
ATOM     28  C   UNL     1      11.835  11.487  22.986  0.00  0.00    -0.012 A 
ATOM     29  C   UNL     1      12.517  12.665  23.270  0.00  0.00    +0.008 A 
ATOM     30  C   UNL     1      11.067  10.923  23.992  0.00  0.00    +0.115 A 
ATOM     31  C   UNL     1      12.414  13.234  24.535  0.00  0.00    +0.020 A 
ATOM     32  C   UNL     1      11.619  12.592  25.472  0.00  0.00    +0.111 A 
ENDBRANCH  27  28
ENDBRANCH   7  27
ENDBRANCH  19  21
ENDBRANCH  17  19
ENDBRANCH  13  17
TORSDOF 7
ENDMDL
MODEL 8
REMARK VINA RESULT:      -6.4     31.348     35.099
REMARK  Name = 45360996
REMARK  8 active torsions:
REMARK  status: ('A' for Active; 'I' for Inactive)
REMARK    1  A    between atoms: N_4  and  C_16
REMARK    2  A    between atoms: N_5  and  C_18
REMARK    3  A    between atoms: N_7  and  C_27
REMARK    4  A    between atoms: C_13  and  C_17
REMARK    5  A    between atoms: C_16  and  C_20
REMARK    6  A    between atoms: C_17  and  C_19
REMARK    7  A    between atoms: C_19  and  C_21
REMARK    8  A    between atoms: C_27  and  C_28
REMARK                            x       y       z     vdW  Elec       q    Type
REMARK                         _______ _______ _______ _____ _____    ______ ____
ROOT
ATOM      2  O   UNL     1      18.002   9.584  20.846  0.00  0.00    -0.274 OA
ATOM      4  N   UNL     1      16.602   7.397  20.102  0.00  0.00    -0.286 NA
ATOM      5  N   UNL     1      19.981   6.257  20.926  0.00  0.00    -0.296 NA
ATOM      6  N   UNL     1      19.161   8.525  22.511  0.00  0.00    -0.312 N 
ATOM      9  C   UNL     1      18.522   6.066  20.760  0.00  0.00    +0.084 C 
ATOM     10  C   UNL     1      17.569   7.215  21.201  0.00  0.00    +0.161 C 
ATOM     11  C   UNL     1      18.086   5.830  19.302  0.00  0.00    +0.036 C 
ATOM     12  C   UNL     1      16.611   6.169  19.317  0.00  0.00    +0.087 C 
ATOM     13  C   UNL     1      20.425   6.401  22.341  0.00  0.00    +0.074 C 
ATOM     14  C   UNL     1      18.252   8.554  21.470  0.00  0.00    +0.232 C 
ATOM     15  C   UNL     1      19.537   7.313  23.211  0.00  0.00    +0.123 C 
ATOM     18  C   UNL     1      20.730   5.175  20.265  0.00  0.00    +0.105 C 
ATOM     33  H   UNL     1      19.634   9.389  22.757  0.00  0.00    +0.149 HD
ENDROOT
BRANCH   4  16
ATOM     16  C   UNL     1      15.265   7.746  20.562  0.00  0.00    +0.120 C 
BRANCH  16  20
ATOM      1  F   UNL     1      11.918   9.298  16.303  0.00  0.00    -0.205 F 
ATOM     20  C   UNL     1      14.371   8.160  19.424  0.00  0.00    -0.033 A 
ATOM     22  C   UNL     1      13.212   7.435  19.147  0.00  0.00    +0.008 A 
ATOM     23  C   UNL     1      14.701   9.269  18.645  0.00  0.00    +0.008 A 
ATOM     24  C   UNL     1      12.383   7.818  18.093  0.00  0.00    +0.038 A 
ATOM     25  C   UNL     1      13.873   9.653  17.591  0.00  0.00    +0.038 A 
ATOM     26  C   UNL     1      12.714   8.928  17.315  0.00  0.00    +0.123 A 
ENDBRANCH  16  20
ENDBRANCH   4  16
BRANCH  13  17
ATOM     17  C   UNL     1      21.862   6.961  22.400  0.00  0.00    +0.029 C 
BRANCH  17  19
ATOM     19  C   UNL     1      22.323   7.104  23.840  0.00  0.00    +0.097 C 
BRANCH  19  21
ATOM      3  O   UNL     1      21.790   5.350  25.421  0.00  0.00    -0.276 OA
ATOM      7  N   UNL     1      23.560   5.045  23.950  0.00  0.00    -0.311 N 
ATOM     21  C   UNL     1      22.503   5.751  24.506  0.00  0.00    +0.213 C 
ATOM     34  H   UNL     1      24.108   5.466  23.205  0.00  0.00    +0.149 HD
BRANCH   7  27
ATOM     27  C   UNL     1      23.935   3.729  24.412  0.00  0.00    +0.141 C 
BRANCH  27  28
ATOM      8  N   UNL     1      24.983   0.674  22.438  0.00  0.00    -0.263 NA
ATOM     28  C   UNL     1      24.079   2.755  23.274  0.00  0.00    -0.012 A 
ATOM     29  C   UNL     1      23.480   2.998  22.042  0.00  0.00    +0.008 A 
ATOM     30  C   UNL     1      24.814   1.589  23.419  0.00  0.00    +0.115 A 
ATOM     31  C   UNL     1      23.631   2.079  21.009  0.00  0.00    +0.020 A 
ATOM     32  C   UNL     1      24.387   0.944  21.255  0.00  0.00    +0.111 A 
ENDBRANCH  27  28
ENDBRANCH   7  27
ENDBRANCH  19  21
ENDBRANCH  17  19
ENDBRANCH  13  17
TORSDOF 7
ENDMDL
MODEL 9
REMARK VINA RESULT:      -6.4     17.921     19.649
REMARK  Name = 45360996
REMARK  8 active torsions:
REMARK  status: ('A' for Active; 'I' for Inactive)
REMARK    1  A    between atoms: N_4  and  C_16
REMARK    2  A    between atoms: N_5  and  C_18
REMARK    3  A    between atoms: N_7  and  C_27
REMARK    4  A    between atoms: C_13  and  C_17
REMARK    5  A    between atoms: C_16  and  C_20
REMARK    6  A    between atoms: C_17  and  C_19
REMARK    7  A    between atoms: C_19  and  C_21
REMARK    8  A    between atoms: C_27  and  C_28
REMARK                            x       y       z     vdW  Elec       q    Type
REMARK                         _______ _______ _______ _____ _____    ______ ____
ROOT
ATOM      2  O   UNL     1       0.110  10.654  35.406  0.00  0.00    -0.274 OA
ATOM      4  N   UNL     1      -1.262  12.859  34.662  0.00  0.00    -0.286 NA
ATOM      5  N   UNL     1      -3.573  10.779  36.591  0.00  0.00    -0.296 NA
ATOM      6  N   UNL     1      -0.842  10.515  37.483  0.00  0.00    -0.312 N 
ATOM      9  C   UNL     1      -3.090  12.068  36.049  0.00  0.00    +0.084 C 
ATOM     10  C   UNL     1      -1.555  12.325  36.005  0.00  0.00    +0.161 C 
ATOM     11  C   UNL     1      -3.500  12.324  34.587  0.00  0.00    +0.036 C 
ATOM     12  C   UNL     1      -2.514  13.376  34.124  0.00  0.00    +0.087 C 
ATOM     13  C   UNL     1      -3.257  10.558  38.031  0.00  0.00    +0.074 C 
ATOM     14  C   UNL     1      -0.687  11.091  36.236  0.00  0.00    +0.232 C 
ATOM     15  C   UNL     1      -1.828  10.955  38.449  0.00  0.00    +0.123 C 
ATOM     18  C   UNL     1      -5.019  10.621  36.357  0.00  0.00    +0.105 C 
ATOM     33  H   UNL     1      -0.276   9.704  37.708  0.00  0.00    +0.149 HD
ENDROOT
BRANCH   4  16
ATOM     16  C   UNL     1      -0.206  13.863  34.658  0.00  0.00    +0.120 C 
BRANCH  16  20
ATOM      1  F   UNL     1       2.379  14.171  29.661  0.00  0.00    -0.205 F 
ATOM     20  C   UNL     1       0.484  13.945  33.323  0.00  0.00    -0.033 A 
ATOM     22  C   UNL     1       0.741  15.188  32.745  0.00  0.00    +0.008 A 
ATOM     23  C   UNL     1       0.867  12.777  32.662  0.00  0.00    +0.008 A 
ATOM     24  C   UNL     1       1.380  15.265  31.508  0.00  0.00    +0.038 A 
ATOM     25  C   UNL     1       1.507  12.854  31.425  0.00  0.00    +0.038 A 
ATOM     26  C   UNL     1       1.763  14.097  30.848  0.00  0.00    +0.123 A 
ENDBRANCH  16  20
ENDBRANCH   4  16
BRANCH  13  17
ATOM     17  C   UNL     1      -3.454   9.074  38.405  0.00  0.00    +0.029 C 
BRANCH  17  19
ATOM     19  C   UNL     1      -2.882   8.169  37.329  0.00  0.00    +0.097 C 
BRANCH  19  21
ATOM      3  O   UNL     1      -0.611   7.330  37.319  0.00  0.00    -0.276 OA
ATOM      7  N   UNL     1      -2.066   6.633  38.989  0.00  0.00    -0.311 N 
ATOM     21  C   UNL     1      -1.717   7.347  37.851  0.00  0.00    +0.213 C 
ATOM     34  H   UNL     1      -3.014   6.695  39.348  0.00  0.00    +0.149 HD
BRANCH   7  27
ATOM     27  C   UNL     1      -1.131   5.773  39.676  0.00  0.00    +0.141 C 
BRANCH  27  28
ATOM      8  N   UNL     1      -1.097   4.673  43.297  0.00  0.00    -0.263 NA
ATOM     28  C   UNL     1      -1.615   5.403  41.051  0.00  0.00    -0.012 A 
ATOM     29  C   UNL     1      -2.970   5.434  41.366  0.00  0.00    +0.008 A 
ATOM     30  C   UNL     1      -0.728   5.020  42.043  0.00  0.00    +0.115 A 
ATOM     31  C   UNL     1      -3.388   5.086  42.646  0.00  0.00    +0.020 A 
ATOM     32  C   UNL     1      -2.421   4.715  43.567  0.00  0.00    +0.111 A 
ENDBRANCH  27  28
ENDBRANCH   7  27
ENDBRANCH  19  21
ENDBRANCH  17  19
ENDBRANCH  13  17
TORSDOF 7
ENDMDL
MODEL 10
REMARK VINA RESULT:      -6.4     17.953     19.306
REMARK  Name = 45360996
REMARK  8 active torsions:
REMARK  status: ('A' for Active; 'I' for Inactive)
REMARK    1  A    between atoms: N_4  and  C_16
REMARK    2  A    between atoms: N_5  and  C_18
REMARK    3  A    between atoms: N_7  and  C_27
REMARK    4  A    between atoms: C_13  and  C_17
REMARK    5  A    between atoms: C_16  and  C_20
REMARK    6  A    between atoms: C_17  and  C_19
REMARK    7  A    between atoms: C_19  and  C_21
REMARK    8  A    between atoms: C_27  and  C_28
REMARK                            x       y       z     vdW  Elec       q    Type
REMARK                         _______ _______ _______ _____ _____    ______ ____
ROOT
ATOM      2  O   UNL     1      -7.079  -9.940  14.657  0.00  0.00    -0.274 OA
ATOM      4  N   UNL     1      -4.862 -11.340  15.305  0.00  0.00    -0.286 NA
ATOM      5  N   UNL     1      -6.773 -10.899  18.395  0.00  0.00    -0.296 NA
ATOM      6  N   UNL     1      -8.465 -11.093  16.067  0.00  0.00    -0.312 N 
ATOM      9  C   UNL     1      -5.797 -11.599  17.530  0.00  0.00    +0.084 C 
ATOM     10  C   UNL     1      -6.103 -11.714  16.009  0.00  0.00    +0.161 C 
ATOM     11  C   UNL     1      -4.395 -10.962  17.528  0.00  0.00    +0.036 C 
ATOM     12  C   UNL     1      -3.768 -11.496  16.257  0.00  0.00    +0.087 C 
ATOM     13  C   UNL     1      -8.108 -11.555  18.474  0.00  0.00    +0.074 C 
ATOM     14  C   UNL     1      -7.232 -10.816  15.507  0.00  0.00    +0.232 C 
ATOM     15  C   UNL     1      -8.663 -12.060  17.127  0.00  0.00    +0.123 C 
ATOM     18  C   UNL     1      -6.224 -10.698  19.747  0.00  0.00    +0.105 C 
ATOM     33  H   UNL     1      -9.263 -10.546  15.759  0.00  0.00    +0.149 HD
ENDROOT
BRANCH   4  16
ATOM     16  C   UNL     1      -4.639 -12.102  14.084  0.00  0.00    +0.120 C 
BRANCH  16  20
ATOM      1  F   UNL     1      -2.266  -8.959  10.054  0.00  0.00    -0.205 F 
ATOM     20  C   UNL     1      -4.005 -11.262  13.007  0.00  0.00    -0.033 A 
ATOM     22  C   UNL     1      -2.623 -11.292  12.822  0.00  0.00    +0.008 A 
ATOM     23  C   UNL     1      -4.799 -10.452  12.195  0.00  0.00    +0.008 A 
ATOM     24  C   UNL     1      -2.035 -10.514  11.825  0.00  0.00    +0.038 A 
ATOM     25  C   UNL     1      -4.212  -9.674  11.198  0.00  0.00    +0.038 A 
ATOM     26  C   UNL     1      -2.830  -9.705  11.013  0.00  0.00    +0.123 A 
ENDBRANCH  16  20
ENDBRANCH   4  16
BRANCH  13  17
ATOM     17  C   UNL     1      -9.150 -10.587  19.071  0.00  0.00    +0.029 C 
BRANCH  17  19
ATOM     19  C   UNL     1     -10.495 -11.275  19.225  0.00  0.00    +0.097 C 
BRANCH  19  21
ATOM      3  O   UNL     1     -12.290  -9.841  19.986  0.00  0.00    -0.276 OA
ATOM      7  N   UNL     1     -11.863 -10.005  17.710  0.00  0.00    -0.311 N 
ATOM     21  C   UNL     1     -11.645 -10.300  19.048  0.00  0.00    +0.213 C 
ATOM     34  H   UNL     1     -11.289 -10.449  16.999  0.00  0.00    +0.149 HD
BRANCH   7  27
ATOM     27  C   UNL     1     -12.905  -9.102  17.280  0.00  0.00    +0.141 C 
BRANCH  27  28
ATOM      8  N   UNL     1     -12.749  -6.057  15.037  0.00  0.00    -0.263 NA
ATOM     28  C   UNL     1     -12.351  -7.937  16.504  0.00  0.00    -0.012 A 
ATOM     29  C   UNL     1     -10.990  -7.651  16.513  0.00  0.00    +0.008 A 
ATOM     30  C   UNL     1     -13.181  -7.117  15.757  0.00  0.00    +0.115 A 
ATOM     31  C   UNL     1     -10.508  -6.568  15.786  0.00  0.00    +0.020 A 
ATOM     32  C   UNL     1     -11.420  -5.809  15.070  0.00  0.00    +0.111 A 
ENDBRANCH  27  28
ENDBRANCH   7  27
ENDBRANCH  19  21
ENDBRANCH  17  19
ENDBRANCH  13  17
TORSDOF 7
ENDMDL
