MODEL 1
REMARK VINA RESULT:      -6.4      0.000      0.000
REMARK  Name = 38030964
REMARK  12 active torsions:
REMARK  status: ('A' for Active; 'I' for Inactive)
REMARK    1  A    between atoms: N_4  and  C_15
REMARK    2  A    between atoms: N_4  and  C_21
REMARK    3  A    between atoms: N_7  and  C_30
REMARK    4  A    between atoms: C_8  and  C_12
REMARK    5  A    between atoms: C_9  and  C_15
REMARK    6  A    between atoms: C_11  and  C_16
REMARK    7  A    between atoms: C_12  and  C_17
REMARK    8  A    between atoms: C_12  and  C_18
REMARK    9  A    between atoms: C_13  and  C_19
REMARK   10  A    between atoms: C_16  and  C_20
REMARK   11  A    between atoms: C_21  and  C_23
REMARK   12  A    between atoms: C_22  and  C_24
REMARK                            x       y       z     vdW  Elec       q    Type
REMARK                         _______ _______ _______ _____ _____    ______ ____
ROOT
ATOM      8  C   UNL     1      -5.611 -10.667  17.787  0.00  0.00    +0.000 C 
ATOM      9  C   UNL     1      -4.859 -10.932  16.458  0.00  0.00    +0.029 C 
ATOM     10  C   UNL     1      -7.095 -11.040  17.645  0.00  0.00    +0.012 C 
ATOM     11  C   UNL     1      -7.792 -10.247  16.523  0.00  0.00    +0.024 C 
ATOM     13  C   UNL     1      -6.972 -10.238  15.249  0.00  0.00    -0.073 C 
ATOM     14  C   UNL     1      -5.666 -10.561  15.236  0.00  0.00    -0.023 C 
ATOM     19  C   UNL     1      -7.700  -9.895  13.978  0.00  0.00    +0.039 C 
ENDROOT
BRANCH   8  12
ATOM     12  C   UNL     1      -4.991 -11.439  18.955  0.00  0.00    -0.013 C 
ATOM     17  C   UNL     1      -5.900 -11.371  20.179  0.00  0.00    +0.007 C 
ATOM     18  C   UNL     1      -4.728 -12.887  18.556  0.00  0.00    +0.007 C 
ENDBRANCH   8  12
BRANCH   9  15
ATOM     15  C   UNL     1      -3.515 -10.195  16.426  0.00  0.00    +0.089 C 
BRANCH  15   4
ATOM      4  N   UNL     1      -2.416 -11.139  16.327  0.00  0.00    -0.305 NA
ATOM     31  H   UNL     1      -2.002 -11.293  17.247  0.00  0.00    +0.123 HD
BRANCH   4  21
ATOM     21  C   UNL     1      -1.387 -10.652  15.416  0.00  0.00    +0.170 C 
BRANCH  21  23
ATOM     23  C   UNL     1      -1.909 -10.535  14.051  0.00  0.00    -0.090 C 
ATOM     27  C   UNL     1      -2.331 -10.438  12.931  0.00  0.00    +0.005 C 
ENDBRANCH  21  23
ENDBRANCH   4  21
ENDBRANCH  15   4
ENDBRANCH   9  15
BRANCH  11  16
ATOM     16  C   UNL     1      -8.117  -8.820  16.976  0.00  0.00    +0.105 C 
BRANCH  16  20
ATOM      1  O   UNL     1     -10.086  -7.702  16.063  0.00  0.00    -0.420 OA
ATOM      5  N   UNL     1     -10.523  -9.077  17.773  0.00  0.00    -0.112 NA
ATOM      6  N   UNL     1     -11.718  -8.518  17.358  0.00  0.00    -0.107 NA
ATOM     20  C   UNL     1      -9.599  -8.573  16.989  0.00  0.00    +0.218 A 
ATOM     22  C   UNL     1     -11.414  -7.723  16.359  0.00  0.00    +0.248 A 
BRANCH  22  24
ATOM     24  C   UNL     1     -12.251  -6.888  15.546  0.00  0.00    +0.039 A 
ATOM     25  C   UNL     1     -13.633  -7.074  15.548  0.00  0.00    +0.015 A 
ATOM     26  C   UNL     1     -11.682  -5.891  14.754  0.00  0.00    +0.015 A 
ATOM     28  C   UNL     1     -14.446  -6.262  14.756  0.00  0.00    +0.033 A 
ATOM     29  C   UNL     1     -12.494  -5.080  13.962  0.00  0.00    +0.033 A 
ATOM     30  C   UNL     1     -13.877  -5.266  13.963  0.00  0.00    +0.126 A 
BRANCH  30   7
ATOM      2  O   UNL     1     -14.471  -3.208  13.110  0.00  0.00    -0.126 OA
ATOM      3  O   UNL     1     -15.647  -4.965  12.516  0.00  0.00    -0.126 OA
ATOM      7  N   UNL     1     -14.705  -4.440  13.157  0.00  0.00    +0.056 N 
ENDBRANCH  30   7
ENDBRANCH  22  24
ENDBRANCH  16  20
ENDBRANCH  11  16
TORSDOF 9
ENDMDL
MODEL 2
REMARK VINA RESULT:      -6.4      4.522      8.228
REMARK  Name = 38030964
REMARK  12 active torsions:
REMARK  status: ('A' for Active; 'I' for Inactive)
REMARK    1  A    between atoms: N_4  and  C_15
REMARK    2  A    between atoms: N_4  and  C_21
REMARK    3  A    between atoms: N_7  and  C_30
REMARK    4  A    between atoms: C_8  and  C_12
REMARK    5  A    between atoms: C_9  and  C_15
REMARK    6  A    between atoms: C_11  and  C_16
REMARK    7  A    between atoms: C_12  and  C_17
REMARK    8  A    between atoms: C_12  and  C_18
REMARK    9  A    between atoms: C_13  and  C_19
REMARK   10  A    between atoms: C_16  and  C_20
REMARK   11  A    between atoms: C_21  and  C_23
REMARK   12  A    between atoms: C_22  and  C_24
REMARK                            x       y       z     vdW  Elec       q    Type
REMARK                         _______ _______ _______ _____ _____    ______ ____
ROOT
ATOM      8  C   UNL     1      -6.737 -11.091  16.825  0.00  0.00    +0.000 C 
ATOM      9  C   UNL     1      -7.032 -11.347  18.325  0.00  0.00    +0.029 C 
ATOM     10  C   UNL     1      -5.658 -12.062  16.319  0.00  0.00    +0.012 C 
ATOM     11  C   UNL     1      -4.340 -11.930  17.106  0.00  0.00    +0.024 C 
ATOM     13  C   UNL     1      -4.578 -11.904  18.602  0.00  0.00    -0.073 C 
ATOM     14  C   UNL     1      -5.790 -11.656  19.128  0.00  0.00    -0.023 C 
ATOM     19  C   UNL     1      -3.398 -12.216  19.480  0.00  0.00    +0.039 C 
ENDROOT
BRANCH   8  12
ATOM     12  C   UNL     1      -7.998 -11.225  15.967  0.00  0.00    -0.013 C 
ATOM     17  C   UNL     1      -7.664 -11.009  14.494  0.00  0.00    +0.007 C 
ATOM     18  C   UNL     1      -8.646 -12.589  16.180  0.00  0.00    +0.007 C 
ENDBRANCH   8  12
BRANCH   9  15
ATOM     15  C   UNL     1      -7.766 -10.158  18.955  0.00  0.00    +0.089 C 
BRANCH  15   4
ATOM      4  N   UNL     1      -8.718 -10.615  19.953  0.00  0.00    -0.305 NA
ATOM     31  H   UNL     1      -8.333 -11.407  20.468  0.00  0.00    +0.123 HD
BRANCH   4  21
ATOM     21  C   UNL     1      -9.976 -11.016  19.332  0.00  0.00    +0.170 C 
BRANCH  21  23
ATOM     23  C   UNL     1     -10.523  -9.932  18.511  0.00  0.00    -0.090 C 
ATOM     27  C   UNL     1     -10.975  -9.048  17.835  0.00  0.00    +0.005 C 
ENDBRANCH  21  23
ENDBRANCH   4  21
ENDBRANCH  15   4
ENDBRANCH   9  15
BRANCH  11  16
ATOM     16  C   UNL     1      -3.548 -10.697  16.654  0.00  0.00    +0.105 C 
BRANCH  16  20
ATOM      1  O   UNL     1      -3.933 -10.442  14.257  0.00  0.00    -0.420 OA
ATOM      5  N   UNL     1      -1.933 -11.297  14.778  0.00  0.00    -0.112 NA
ATOM      6  N   UNL     1      -2.014 -11.208  13.401  0.00  0.00    -0.107 NA
ATOM     20  C   UNL     1      -3.074 -10.839  15.236  0.00  0.00    +0.218 A 
ATOM     22  C   UNL     1      -3.197 -10.704  13.143  0.00  0.00    +0.248 A 
BRANCH  22  24
ATOM     24  C   UNL     1      -3.824 -10.394  11.890  0.00  0.00    +0.039 A 
ATOM     25  C   UNL     1      -5.162 -10.727  11.678  0.00  0.00    +0.015 A 
ATOM     26  C   UNL     1      -3.095  -9.759  10.884  0.00  0.00    +0.015 A 
ATOM     28  C   UNL     1      -5.770 -10.426  10.459  0.00  0.00    +0.033 A 
ATOM     29  C   UNL     1      -3.703  -9.459   9.665  0.00  0.00    +0.033 A 
ATOM     30  C   UNL     1      -5.041  -9.793   9.453  0.00  0.00    +0.126 A 
BRANCH  30   7
ATOM      2  O   UNL     1      -5.192  -9.984   7.160  0.00  0.00    -0.126 OA
ATOM      3  O   UNL     1      -6.659  -8.728   8.203  0.00  0.00    -0.126 OA
ATOM      7  N   UNL     1      -5.661  -9.486   8.212  0.00  0.00    +0.056 N 
ENDBRANCH  30   7
ENDBRANCH  22  24
ENDBRANCH  16  20
ENDBRANCH  11  16
TORSDOF 9
ENDMDL
MODEL 3
REMARK VINA RESULT:      -6.2     17.993     21.553
REMARK  Name = 38030964
REMARK  12 active torsions:
REMARK  status: ('A' for Active; 'I' for Inactive)
REMARK    1  A    between atoms: N_4  and  C_15
REMARK    2  A    between atoms: N_4  and  C_21
REMARK    3  A    between atoms: N_7  and  C_30
REMARK    4  A    between atoms: C_8  and  C_12
REMARK    5  A    between atoms: C_9  and  C_15
REMARK    6  A    between atoms: C_11  and  C_16
REMARK    7  A    between atoms: C_12  and  C_17
REMARK    8  A    between atoms: C_12  and  C_18
REMARK    9  A    between atoms: C_13  and  C_19
REMARK   10  A    between atoms: C_16  and  C_20
REMARK   11  A    between atoms: C_21  and  C_23
REMARK   12  A    between atoms: C_22  and  C_24
REMARK                            x       y       z     vdW  Elec       q    Type
REMARK                         _______ _______ _______ _____ _____    ______ ____
ROOT
ATOM      8  C   UNL     1     -11.942  10.304  18.654  0.00  0.00    +0.000 C 
ATOM      9  C   UNL     1     -11.781   8.954  17.913  0.00  0.00    +0.029 C 
ATOM     10  C   UNL     1     -11.241  10.251  20.021  0.00  0.00    +0.012 C 
ATOM     11  C   UNL     1     -11.799   9.131  20.919  0.00  0.00    +0.024 C 
ATOM     13  C   UNL     1     -11.923   7.819  20.171  0.00  0.00    -0.073 C 
ATOM     14  C   UNL     1     -11.898   7.758  18.828  0.00  0.00    -0.023 C 
ATOM     19  C   UNL     1     -12.028   6.572  21.005  0.00  0.00    +0.039 C 
ENDROOT
BRANCH   8  12
ATOM     12  C   UNL     1     -11.390  11.473  17.833  0.00  0.00    -0.013 C 
ATOM     17  C   UNL     1     -11.577  12.787  18.587  0.00  0.00    +0.007 C 
ATOM     18  C   UNL     1      -9.919  11.244  17.502  0.00  0.00    +0.007 C 
ENDBRANCH   8  12
BRANCH   9  15
ATOM     15  C   UNL     1     -12.796   8.825  16.771  0.00  0.00    +0.089 C 
BRANCH  15   4
ATOM      4  N   UNL     1     -12.242   8.042  15.680  0.00  0.00    -0.305 NA
ATOM     31  H   UNL     1     -12.189   7.059  15.945  0.00  0.00    +0.123 HD
BRANCH   4  21
ATOM     21  C   UNL     1     -10.908   8.512  15.322  0.00  0.00    +0.170 C 
BRANCH  21  23
ATOM     23  C   UNL     1     -10.469   7.926  14.053  0.00  0.00    -0.090 C 
ATOM     27  C   UNL     1     -10.115   7.448  13.009  0.00  0.00    +0.005 C 
ENDBRANCH  21  23
ENDBRANCH   4  21
ENDBRANCH  15   4
ENDBRANCH   9  15
BRANCH  11  16
ATOM     16  C   UNL     1     -13.140   9.538  21.540  0.00  0.00    +0.105 C 
BRANCH  16  20
ATOM      1  O   UNL     1     -12.584  10.266  23.802  0.00  0.00    -0.420 OA
ATOM      5  N   UNL     1     -13.130  11.931  22.411  0.00  0.00    -0.112 NA
ATOM      6  N   UNL     1     -12.841  12.483  23.645  0.00  0.00    -0.107 NA
ATOM     20  C   UNL     1     -12.967  10.636  22.549  0.00  0.00    +0.218 A 
ATOM     22  C   UNL     1     -12.528  11.475  24.424  0.00  0.00    +0.248 A 
BRANCH  22  24
ATOM     24  C   UNL     1     -12.143  11.452  25.807  0.00  0.00    +0.039 A 
ATOM     25  C   UNL     1     -12.556  12.473  26.663  0.00  0.00    +0.015 A 
ATOM     26  C   UNL     1     -11.355  10.409  26.293  0.00  0.00    +0.015 A 
ATOM     28  C   UNL     1     -12.180  12.450  28.006  0.00  0.00    +0.033 A 
ATOM     29  C   UNL     1     -10.978  10.387  27.636  0.00  0.00    +0.033 A 
ATOM     30  C   UNL     1     -11.391  11.408  28.492  0.00  0.00    +0.126 A 
BRANCH  30   7
ATOM      2  O   UNL     1     -11.284  10.374  30.551  0.00  0.00    -0.126 OA
ATOM      3  O   UNL     1     -10.408  12.376  30.340  0.00  0.00    -0.126 OA
ATOM      7  N   UNL     1     -11.009  11.385  29.861  0.00  0.00    +0.056 N 
ENDBRANCH  30   7
ENDBRANCH  22  24
ENDBRANCH  16  20
ENDBRANCH  11  16
TORSDOF 9
ENDMDL
MODEL 4
REMARK VINA RESULT:      -6.2     28.129     31.909
REMARK  Name = 38030964
REMARK  12 active torsions:
REMARK  status: ('A' for Active; 'I' for Inactive)
REMARK    1  A    between atoms: N_4  and  C_15
REMARK    2  A    between atoms: N_4  and  C_21
REMARK    3  A    between atoms: N_7  and  C_30
REMARK    4  A    between atoms: C_8  and  C_12
REMARK    5  A    between atoms: C_9  and  C_15
REMARK    6  A    between atoms: C_11  and  C_16
REMARK    7  A    between atoms: C_12  and  C_17
REMARK    8  A    between atoms: C_12  and  C_18
REMARK    9  A    between atoms: C_13  and  C_19
REMARK   10  A    between atoms: C_16  and  C_20
REMARK   11  A    between atoms: C_21  and  C_23
REMARK   12  A    between atoms: C_22  and  C_24
REMARK                            x       y       z     vdW  Elec       q    Type
REMARK                         _______ _______ _______ _____ _____    ______ ____
ROOT
ATOM      8  C   UNL     1      22.351   5.866  22.294  0.00  0.00    +0.000 C 
ATOM      9  C   UNL     1      22.272   4.679  21.301  0.00  0.00    +0.029 C 
ATOM     10  C   UNL     1      20.965   6.155  22.893  0.00  0.00    +0.012 C 
ATOM     11  C   UNL     1      19.922   6.493  21.810  0.00  0.00    +0.024 C 
ATOM     13  C   UNL     1      19.969   5.510  20.658  0.00  0.00    -0.073 C 
ATOM     14  C   UNL     1      21.022   4.698  20.454  0.00  0.00    -0.023 C 
ATOM     19  C   UNL     1      18.757   5.450  19.771  0.00  0.00    +0.039 C 
ENDROOT
BRANCH   8  12
ATOM     12  C   UNL     1      23.356   5.599  23.419  0.00  0.00    -0.013 C 
ATOM     17  C   UNL     1      23.543   6.851  24.272  0.00  0.00    +0.007 C 
ATOM     18  C   UNL     1      22.898   4.424  24.275  0.00  0.00    +0.007 C 
ENDBRANCH   8  12
BRANCH   9  15
ATOM     15  C   UNL     1      23.505   4.637  20.390  0.00  0.00    +0.089 C 
BRANCH  15   4
ATOM      4  N   UNL     1      23.734   3.289  19.900  0.00  0.00    -0.305 NA
ATOM     31  H   UNL     1      22.933   2.696  20.119  0.00  0.00    +0.123 HD
BRANCH   4  21
ATOM     21  C   UNL     1      24.933   2.711  20.497  0.00  0.00    +0.170 C 
BRANCH  21  23
ATOM     23  C   UNL     1      24.585   1.789  21.582  0.00  0.00    -0.090 C 
ATOM     27  C   UNL     1      24.304   1.029  22.468  0.00  0.00    +0.005 C 
ENDBRANCH  21  23
ENDBRANCH   4  21
ENDBRANCH  15   4
ENDBRANCH   9  15
BRANCH  11  16
ATOM     16  C   UNL     1      20.090   7.933  21.312  0.00  0.00    +0.105 C 
BRANCH  16  20
ATOM      1  O   UNL     1      17.659   8.070  21.149  0.00  0.00    -0.420 OA
ATOM      5  N   UNL     1      18.638   9.956  21.847  0.00  0.00    -0.112 NA
ATOM      6  N   UNL     1      17.274  10.175  21.802  0.00  0.00    -0.107 NA
ATOM     20  C   UNL     1      18.817   8.716  21.458  0.00  0.00    +0.218 A 
ATOM     22  C   UNL     1      16.744   9.048  21.390  0.00  0.00    +0.248 A 
BRANCH  22  24
ATOM     24  C   UNL     1      15.372   8.695  21.157  0.00  0.00    +0.039 A 
ATOM     25  C   UNL     1      14.436   8.822  22.184  0.00  0.00    +0.015 A 
ATOM     26  C   UNL     1      14.976   8.222  19.906  0.00  0.00    +0.015 A 
ATOM     28  C   UNL     1      13.104   8.477  21.957  0.00  0.00    +0.033 A 
ATOM     29  C   UNL     1      13.644   7.876  19.681  0.00  0.00    +0.033 A 
ATOM     30  C   UNL     1      12.708   8.004  20.707  0.00  0.00    +0.126 A 
BRANCH  30   7
ATOM      2  O   UNL     1      10.628   8.428  19.807  0.00  0.00    -0.126 OA
ATOM      3  O   UNL     1      10.913   6.577  20.952  0.00  0.00    -0.126 OA
ATOM      7  N   UNL     1      11.350   7.652  20.477  0.00  0.00    +0.056 N 
ENDBRANCH  30   7
ENDBRANCH  22  24
ENDBRANCH  16  20
ENDBRANCH  11  16
TORSDOF 9
ENDMDL
MODEL 5
REMARK VINA RESULT:      -5.9      3.911      5.940
REMARK  Name = 38030964
REMARK  12 active torsions:
REMARK  status: ('A' for Active; 'I' for Inactive)
REMARK    1  A    between atoms: N_4  and  C_15
REMARK    2  A    between atoms: N_4  and  C_21
REMARK    3  A    between atoms: N_7  and  C_30
REMARK    4  A    between atoms: C_8  and  C_12
REMARK    5  A    between atoms: C_9  and  C_15
REMARK    6  A    between atoms: C_11  and  C_16
REMARK    7  A    between atoms: C_12  and  C_17
REMARK    8  A    between atoms: C_12  and  C_18
REMARK    9  A    between atoms: C_13  and  C_19
REMARK   10  A    between atoms: C_16  and  C_20
REMARK   11  A    between atoms: C_21  and  C_23
REMARK   12  A    between atoms: C_22  and  C_24
REMARK                            x       y       z     vdW  Elec       q    Type
REMARK                         _______ _______ _______ _____ _____    ______ ____
ROOT
ATOM      8  C   UNL     1      -5.240 -11.013  13.623  0.00  0.00    +0.000 C 
ATOM      9  C   UNL     1      -3.785 -10.939  13.095  0.00  0.00    +0.029 C 
ATOM     10  C   UNL     1      -5.404 -10.123  14.865  0.00  0.00    +0.012 C 
ATOM     11  C   UNL     1      -4.450 -10.530  16.004  0.00  0.00    +0.024 C 
ATOM     13  C   UNL     1      -3.035 -10.740  15.505  0.00  0.00    -0.073 C 
ATOM     14  C   UNL     1      -2.755 -10.907  14.200  0.00  0.00    -0.023 C 
ATOM     19  C   UNL     1      -1.941 -10.707  16.536  0.00  0.00    +0.039 C 
ENDROOT
BRANCH   8  12
ATOM     12  C   UNL     1      -6.255 -10.601  12.552  0.00  0.00    -0.013 C 
ATOM     17  C   UNL     1      -7.653 -11.079  12.933  0.00  0.00    +0.007 C 
ATOM     18  C   UNL     1      -6.235  -9.089  12.354  0.00  0.00    +0.007 C 
ENDBRANCH   8  12
BRANCH   9  15
ATOM     15  C   UNL     1      -3.481 -12.104  12.146  0.00  0.00    +0.089 C 
BRANCH  15   4
ATOM      4  N   UNL     1      -3.276 -11.621  10.792  0.00  0.00    -0.305 NA
ATOM     31  H   UNL     1      -2.562 -12.179  10.325  0.00  0.00    +0.123 HD
BRANCH   4  21
ATOM     21  C   UNL     1      -2.866 -10.222  10.791  0.00  0.00    +0.170 C 
BRANCH  21  23
ATOM     23  C   UNL     1      -3.627  -9.454   9.800  0.00  0.00    -0.090 C 
ATOM     27  C   UNL     1      -4.247  -8.820   8.991  0.00  0.00    +0.005 C 
ENDBRANCH  21  23
ENDBRANCH   4  21
ENDBRANCH  15   4
ENDBRANCH   9  15
BRANCH  11  16
ATOM     16  C   UNL     1      -4.964 -11.775  16.736  0.00  0.00    +0.105 C 
BRANCH  16  20
ATOM      1  O   UNL     1      -7.152 -11.173  17.632  0.00  0.00    -0.420 OA
ATOM      5  N   UNL     1      -5.528 -11.268  19.168  0.00  0.00    -0.112 NA
ATOM      6  N   UNL     1      -6.702 -10.920  19.809  0.00  0.00    -0.107 NA
ATOM     20  C   UNL     1      -5.838 -11.406  17.900  0.00  0.00    +0.218 A 
ATOM     22  C   UNL     1      -7.622 -10.876  18.875  0.00  0.00    +0.248 A 
BRANCH  22  24
ATOM     24  C   UNL     1      -9.021 -10.569  18.959  0.00  0.00    +0.039 A 
ATOM     25  C   UNL     1      -9.611  -9.740  18.006  0.00  0.00    +0.015 A 
ATOM     26  C   UNL     1      -9.789 -11.098  19.996  0.00  0.00    +0.015 A 
ATOM     28  C   UNL     1     -10.971  -9.440  18.090  0.00  0.00    +0.033 A 
ATOM     29  C   UNL     1     -11.149 -10.797  20.080  0.00  0.00    +0.033 A 
ATOM     30  C   UNL     1     -11.739  -9.968  19.126  0.00  0.00    +0.126 A 
BRANCH  30   7
ATOM      2  O   UNL     1     -13.782  -9.527  18.151  0.00  0.00    -0.126 OA
ATOM      3  O   UNL     1     -13.651  -9.537  20.342  0.00  0.00    -0.126 OA
ATOM      7  N   UNL     1     -13.125  -9.663  19.211  0.00  0.00    +0.056 N 
ENDBRANCH  30   7
ENDBRANCH  22  24
ENDBRANCH  16  20
ENDBRANCH  11  16
TORSDOF 9
ENDMDL
MODEL 6
REMARK VINA RESULT:      -5.9      5.415      8.473
REMARK  Name = 38030964
REMARK  12 active torsions:
REMARK  status: ('A' for Active; 'I' for Inactive)
REMARK    1  A    between atoms: N_4  and  C_15
REMARK    2  A    between atoms: N_4  and  C_21
REMARK    3  A    between atoms: N_7  and  C_30
REMARK    4  A    between atoms: C_8  and  C_12
REMARK    5  A    between atoms: C_9  and  C_15
REMARK    6  A    between atoms: C_11  and  C_16
REMARK    7  A    between atoms: C_12  and  C_17
REMARK    8  A    between atoms: C_12  and  C_18
REMARK    9  A    between atoms: C_13  and  C_19
REMARK   10  A    between atoms: C_16  and  C_20
REMARK   11  A    between atoms: C_21  and  C_23
REMARK   12  A    between atoms: C_22  and  C_24
REMARK                            x       y       z     vdW  Elec       q    Type
REMARK                         _______ _______ _______ _____ _____    ______ ____
ROOT
ATOM      8  C   UNL     1      -6.410 -12.930  15.680  0.00  0.00    +0.000 C 
ATOM      9  C   UNL     1      -6.876 -13.298  17.111  0.00  0.00    +0.029 C 
ATOM     10  C   UNL     1      -4.889 -13.108  15.550  0.00  0.00    +0.012 C 
ATOM     11  C   UNL     1      -4.112 -12.237  16.555  0.00  0.00    +0.024 C 
ATOM     13  C   UNL     1      -4.689 -12.341  17.952  0.00  0.00    -0.073 C 
ATOM     14  C   UNL     1      -5.920 -12.830  18.183  0.00  0.00    -0.023 C 
ATOM     19  C   UNL     1      -3.798 -11.912  19.085  0.00  0.00    +0.039 C 
ENDROOT
BRANCH   8  12
ATOM     12  C   UNL     1      -7.124 -13.771  14.616  0.00  0.00    -0.013 C 
ATOM     17  C   UNL     1      -6.735 -13.300  13.217  0.00  0.00    +0.007 C 
ATOM     18  C   UNL     1      -6.798 -15.249  14.799  0.00  0.00    +0.007 C 
ENDBRANCH   8  12
BRANCH   9  15
ATOM     15  C   UNL     1      -8.276 -12.741  17.397  0.00  0.00    +0.089 C 
BRANCH  15   4
ATOM      4  N   UNL     1      -8.290 -12.013  18.654  0.00  0.00    -0.305 NA
ATOM     31  H   UNL     1      -8.856 -12.509  19.341  0.00  0.00    +0.123 HD
BRANCH   4  21
ATOM     21  C   UNL     1      -8.827 -10.668  18.474  0.00  0.00    +0.170 C 
BRANCH  21  23
ATOM     23  C   UNL     1      -8.006  -9.898  17.535  0.00  0.00    -0.090 C 
ATOM     27  C   UNL     1      -7.332  -9.263  16.771  0.00  0.00    +0.005 C 
ENDBRANCH  21  23
ENDBRANCH   4  21
ENDBRANCH  15   4
ENDBRANCH   9  15
BRANCH  11  16
ATOM     16  C   UNL     1      -4.056 -10.777  16.091  0.00  0.00    +0.105 C 
BRANCH  16  20
ATOM      1  O   UNL     1      -4.089 -10.688  13.653  0.00  0.00    -0.420 OA
ATOM      5  N   UNL     1      -2.049 -10.490  14.549  0.00  0.00    -0.112 NA
ATOM      6  N   UNL     1      -1.920 -10.422  13.174  0.00  0.00    -0.107 NA
ATOM     20  C   UNL     1      -3.331 -10.645  14.782  0.00  0.00    +0.218 A 
ATOM     22  C   UNL     1      -3.135 -10.543  12.694  0.00  0.00    +0.248 A 
BRANCH  22  24
ATOM     24  C   UNL     1      -3.604 -10.545  11.337  0.00  0.00    +0.039 A 
ATOM     25  C   UNL     1      -3.593  -9.364  10.594  0.00  0.00    +0.015 A 
ATOM     26  C   UNL     1      -4.071 -11.727  10.763  0.00  0.00    +0.015 A 
ATOM     28  C   UNL     1      -4.051  -9.367   9.276  0.00  0.00    +0.033 A 
ATOM     29  C   UNL     1      -4.529 -11.729   9.445  0.00  0.00    +0.033 A 
ATOM     30  C   UNL     1      -4.519 -10.549   8.702  0.00  0.00    +0.126 A 
BRANCH  30   7
ATOM      2  O   UNL     1      -5.801  -9.669   7.000  0.00  0.00    -0.126 OA
ATOM      3  O   UNL     1      -4.566 -11.433   6.573  0.00  0.00    -0.126 OA
ATOM      7  N   UNL     1      -4.984 -10.551   7.360  0.00  0.00    +0.056 N 
ENDBRANCH  30   7
ENDBRANCH  22  24
ENDBRANCH  16  20
ENDBRANCH  11  16
TORSDOF 9
ENDMDL
MODEL 7
REMARK VINA RESULT:      -5.8     27.535     31.082
REMARK  Name = 38030964
REMARK  12 active torsions:
REMARK  status: ('A' for Active; 'I' for Inactive)
REMARK    1  A    between atoms: N_4  and  C_15
REMARK    2  A    between atoms: N_4  and  C_21
REMARK    3  A    between atoms: N_7  and  C_30
REMARK    4  A    between atoms: C_8  and  C_12
REMARK    5  A    between atoms: C_9  and  C_15
REMARK    6  A    between atoms: C_11  and  C_16
REMARK    7  A    between atoms: C_12  and  C_17
REMARK    8  A    between atoms: C_12  and  C_18
REMARK    9  A    between atoms: C_13  and  C_19
REMARK   10  A    between atoms: C_16  and  C_20
REMARK   11  A    between atoms: C_21  and  C_23
REMARK   12  A    between atoms: C_22  and  C_24
REMARK                            x       y       z     vdW  Elec       q    Type
REMARK                         _______ _______ _______ _____ _____    ______ ____
ROOT
ATOM      8  C   UNL     1      18.107  -3.412  23.760  0.00  0.00    +0.000 C 
ATOM      9  C   UNL     1      18.973  -4.479  23.045  0.00  0.00    +0.029 C 
ATOM     10  C   UNL     1      19.001  -2.332  24.391  0.00  0.00    +0.012 C 
ATOM     11  C   UNL     1      19.994  -2.921  25.412  0.00  0.00    +0.024 C 
ATOM     13  C   UNL     1      20.696  -4.148  24.869  0.00  0.00    -0.073 C 
ATOM     14  C   UNL     1      20.234  -4.824  23.802  0.00  0.00    -0.023 C 
ATOM     19  C   UNL     1      21.971  -4.556  25.554  0.00  0.00    +0.039 C 
ENDROOT
BRANCH   8  12
ATOM     12  C   UNL     1      17.103  -2.760  22.804  0.00  0.00    -0.013 C 
ATOM     17  C   UNL     1      15.678  -2.958  23.315  0.00  0.00    +0.007 C 
ATOM     18  C   UNL     1      17.416  -1.278  22.633  0.00  0.00    +0.007 C 
ENDBRANCH   8  12
BRANCH   9  15
ATOM     15  C   UNL     1      18.169  -5.758  22.780  0.00  0.00    +0.089 C 
BRANCH  15   4
ATOM      4  N   UNL     1      18.703  -6.866  23.554  0.00  0.00    -0.305 NA
ATOM     31  H   UNL     1      19.134  -7.551  22.933  0.00  0.00    +0.123 HD
BRANCH   4  21
ATOM     21  C   UNL     1      17.652  -7.517  24.328  0.00  0.00    +0.170 C 
BRANCH  21  23
ATOM     23  C   UNL     1      17.104  -6.606  25.337  0.00  0.00    -0.090 C 
ATOM     27  C   UNL     1      16.659  -5.855  26.161  0.00  0.00    +0.005 C 
ENDBRANCH  21  23
ENDBRANCH   4  21
ENDBRANCH  15   4
ENDBRANCH   9  15
BRANCH  11  16
ATOM     16  C   UNL     1      19.299  -3.228  26.743  0.00  0.00    +0.105 C 
BRANCH  16  20
ATOM      1  O   UNL     1      18.874  -2.049  28.837  0.00  0.00    -0.420 OA
ATOM      5  N   UNL     1      20.896  -1.661  27.961  0.00  0.00    -0.112 NA
ATOM      6  N   UNL     1      20.792  -0.937  29.134  0.00  0.00    -0.107 NA
ATOM     20  C   UNL     1      19.754  -2.295  27.828  0.00  0.00    +0.218 A 
ATOM     22  C   UNL     1      19.597  -1.194  29.610  0.00  0.00    +0.248 A 
BRANCH  22  24
ATOM     24  C   UNL     1      18.946  -0.720  30.798  0.00  0.00    +0.039 A 
ATOM     25  C   UNL     1      17.613  -1.049  31.041  0.00  0.00    +0.015 A 
ATOM     26  C   UNL     1      19.647   0.070  31.709  0.00  0.00    +0.015 A 
ATOM     28  C   UNL     1      16.981  -0.587  32.195  0.00  0.00    +0.033 A 
ATOM     29  C   UNL     1      19.015   0.533  32.863  0.00  0.00    +0.033 A 
ATOM     30  C   UNL     1      17.681   0.204  33.105  0.00  0.00    +0.126 A 
BRANCH  30   7
ATOM      2  O   UNL     1      16.262   1.658  34.197  0.00  0.00    -0.126 OA
ATOM      3  O   UNL     1      17.259   0.093  35.370  0.00  0.00    -0.126 OA
ATOM      7  N   UNL     1      17.036   0.674  34.281  0.00  0.00    +0.056 N 
ENDBRANCH  30   7
ENDBRANCH  22  24
ENDBRANCH  16  20
ENDBRANCH  11  16
TORSDOF 9
ENDMDL
MODEL 8
REMARK VINA RESULT:      -5.8     24.915     28.762
REMARK  Name = 38030964
REMARK  12 active torsions:
REMARK  status: ('A' for Active; 'I' for Inactive)
REMARK    1  A    between atoms: N_4  and  C_15
REMARK    2  A    between atoms: N_4  and  C_21
REMARK    3  A    between atoms: N_7  and  C_30
REMARK    4  A    between atoms: C_8  and  C_12
REMARK    5  A    between atoms: C_9  and  C_15
REMARK    6  A    between atoms: C_11  and  C_16
REMARK    7  A    between atoms: C_12  and  C_17
REMARK    8  A    between atoms: C_12  and  C_18
REMARK    9  A    between atoms: C_13  and  C_19
REMARK   10  A    between atoms: C_16  and  C_20
REMARK   11  A    between atoms: C_21  and  C_23
REMARK   12  A    between atoms: C_22  and  C_24
REMARK                            x       y       z     vdW  Elec       q    Type
REMARK                         _______ _______ _______ _____ _____    ______ ____
ROOT
ATOM      8  C   UNL     1      12.792   4.455  -0.369  0.00  0.00    +0.000 C 
ATOM      9  C   UNL     1      12.606   3.930  -1.815  0.00  0.00    +0.029 C 
ATOM     10  C   UNL     1      11.462   4.391   0.399  0.00  0.00    +0.012 C 
ATOM     11  C   UNL     1      10.356   5.219  -0.282  0.00  0.00    +0.024 C 
ATOM     13  C   UNL     1      10.290   4.952  -1.772  0.00  0.00    -0.073 C 
ATOM     14  C   UNL     1      11.299   4.363  -2.438  0.00  0.00    -0.023 C 
ATOM     19  C   UNL     1       9.016   5.337  -2.472  0.00  0.00    +0.039 C 
ENDROOT
BRANCH   8  12
ATOM     12  C   UNL     1      13.866   3.666   0.388  0.00  0.00    -0.013 C 
ATOM     17  C   UNL     1      15.102   4.533   0.613  0.00  0.00    +0.007 C 
ATOM     18  C   UNL     1      13.315   3.154   1.714  0.00  0.00    +0.007 C 
ENDBRANCH   8  12
BRANCH   9  15
ATOM     15  C   UNL     1      13.769   4.363  -2.715  0.00  0.00    +0.089 C 
BRANCH  15   4
ATOM      4  N   UNL     1      13.682   3.713  -4.011  0.00  0.00    -0.305 NA
ATOM     31  H   UNL     1      14.302   2.904  -4.040  0.00  0.00    +0.123 HD
BRANCH   4  21
ATOM     21  C   UNL     1      14.047   4.632  -5.084  0.00  0.00    +0.170 C 
BRANCH  21  23
ATOM     23  C   UNL     1      12.962   5.582  -5.350  0.00  0.00    -0.090 C 
ATOM     27  C   UNL     1      12.078   6.366  -5.566  0.00  0.00    +0.005 C 
ENDBRANCH  21  23
ENDBRANCH   4  21
ENDBRANCH  15   4
ENDBRANCH   9  15
BRANCH  11  16
ATOM     16  C   UNL     1      10.533   6.715   0.001  0.00  0.00    +0.105 C 
BRANCH  16  20
ATOM      1  O   UNL     1      10.079   6.433   2.382  0.00  0.00    -0.420 OA
ATOM      5  N   UNL     1       8.914   8.081   1.416  0.00  0.00    -0.112 NA
ATOM      6  N   UNL     1       8.561   8.035   2.752  0.00  0.00    -0.107 NA
ATOM     20  C   UNL     1       9.802   7.129   1.245  0.00  0.00    +0.218 A 
ATOM     22  C   UNL     1       9.265   7.059   3.275  0.00  0.00    +0.248 A 
BRANCH  22  24
ATOM     24  C   UNL     1       9.308   6.560   4.620  0.00  0.00    +0.039 A 
ATOM     25  C   UNL     1       9.916   5.333   4.888  0.00  0.00    +0.015 A 
ATOM     26  C   UNL     1       8.741   7.299   5.657  0.00  0.00    +0.015 A 
ATOM     28  C   UNL     1       9.955   4.847   6.195  0.00  0.00    +0.033 A 
ATOM     29  C   UNL     1       8.780   6.813   6.964  0.00  0.00    +0.033 A 
ATOM     30  C   UNL     1       9.388   5.587   7.232  0.00  0.00    +0.126 A 
BRANCH  30   7
ATOM      2  O   UNL     1       8.952   5.793   9.487  0.00  0.00    -0.126 OA
ATOM      3  O   UNL     1       9.941   3.967   8.777  0.00  0.00    -0.126 OA
ATOM      7  N   UNL     1       9.429   5.091   8.563  0.00  0.00    +0.056 N 
ENDBRANCH  30   7
ENDBRANCH  22  24
ENDBRANCH  16  20
ENDBRANCH  11  16
TORSDOF 9
ENDMDL
MODEL 9
REMARK VINA RESULT:      -5.8      7.170      9.934
REMARK  Name = 38030964
REMARK  12 active torsions:
REMARK  status: ('A' for Active; 'I' for Inactive)
REMARK    1  A    between atoms: N_4  and  C_15
REMARK    2  A    between atoms: N_4  and  C_21
REMARK    3  A    between atoms: N_7  and  C_30
REMARK    4  A    between atoms: C_8  and  C_12
REMARK    5  A    between atoms: C_9  and  C_15
REMARK    6  A    between atoms: C_11  and  C_16
REMARK    7  A    between atoms: C_12  and  C_17
REMARK    8  A    between atoms: C_12  and  C_18
REMARK    9  A    between atoms: C_13  and  C_19
REMARK   10  A    between atoms: C_16  and  C_20
REMARK   11  A    between atoms: C_21  and  C_23
REMARK   12  A    between atoms: C_22  and  C_24
REMARK                            x       y       z     vdW  Elec       q    Type
REMARK                         _______ _______ _______ _____ _____    ______ ____
ROOT
ATOM      8  C   UNL     1      -4.044 -11.802  12.356  0.00  0.00    +0.000 C 
ATOM      9  C   UNL     1      -2.741 -11.745  13.192  0.00  0.00    +0.029 C 
ATOM     10  C   UNL     1      -3.731 -11.610  10.863  0.00  0.00    +0.012 C 
ATOM     11  C   UNL     1      -3.028 -10.268  10.583  0.00  0.00    +0.024 C 
ATOM     13  C   UNL     1      -1.890 -10.016  11.550  0.00  0.00    -0.073 C 
ATOM     14  C   UNL     1      -1.770 -10.695  12.705  0.00  0.00    -0.023 C 
ATOM     19  C   UNL     1      -0.865  -8.996  11.138  0.00  0.00    +0.039 C 
ENDROOT
BRANCH   8  12
ATOM     12  C   UNL     1      -4.795 -13.120  12.563  0.00  0.00    -0.013 C 
ATOM     17  C   UNL     1      -6.004 -13.195  11.634  0.00  0.00    +0.007 C 
ATOM     18  C   UNL     1      -3.864 -14.306  12.334  0.00  0.00    +0.007 C 
ENDBRANCH   8  12
BRANCH   9  15
ATOM     15  C   UNL     1      -3.045 -11.511  14.676  0.00  0.00    +0.089 C 
BRANCH  15   4
ATOM      4  N   UNL     1      -3.762 -10.261  14.860  0.00  0.00    -0.305 NA
ATOM     31  H   UNL     1      -3.183  -9.596  15.373  0.00  0.00    +0.123 HD
BRANCH   4  21
ATOM     21  C   UNL     1      -5.006 -10.473  15.591  0.00  0.00    +0.170 C 
BRANCH  21  23
ATOM     23  C   UNL     1      -4.738 -10.854  16.981  0.00  0.00    -0.090 C 
ATOM     27  C   UNL     1      -4.514 -11.172  18.117  0.00  0.00    +0.005 C 
ENDBRANCH  21  23
ENDBRANCH   4  21
ENDBRANCH  15   4
ENDBRANCH   9  15
BRANCH  11  16
ATOM     16  C   UNL     1      -4.030  -9.107  10.598  0.00  0.00    +0.105 C 
BRANCH  16  20
ATOM      1  O   UNL     1      -4.636  -9.989   8.405  0.00  0.00    -0.420 OA
ATOM      5  N   UNL     1      -6.176  -8.639   9.308  0.00  0.00    -0.112 NA
ATOM      6  N   UNL     1      -6.646  -9.062   8.079  0.00  0.00    -0.107 NA
ATOM     20  C   UNL     1      -5.000  -9.205   9.457  0.00  0.00    +0.218 A 
ATOM     22  C   UNL     1      -5.716  -9.846   7.589  0.00  0.00    +0.248 A 
BRANCH  22  24
ATOM     24  C   UNL     1      -5.662 -10.564   6.347  0.00  0.00    +0.039 A 
ATOM     25  C   UNL     1      -6.650 -10.363   5.383  0.00  0.00    +0.015 A 
ATOM     26  C   UNL     1      -4.624 -11.464   6.106  0.00  0.00    +0.015 A 
ATOM     28  C   UNL     1      -6.598 -11.063   4.177  0.00  0.00    +0.033 A 
ATOM     29  C   UNL     1      -4.573 -12.164   4.901  0.00  0.00    +0.033 A 
ATOM     30  C   UNL     1      -5.560 -11.963   3.936  0.00  0.00    +0.126 A 
BRANCH  30   7
ATOM      2  O   UNL     1      -6.196 -12.268   1.741  0.00  0.00    -0.126 OA
ATOM      3  O   UNL     1      -4.775 -13.689   2.625  0.00  0.00    -0.126 OA
ATOM      7  N   UNL     1      -5.508 -12.675   2.708  0.00  0.00    +0.056 N 
ENDBRANCH  30   7
ENDBRANCH  22  24
ENDBRANCH  16  20
ENDBRANCH  11  16
TORSDOF 9
ENDMDL
MODEL 10
REMARK VINA RESULT:      -5.7     17.875     21.155
REMARK  Name = 38030964
REMARK  12 active torsions:
REMARK  status: ('A' for Active; 'I' for Inactive)
REMARK    1  A    between atoms: N_4  and  C_15
REMARK    2  A    between atoms: N_4  and  C_21
REMARK    3  A    between atoms: N_7  and  C_30
REMARK    4  A    between atoms: C_8  and  C_12
REMARK    5  A    between atoms: C_9  and  C_15
REMARK    6  A    between atoms: C_11  and  C_16
REMARK    7  A    between atoms: C_12  and  C_17
REMARK    8  A    between atoms: C_12  and  C_18
REMARK    9  A    between atoms: C_13  and  C_19
REMARK   10  A    between atoms: C_16  and  C_20
REMARK   11  A    between atoms: C_21  and  C_23
REMARK   12  A    between atoms: C_22  and  C_24
REMARK                            x       y       z     vdW  Elec       q    Type
REMARK                         _______ _______ _______ _____ _____    ______ ____
ROOT
ATOM      8  C   UNL     1     -10.807  10.197  17.194  0.00  0.00    +0.000 C 
ATOM      9  C   UNL     1     -10.416   8.726  16.904  0.00  0.00    +0.029 C 
ATOM     10  C   UNL     1     -10.510  10.551  18.659  0.00  0.00    +0.012 C 
ATOM     11  C   UNL     1     -11.268   9.641  19.644  0.00  0.00    +0.024 C 
ATOM     13  C   UNL     1     -11.150   8.179  19.264  0.00  0.00    -0.073 C 
ATOM     14  C   UNL     1     -10.754   7.789  18.040  0.00  0.00    -0.023 C 
ATOM     19  C   UNL     1     -11.452   7.174  20.341  0.00  0.00    +0.039 C 
ENDROOT
BRANCH   8  12
ATOM     12  C   UNL     1     -10.077  11.173  16.266  0.00  0.00    -0.013 C 
ATOM     17  C   UNL     1     -11.058  11.811  15.286  0.00  0.00    +0.007 C 
ATOM     18  C   UNL     1      -9.353  12.241  17.079  0.00  0.00    +0.007 C 
ENDBRANCH   8  12
BRANCH   9  15
ATOM     15  C   UNL     1     -11.072   8.223  15.613  0.00  0.00    +0.089 C 
BRANCH  15   4
ATOM      4  N   UNL     1     -12.513   8.402  15.669  0.00  0.00    -0.305 NA
ATOM     31  H   UNL     1     -12.900   7.888  16.460  0.00  0.00    +0.123 HD
BRANCH   4  21
ATOM     21  C   UNL     1     -13.146   7.935  14.440  0.00  0.00    +0.170 C 
BRANCH  21  23
ATOM     23  C   UNL     1     -13.046   8.945  13.383  0.00  0.00    -0.090 C 
ATOM     27  C   UNL     1     -12.958   9.775  12.520  0.00  0.00    +0.005 C 
ENDBRANCH  21  23
ENDBRANCH   4  21
ENDBRANCH  15   4
ENDBRANCH   9  15
BRANCH  11  16
ATOM     16  C   UNL     1     -12.738  10.060  19.764  0.00  0.00    +0.105 C 
BRANCH  16  20
ATOM      1  O   UNL     1     -12.710  10.321  22.190  0.00  0.00    -0.420 OA
ATOM      5  N   UNL     1     -13.399  12.138  21.081  0.00  0.00    -0.112 NA
ATOM      6  N   UNL     1     -13.432  12.424  22.433  0.00  0.00    -0.107 NA
ATOM     20  C   UNL     1     -12.971  10.900  20.986  0.00  0.00    +0.218 A 
ATOM     22  C   UNL     1     -13.023  11.336  23.041  0.00  0.00    +0.248 A 
BRANCH  22  24
ATOM     24  C   UNL     1     -12.857  11.056  24.438  0.00  0.00    +0.039 A 
ATOM     25  C   UNL     1     -13.974  10.813  25.238  0.00  0.00    +0.015 A 
ATOM     26  C   UNL     1     -11.580  11.028  24.997  0.00  0.00    +0.015 A 
ATOM     28  C   UNL     1     -13.812  10.543  26.597  0.00  0.00    +0.033 A 
ATOM     29  C   UNL     1     -11.418  10.759  26.356  0.00  0.00    +0.033 A 
ATOM     30  C   UNL     1     -12.535  10.516  27.156  0.00  0.00    +0.126 A 
BRANCH  30   7
ATOM      2  O   UNL     1     -11.256   9.839  28.951  0.00  0.00    -0.126 OA
ATOM      3  O   UNL     1     -13.345  10.406  29.312  0.00  0.00    -0.126 OA
ATOM      7  N   UNL     1     -12.371  10.240  28.540  0.00  0.00    +0.056 N 
ENDBRANCH  30   7
ENDBRANCH  22  24
ENDBRANCH  16  20
ENDBRANCH  11  16
TORSDOF 9
ENDMDL
