MODEL 1
REMARK VINA RESULT:      -7.1      0.000      0.000
REMARK  Name = 45783404
REMARK  10 active torsions:
REMARK  status: ('A' for Active; 'I' for Inactive)
REMARK    1  A    between atoms: S_1  and  C_23
REMARK    2  A    between atoms: S_1  and  C_27
REMARK    3  A    between atoms: O_5  and  C_31
REMARK    4  A    between atoms: O_5  and  C_32
REMARK    5  A    between atoms: N_6  and  C_15
REMARK    6  A    between atoms: N_9  and  C_29
REMARK    7  A    between atoms: C_11  and  C_16
REMARK    8  A    between atoms: C_15  and  C_17
REMARK    9  A    between atoms: C_20  and  C_24
REMARK   10  A    between atoms: C_29  and  C_31
REMARK                            x       y       z     vdW  Elec       q    Type
REMARK                         _______ _______ _______ _____ _____    ______ ____
ROOT
ATOM      2  O   UNL     1      14.924   6.493  20.229  0.00  0.00    -0.336 OA
ATOM      7  N   UNL     1      15.597   8.550  19.650  0.00  0.00    -0.190 NA
ATOM      8  N   UNL     1      16.015   6.792  21.054  0.00  0.00    -0.056 NA
ATOM     16  C   UNL     1      14.745   7.579  19.432  0.00  0.00    +0.245 A 
ATOM     20  C   UNL     1      16.355   8.021  20.653  0.00  0.00    +0.205 A 
ENDROOT
BRANCH  20  24
ATOM      9  N   UNL     1      18.958   6.905  20.858  0.00  0.00    -0.326 N 
ATOM     10  N   UNL     1      19.775   8.877  21.880  0.00  0.00    -0.240 NA
ATOM     24  C   UNL     1      17.449   8.747  21.232  0.00  0.00    +0.062 A 
ATOM     25  C   UNL     1      18.725   8.217  21.340  0.00  0.00    +0.130 A 
ATOM     26  C   UNL     1      17.236  10.036  21.710  0.00  0.00    +0.016 A 
ATOM     28  C   UNL     1      18.292  10.745  22.272  0.00  0.00    +0.020 A 
ATOM     30  C   UNL     1      19.530  10.127  22.333  0.00  0.00    +0.113 A 
ATOM     33  H   UNL     1      18.311   6.565  20.154  0.00  0.00    +0.148 HD
BRANCH   9  29
ATOM     29  C   UNL     1      20.236   6.277  20.925  0.00  0.00    +0.131 C 
BRANCH  29  31
ATOM     31  C   UNL     1      20.170   4.892  20.303  0.00  0.00    +0.178 C 
BRANCH  31   5
ATOM      5  O   UNL     1      21.224   4.090  20.821  0.00  0.00    -0.381 OA
ATOM     32  C   UNL     1      21.662   4.562  22.087  0.00  0.00    +0.194 C 
ENDBRANCH  31   5
ENDBRANCH  29  31
ENDBRANCH   9  29
ENDBRANCH  20  24
BRANCH  16  11
ATOM      6  N   UNL     1      12.559   8.511  18.692  0.00  0.00    -0.287 NA
ATOM     11  C   UNL     1      13.608   7.505  18.434  0.00  0.00    +0.146 C 
ATOM     12  C   UNL     1      14.066   7.778  16.990  0.00  0.00    +0.030 C 
ATOM     13  C   UNL     1      13.178   8.913  16.500  0.00  0.00    +0.017 C 
ATOM     14  C   UNL     1      11.960   8.825  17.395  0.00  0.00    +0.085 C 
BRANCH   6  15
ATOM     15  C   UNL     1      11.566   8.070  19.664  0.00  0.00    +0.120 C 
BRANCH  15  17
ATOM     17  C   UNL     1      11.460   9.020  20.827  0.00  0.00    -0.033 A 
ATOM     18  C   UNL     1      12.053  10.279  20.756  0.00  0.00    +0.007 A 
ATOM     19  C   UNL     1      10.767   8.639  21.977  0.00  0.00    +0.007 A 
ATOM     21  C   UNL     1      11.955  11.159  21.835  0.00  0.00    +0.027 A 
ATOM     22  C   UNL     1      10.668   9.518  23.055  0.00  0.00    +0.027 A 
ATOM     23  C   UNL     1      11.262  10.778  22.984  0.00  0.00    +0.088 A 
BRANCH  23   1
ATOM      1  S   UNL     1      11.136  11.881  24.332  0.00  0.00    -0.006 S 
ATOM      3  O   UNL     1       9.961  12.722  24.146  0.00  0.00    -0.170 OA
ATOM      4  O   UNL     1      11.286  11.107  25.557  0.00  0.00    -0.170 OA
ATOM     27  C   UNL     1      12.559  12.936  24.175  0.00  0.00    +0.200 C 
ENDBRANCH  23   1
ENDBRANCH  15  17
ENDBRANCH   6  15
ENDBRANCH  16  11
TORSDOF 8
ENDMDL
MODEL 2
REMARK VINA RESULT:      -7.1      1.798      3.697
REMARK  Name = 45783404
REMARK  10 active torsions:
REMARK  status: ('A' for Active; 'I' for Inactive)
REMARK    1  A    between atoms: S_1  and  C_23
REMARK    2  A    between atoms: S_1  and  C_27
REMARK    3  A    between atoms: O_5  and  C_31
REMARK    4  A    between atoms: O_5  and  C_32
REMARK    5  A    between atoms: N_6  and  C_15
REMARK    6  A    between atoms: N_9  and  C_29
REMARK    7  A    between atoms: C_11  and  C_16
REMARK    8  A    between atoms: C_15  and  C_17
REMARK    9  A    between atoms: C_20  and  C_24
REMARK   10  A    between atoms: C_29  and  C_31
REMARK                            x       y       z     vdW  Elec       q    Type
REMARK                         _______ _______ _______ _____ _____    ______ ____
ROOT
ATOM      2  O   UNL     1      14.019   6.594  20.288  0.00  0.00    -0.336 OA
ATOM      7  N   UNL     1      15.656   7.780  19.323  0.00  0.00    -0.190 NA
ATOM      8  N   UNL     1      15.119   6.512  21.151  0.00  0.00    -0.056 NA
ATOM     16  C   UNL     1      14.420   7.357  19.238  0.00  0.00    +0.245 A 
ATOM     20  C   UNL     1      16.044   7.237  20.513  0.00  0.00    +0.205 A 
ENDROOT
BRANCH  20  24
ATOM      9  N   UNL     1      16.873   9.728  21.595  0.00  0.00    -0.326 N 
ATOM     10  N   UNL     1      19.023   8.860  22.069  0.00  0.00    -0.240 NA
ATOM     24  C   UNL     1      17.364   7.435  21.036  0.00  0.00    +0.062 A 
ATOM     25  C   UNL     1      17.785   8.643  21.568  0.00  0.00    +0.130 A 
ATOM     26  C   UNL     1      18.272   6.381  21.017  0.00  0.00    +0.016 A 
ATOM     28  C   UNL     1      19.553   6.566  21.523  0.00  0.00    +0.020 A 
ATOM     30  C   UNL     1      19.876   7.812  22.033  0.00  0.00    +0.113 A 
ATOM     33  H   UNL     1      15.888   9.484  21.571  0.00  0.00    +0.148 HD
BRANCH   9  29
ATOM     29  C   UNL     1      17.215  11.008  22.122  0.00  0.00    +0.131 C 
BRANCH  29  31
ATOM     31  C   UNL     1      16.023  11.608  22.849  0.00  0.00    +0.178 C 
BRANCH  31   5
ATOM      5  O   UNL     1      16.102  13.027  22.797  0.00  0.00    -0.381 OA
ATOM     32  C   UNL     1      14.989  13.585  22.112  0.00  0.00    +0.194 C 
ENDBRANCH  31   5
ENDBRANCH  29  31
ENDBRANCH   9  29
ENDBRANCH  20  24
BRANCH  16  11
ATOM      6  N   UNL     1      12.559   8.789  18.411  0.00  0.00    -0.287 NA
ATOM     11  C   UNL     1      13.394   7.600  18.149  0.00  0.00    +0.146 C 
ATOM     12  C   UNL     1      14.038   7.868  16.776  0.00  0.00    +0.030 C 
ATOM     13  C   UNL     1      13.458   9.199  16.319  0.00  0.00    +0.017 C 
ATOM     14  C   UNL     1      12.167   9.314  17.103  0.00  0.00    +0.085 C 
BRANCH   6  15
ATOM     15  C   UNL     1      11.406   8.507  19.257  0.00  0.00    +0.120 C 
BRANCH  15  17
ATOM     17  C   UNL     1      11.449   9.290  20.543  0.00  0.00    -0.033 A 
ATOM     18  C   UNL     1      10.824   8.791  21.684  0.00  0.00    +0.007 A 
ATOM     19  C   UNL     1      12.115  10.515  20.590  0.00  0.00    +0.007 A 
ATOM     21  C   UNL     1      10.863   9.517  22.875  0.00  0.00    +0.027 A 
ATOM     22  C   UNL     1      12.154  11.241  21.781  0.00  0.00    +0.027 A 
ATOM     23  C   UNL     1      11.528  10.741  22.923  0.00  0.00    +0.088 A 
BRANCH  23   1
ATOM      1  S   UNL     1      11.581  11.648  24.415  0.00  0.00    -0.006 S 
ATOM      3  O   UNL     1      10.895  10.889  25.452  0.00  0.00    -0.170 OA
ATOM      4  O   UNL     1      12.954  12.084  24.625  0.00  0.00    -0.170 OA
ATOM     27  C   UNL     1      10.593  13.091  24.089  0.00  0.00    +0.200 C 
ENDBRANCH  23   1
ENDBRANCH  15  17
ENDBRANCH   6  15
ENDBRANCH  16  11
TORSDOF 8
ENDMDL
MODEL 3
REMARK VINA RESULT:      -6.5      3.080      5.323
REMARK  Name = 45783404
REMARK  10 active torsions:
REMARK  status: ('A' for Active; 'I' for Inactive)
REMARK    1  A    between atoms: S_1  and  C_23
REMARK    2  A    between atoms: S_1  and  C_27
REMARK    3  A    between atoms: O_5  and  C_31
REMARK    4  A    between atoms: O_5  and  C_32
REMARK    5  A    between atoms: N_6  and  C_15
REMARK    6  A    between atoms: N_9  and  C_29
REMARK    7  A    between atoms: C_11  and  C_16
REMARK    8  A    between atoms: C_15  and  C_17
REMARK    9  A    between atoms: C_20  and  C_24
REMARK   10  A    between atoms: C_29  and  C_31
REMARK                            x       y       z     vdW  Elec       q    Type
REMARK                         _______ _______ _______ _____ _____    ______ ____
ROOT
ATOM      2  O   UNL     1      16.822  11.517  21.966  0.00  0.00    -0.336 OA
ATOM      7  N   UNL     1      15.333   9.845  21.927  0.00  0.00    -0.190 NA
ATOM      8  N   UNL     1      17.424  10.478  21.246  0.00  0.00    -0.056 NA
ATOM     16  C   UNL     1      15.595  11.062  22.331  0.00  0.00    +0.245 A 
ATOM     20  C   UNL     1      16.483   9.528  21.266  0.00  0.00    +0.205 A 
ENDROOT
BRANCH  20  24
ATOM      9  N   UNL     1      18.660   7.824  21.918  0.00  0.00    -0.326 N 
ATOM     10  N   UNL     1      17.914   6.200  20.368  0.00  0.00    -0.240 NA
ATOM     24  C   UNL     1      16.663   8.251  20.637  0.00  0.00    +0.062 A 
ATOM     25  C   UNL     1      17.719   7.408  20.943  0.00  0.00    +0.130 A 
ATOM     26  C   UNL     1      15.748   7.827  19.678  0.00  0.00    +0.016 A 
ATOM     28  C   UNL     1      15.916   6.591  19.065  0.00  0.00    +0.020 A 
ATOM     30  C   UNL     1      17.005   5.822  19.442  0.00  0.00    +0.113 A 
ATOM     33  H   UNL     1      18.335   8.517  22.586  0.00  0.00    +0.148 HD
BRANCH   9  29
ATOM     29  C   UNL     1      19.778   7.026  22.299  0.00  0.00    +0.131 C 
BRANCH  29  31
ATOM     31  C   UNL     1      20.265   7.436  23.679  0.00  0.00    +0.178 C 
BRANCH  31   5
ATOM      5  O   UNL     1      20.914   6.332  24.299  0.00  0.00    -0.381 OA
ATOM     32  C   UNL     1      21.966   5.826  23.488  0.00  0.00    +0.194 C 
ENDBRANCH  31   5
ENDBRANCH  29  31
ENDBRANCH   9  29
ENDBRANCH  20  24
BRANCH  16  11
ATOM      6  N   UNL     1      13.298  11.670  23.072  0.00  0.00    -0.287 NA
ATOM     11  C   UNL     1      14.732  12.016  23.132  0.00  0.00    +0.146 C 
ATOM     12  C   UNL     1      15.074  12.007  24.633  0.00  0.00    +0.030 C 
ATOM     13  C   UNL     1      13.759  11.708  25.338  0.00  0.00    +0.017 C 
ATOM     14  C   UNL     1      12.710  12.129  24.330  0.00  0.00    +0.085 C 
BRANCH   6  15
ATOM     15  C   UNL     1      12.619  12.234  21.911  0.00  0.00    +0.120 C 
BRANCH  15  17
ATOM     17  C   UNL     1      12.559  11.256  20.768  0.00  0.00    -0.033 A 
ATOM     18  C   UNL     1      13.212  11.542  19.570  0.00  0.00    +0.007 A 
ATOM     19  C   UNL     1      11.848  10.064  20.907  0.00  0.00    +0.007 A 
ATOM     21  C   UNL     1      13.155  10.637  18.510  0.00  0.00    +0.027 A 
ATOM     22  C   UNL     1      11.792   9.158  19.848  0.00  0.00    +0.027 A 
ATOM     23  C   UNL     1      12.445   9.445  18.650  0.00  0.00    +0.088 A 
BRANCH  23   1
ATOM      1  S   UNL     1      12.377   8.309  17.325  0.00  0.00    -0.006 S 
ATOM      3  O   UNL     1      13.584   8.449  16.521  0.00  0.00    -0.170 OA
ATOM      4  O   UNL     1      12.017   7.007  17.869  0.00  0.00    -0.170 OA
ATOM     27  C   UNL     1      11.020   8.878  16.325  0.00  0.00    +0.200 C 
ENDBRANCH  23   1
ENDBRANCH  15  17
ENDBRANCH   6  15
ENDBRANCH  16  11
TORSDOF 8
ENDMDL
MODEL 4
REMARK VINA RESULT:      -6.5     28.084     30.040
REMARK  Name = 45783404
REMARK  10 active torsions:
REMARK  status: ('A' for Active; 'I' for Inactive)
REMARK    1  A    between atoms: S_1  and  C_23
REMARK    2  A    between atoms: S_1  and  C_27
REMARK    3  A    between atoms: O_5  and  C_31
REMARK    4  A    between atoms: O_5  and  C_32
REMARK    5  A    between atoms: N_6  and  C_15
REMARK    6  A    between atoms: N_9  and  C_29
REMARK    7  A    between atoms: C_11  and  C_16
REMARK    8  A    between atoms: C_15  and  C_17
REMARK    9  A    between atoms: C_20  and  C_24
REMARK   10  A    between atoms: C_29  and  C_31
REMARK                            x       y       z     vdW  Elec       q    Type
REMARK                         _______ _______ _______ _____ _____    ______ ____
ROOT
ATOM      2  O   UNL     1      -7.719  -9.978  11.674  0.00  0.00    -0.336 OA
ATOM      7  N   UNL     1      -5.777  -9.190  12.463  0.00  0.00    -0.190 NA
ATOM      8  N   UNL     1      -7.661 -10.364  13.019  0.00  0.00    -0.056 NA
ATOM     16  C   UNL     1      -6.572  -9.293  11.428  0.00  0.00    +0.245 A 
ATOM     20  C   UNL     1      -6.487  -9.861  13.415  0.00  0.00    +0.205 A 
ENDROOT
BRANCH  20  24
ATOM      9  N   UNL     1      -8.060  -9.192  15.682  0.00  0.00    -0.326 N 
ATOM     10  N   UNL     1      -6.310  -9.828  17.143  0.00  0.00    -0.240 NA
ATOM     24  C   UNL     1      -5.994 -10.015  14.753  0.00  0.00    +0.062 A 
ATOM     25  C   UNL     1      -6.748  -9.693  15.870  0.00  0.00    +0.130 A 
ATOM     26  C   UNL     1      -4.708 -10.506  14.955  0.00  0.00    +0.016 A 
ATOM     28  C   UNL     1      -4.224 -10.658  16.249  0.00  0.00    +0.020 A 
ATOM     30  C   UNL     1      -5.057 -10.308  17.299  0.00  0.00    +0.113 A 
ATOM     33  H   UNL     1      -8.507  -9.428  14.802  0.00  0.00    +0.148 HD
BRANCH   9  29
ATOM     29  C   UNL     1      -8.910  -8.834  16.770  0.00  0.00    +0.131 C 
BRANCH  29  31
ATOM     31  C   UNL     1     -10.183  -8.189  16.246  0.00  0.00    +0.178 C 
BRANCH  31   5
ATOM      5  O   UNL     1      -9.878  -6.906  15.714  0.00  0.00    -0.381 OA
ATOM     32  C   UNL     1     -10.995  -6.031  15.794  0.00  0.00    +0.194 C 
ENDBRANCH  31   5
ENDBRANCH  29  31
ENDBRANCH   9  29
ENDBRANCH  20  24
BRANCH  16  11
ATOM      6  N   UNL     1      -5.696  -9.717   9.137  0.00  0.00    -0.287 NA
ATOM     11  C   UNL     1      -6.392  -8.761  10.021  0.00  0.00    +0.146 C 
ATOM     12  C   UNL     1      -7.732  -8.481   9.316  0.00  0.00    +0.030 C 
ATOM     13  C   UNL     1      -7.672  -9.274   8.019  0.00  0.00    +0.017 C 
ATOM     14  C   UNL     1      -6.187  -9.461   7.783  0.00  0.00    +0.085 C 
BRANCH   6  15
ATOM     15  C   UNL     1      -4.244  -9.625   9.221  0.00  0.00    +0.120 C 
BRANCH  15  17
ATOM     17  C   UNL     1      -3.687 -10.513  10.302  0.00  0.00    -0.033 A 
ATOM     18  C   UNL     1      -4.160 -11.816  10.447  0.00  0.00    +0.007 A 
ATOM     19  C   UNL     1      -2.695 -10.031  11.157  0.00  0.00    +0.007 A 
ATOM     21  C   UNL     1      -3.644 -12.638  11.449  0.00  0.00    +0.027 A 
ATOM     22  C   UNL     1      -2.179 -10.854  12.158  0.00  0.00    +0.027 A 
ATOM     23  C   UNL     1      -2.653 -12.157  12.304  0.00  0.00    +0.088 A 
BRANCH  23   1
ATOM      1  S   UNL     1      -2.005 -13.188  13.555  0.00  0.00    -0.006 S 
ATOM      3  O   UNL     1      -1.263 -14.277  12.933  0.00  0.00    -0.170 OA
ATOM      4  O   UNL     1      -1.351 -12.338  14.541  0.00  0.00    -0.170 OA
ATOM     27  C   UNL     1      -3.438 -13.909  14.321  0.00  0.00    +0.200 C 
ENDBRANCH  23   1
ENDBRANCH  15  17
ENDBRANCH   6  15
ENDBRANCH  16  11
TORSDOF 8
ENDMDL
MODEL 5
REMARK VINA RESULT:      -6.3     17.801     21.868
REMARK  Name = 45783404
REMARK  10 active torsions:
REMARK  status: ('A' for Active; 'I' for Inactive)
REMARK    1  A    between atoms: S_1  and  C_23
REMARK    2  A    between atoms: S_1  and  C_27
REMARK    3  A    between atoms: O_5  and  C_31
REMARK    4  A    between atoms: O_5  and  C_32
REMARK    5  A    between atoms: N_6  and  C_15
REMARK    6  A    between atoms: N_9  and  C_29
REMARK    7  A    between atoms: C_11  and  C_16
REMARK    8  A    between atoms: C_15  and  C_17
REMARK    9  A    between atoms: C_20  and  C_24
REMARK   10  A    between atoms: C_29  and  C_31
REMARK                            x       y       z     vdW  Elec       q    Type
REMARK                         _______ _______ _______ _____ _____    ______ ____
ROOT
ATOM      2  O   UNL     1      11.570   3.152   2.611  0.00  0.00    -0.336 OA
ATOM      7  N   UNL     1      11.960   5.336   2.302  0.00  0.00    -0.190 NA
ATOM      8  N   UNL     1      10.567   3.830   3.315  0.00  0.00    -0.056 NA
ATOM     16  C   UNL     1      12.347   4.112   2.045  0.00  0.00    +0.245 A 
ATOM     20  C   UNL     1      10.865   5.113   3.084  0.00  0.00    +0.205 A 
ENDROOT
BRANCH  20  24
ATOM      9  N   UNL     1      10.640   5.555   5.881  0.00  0.00    -0.326 N 
ATOM     10  N   UNL     1       9.248   7.433   5.519  0.00  0.00    -0.240 NA
ATOM     24  C   UNL     1      10.090   6.193   3.622  0.00  0.00    +0.062 A 
ATOM     25  C   UNL     1       9.970   6.423   4.983  0.00  0.00    +0.130 A 
ATOM     26  C   UNL     1       9.426   7.055   2.755  0.00  0.00    +0.016 A 
ATOM     28  C   UNL     1       8.674   8.105   3.269  0.00  0.00    +0.020 A 
ATOM     30  C   UNL     1       8.617   8.250   4.646  0.00  0.00    +0.113 A 
ATOM     33  H   UNL     1      11.439   5.055   5.506  0.00  0.00    +0.148 HD
BRANCH   9  29
ATOM     29  C   UNL     1      10.576   5.712   7.296  0.00  0.00    +0.131 C 
BRANCH  29  31
ATOM     31  C   UNL     1       9.805   4.557   7.914  0.00  0.00    +0.178 C 
BRANCH  31   5
ATOM      5  O   UNL     1      10.187   4.409   9.276  0.00  0.00    -0.381 OA
ATOM     32  C   UNL     1       9.093   4.643  10.152  0.00  0.00    +0.194 C 
ENDBRANCH  31   5
ENDBRANCH  29  31
ENDBRANCH   9  29
ENDBRANCH  20  24
BRANCH  16  11
ATOM      6  N   UNL     1      13.345   3.898  -0.225  0.00  0.00    -0.287 NA
ATOM     11  C   UNL     1      13.519   3.630   1.216  0.00  0.00    +0.146 C 
ATOM     12  C   UNL     1      14.839   4.332   1.588  0.00  0.00    +0.030 C 
ATOM     13  C   UNL     1      15.361   4.913   0.282  0.00  0.00    +0.017 C 
ATOM     14  C   UNL     1      14.688   4.067  -0.780  0.00  0.00    +0.085 C 
BRANCH   6  15
ATOM     15  C   UNL     1      12.592   2.859  -0.916  0.00  0.00    +0.120 C 
BRANCH  15  17
ATOM     17  C   UNL     1      11.701   3.429  -1.988  0.00  0.00    -0.033 A 
ATOM     18  C   UNL     1      11.114   2.586  -2.929  0.00  0.00    +0.007 A 
ATOM     19  C   UNL     1      11.464   4.803  -2.037  0.00  0.00    +0.007 A 
ATOM     21  C   UNL     1      10.289   3.115  -3.922  0.00  0.00    +0.027 A 
ATOM     22  C   UNL     1      10.638   5.332  -3.029  0.00  0.00    +0.027 A 
ATOM     23  C   UNL     1      10.051   4.487  -3.971  0.00  0.00    +0.088 A 
BRANCH  23   1
ATOM      1  S   UNL     1       9.015   5.149  -5.212  0.00  0.00    -0.006 S 
ATOM      3  O   UNL     1       9.487   6.483  -5.558  0.00  0.00    -0.170 OA
ATOM      4  O   UNL     1       8.863   4.142  -6.253  0.00  0.00    -0.170 OA
ATOM     27  C   UNL     1       7.439   5.349  -4.412  0.00  0.00    +0.200 C 
ENDBRANCH  23   1
ENDBRANCH  15  17
ENDBRANCH   6  15
ENDBRANCH  16  11
TORSDOF 8
ENDMDL
MODEL 6
REMARK VINA RESULT:      -6.2     26.305     29.466
REMARK  Name = 45783404
REMARK  10 active torsions:
REMARK  status: ('A' for Active; 'I' for Inactive)
REMARK    1  A    between atoms: S_1  and  C_23
REMARK    2  A    between atoms: S_1  and  C_27
REMARK    3  A    between atoms: O_5  and  C_31
REMARK    4  A    between atoms: O_5  and  C_32
REMARK    5  A    between atoms: N_6  and  C_15
REMARK    6  A    between atoms: N_9  and  C_29
REMARK    7  A    between atoms: C_11  and  C_16
REMARK    8  A    between atoms: C_15  and  C_17
REMARK    9  A    between atoms: C_20  and  C_24
REMARK   10  A    between atoms: C_29  and  C_31
REMARK                            x       y       z     vdW  Elec       q    Type
REMARK                         _______ _______ _______ _____ _____    ______ ____
ROOT
ATOM      2  O   UNL     1     -11.806   6.669  20.888  0.00  0.00    -0.336 OA
ATOM      7  N   UNL     1     -14.000   7.114  20.984  0.00  0.00    -0.190 NA
ATOM      8  N   UNL     1     -12.377   5.646  21.654  0.00  0.00    -0.056 NA
ATOM     16  C   UNL     1     -12.829   7.491  20.534  0.00  0.00    +0.245 A 
ATOM     20  C   UNL     1     -13.672   5.978  21.665  0.00  0.00    +0.205 A 
ENDROOT
BRANCH  20  24
ATOM      9  N   UNL     1     -16.105   5.210  20.416  0.00  0.00    -0.326 N 
ATOM     10  N   UNL     1     -16.807   4.079  22.372  0.00  0.00    -0.240 NA
ATOM     24  C   UNL     1     -14.663   5.197  22.348  0.00  0.00    +0.062 A 
ATOM     25  C   UNL     1     -15.855   4.814  21.754  0.00  0.00    +0.130 A 
ATOM     26  C   UNL     1     -14.433   4.800  23.661  0.00  0.00    +0.016 A 
ATOM     28  C   UNL     1     -15.389   4.043  24.329  0.00  0.00    +0.020 A 
ATOM     30  C   UNL     1     -16.548   3.711  23.647  0.00  0.00    +0.113 A 
ATOM     33  H   UNL     1     -15.288   5.426  19.854  0.00  0.00    +0.148 HD
BRANCH   9  29
ATOM     29  C   UNL     1     -17.301   4.864  19.721  0.00  0.00    +0.131 C 
BRANCH  29  31
ATOM     31  C   UNL     1     -17.622   5.921  18.677  0.00  0.00    +0.178 C 
BRANCH  31   5
ATOM      5  O   UNL     1     -16.492   6.765  18.496  0.00  0.00    -0.381 OA
ATOM     32  C   UNL     1     -16.711   7.711  17.459  0.00  0.00    +0.194 C 
ENDBRANCH  31   5
ENDBRANCH  29  31
ENDBRANCH   9  29
ENDBRANCH  20  24
BRANCH  16  11
ATOM      6  N   UNL     1     -11.918   9.806  20.487  0.00  0.00    -0.287 NA
ATOM     11  C   UNL     1     -12.468   8.694  19.687  0.00  0.00    +0.146 C 
ATOM     12  C   UNL     1     -11.375   8.381  18.648  0.00  0.00    +0.030 C 
ATOM     13  C   UNL     1     -10.280   9.407  18.903  0.00  0.00    +0.017 C 
ATOM     14  C   UNL     1     -11.005  10.535  19.607  0.00  0.00    +0.085 C 
BRANCH   6  15
ATOM     15  C   UNL     1     -12.947  10.672  21.050  0.00  0.00    +0.120 C 
BRANCH  15  17
ATOM     17  C   UNL     1     -12.886  10.710  22.554  0.00  0.00    -0.033 A 
ATOM     18  C   UNL     1     -13.869  10.070  23.308  0.00  0.00    +0.007 A 
ATOM     19  C   UNL     1     -11.846  11.386  23.193  0.00  0.00    +0.007 A 
ATOM     21  C   UNL     1     -13.813  10.106  24.701  0.00  0.00    +0.027 A 
ATOM     22  C   UNL     1     -11.790  11.421  24.586  0.00  0.00    +0.027 A 
ATOM     23  C   UNL     1     -12.774  10.781  25.340  0.00  0.00    +0.088 A 
BRANCH  23   1
ATOM      1  S   UNL     1     -12.702  10.823  27.084  0.00  0.00    -0.006 S 
ATOM      3  O   UNL     1     -12.348  12.170  27.510  0.00  0.00    -0.170 OA
ATOM      4  O   UNL     1     -13.912  10.197  27.597  0.00  0.00    -0.170 OA
ATOM     27  C   UNL     1     -11.327   9.772  27.495  0.00  0.00    +0.200 C 
ENDBRANCH  23   1
ENDBRANCH  15  17
ENDBRANCH   6  15
ENDBRANCH  16  11
TORSDOF 8
ENDMDL
MODEL 7
REMARK VINA RESULT:      -6.2      3.800      5.938
REMARK  Name = 45783404
REMARK  10 active torsions:
REMARK  status: ('A' for Active; 'I' for Inactive)
REMARK    1  A    between atoms: S_1  and  C_23
REMARK    2  A    between atoms: S_1  and  C_27
REMARK    3  A    between atoms: O_5  and  C_31
REMARK    4  A    between atoms: O_5  and  C_32
REMARK    5  A    between atoms: N_6  and  C_15
REMARK    6  A    between atoms: N_9  and  C_29
REMARK    7  A    between atoms: C_11  and  C_16
REMARK    8  A    between atoms: C_15  and  C_17
REMARK    9  A    between atoms: C_20  and  C_24
REMARK   10  A    between atoms: C_29  and  C_31
REMARK                            x       y       z     vdW  Elec       q    Type
REMARK                         _______ _______ _______ _____ _____    ______ ____
ROOT
ATOM      2  O   UNL     1      13.969   8.412  16.495  0.00  0.00    -0.336 OA
ATOM      7  N   UNL     1      14.148  10.581  17.027  0.00  0.00    -0.190 NA
ATOM      8  N   UNL     1      14.099   9.100  15.282  0.00  0.00    -0.056 NA
ATOM     16  C   UNL     1      14.007   9.357  17.471  0.00  0.00    +0.245 A 
ATOM     20  C   UNL     1      14.200  10.373  15.679  0.00  0.00    +0.205 A 
ENDROOT
BRANCH  20  24
ATOM      9  N   UNL     1      16.661  11.758  15.379  0.00  0.00    -0.326 N 
ATOM     10  N   UNL     1      15.718  13.172  13.733  0.00  0.00    -0.240 NA
ATOM     24  C   UNL     1      14.352  11.459  14.755  0.00  0.00    +0.062 A 
ATOM     25  C   UNL     1      15.545  12.146  14.596  0.00  0.00    +0.130 A 
ATOM     26  C   UNL     1      13.267  11.852  13.979  0.00  0.00    +0.016 A 
ATOM     28  C   UNL     1      13.406  12.904  13.081  0.00  0.00    +0.020 A 
ATOM     30  C   UNL     1      14.641  13.525  12.996  0.00  0.00    +0.113 A 
ATOM     33  H   UNL     1      16.651  10.807  15.732  0.00  0.00    +0.148 HD
BRANCH   9  29
ATOM     29  C   UNL     1      17.929  12.404  15.285  0.00  0.00    +0.131 C 
BRANCH  29  31
ATOM     31  C   UNL     1      18.922  11.502  14.570  0.00  0.00    +0.178 C 
BRANCH  31   5
ATOM      5  O   UNL     1      20.241  11.822  14.994  0.00  0.00    -0.381 OA
ATOM     32  C   UNL     1      20.262  12.255  16.347  0.00  0.00    +0.194 C 
ENDBRANCH  31   5
ENDBRANCH  29  31
ENDBRANCH   9  29
ENDBRANCH  20  24
BRANCH  16  11
ATOM      6  N   UNL     1      12.850   7.820  19.049  0.00  0.00    -0.287 NA
ATOM     11  C   UNL     1      13.885   8.861  18.897  0.00  0.00    +0.146 C 
ATOM     12  C   UNL     1      15.180   8.203  19.410  0.00  0.00    +0.030 C 
ATOM     13  C   UNL     1      14.761   6.819  19.884  0.00  0.00    +0.017 C 
ATOM     14  C   UNL     1      13.279   6.969  20.159  0.00  0.00    +0.085 C 
BRANCH   6  15
ATOM     15  C   UNL     1      11.514   8.364  19.259  0.00  0.00    +0.120 C 
BRANCH  15  17
ATOM     17  C   UNL     1      11.429   9.168  20.529  0.00  0.00    -0.033 A 
ATOM     18  C   UNL     1      10.837   8.618  21.664  0.00  0.00    +0.007 A 
ATOM     19  C   UNL     1      11.942  10.464  20.568  0.00  0.00    +0.007 A 
ATOM     21  C   UNL     1      10.758   9.363  22.841  0.00  0.00    +0.027 A 
ATOM     22  C   UNL     1      11.864  11.210  21.744  0.00  0.00    +0.027 A 
ATOM     23  C   UNL     1      11.272  10.659  22.881  0.00  0.00    +0.088 A 
BRANCH  23   1
ATOM      1  S   UNL     1      11.176  11.591  24.354  0.00  0.00    -0.006 S 
ATOM      3  O   UNL     1      10.092  12.557  24.232  0.00  0.00    -0.170 OA
ATOM      4  O   UNL     1      11.193  10.660  25.474  0.00  0.00    -0.170 OA
ATOM     27  C   UNL     1      12.694  12.517  24.391  0.00  0.00    +0.200 C 
ENDBRANCH  23   1
ENDBRANCH  15  17
ENDBRANCH   6  15
ENDBRANCH  16  11
TORSDOF 8
ENDMDL
MODEL 8
REMARK VINA RESULT:      -6.2      4.565      8.712
REMARK  Name = 45783404
REMARK  10 active torsions:
REMARK  status: ('A' for Active; 'I' for Inactive)
REMARK    1  A    between atoms: S_1  and  C_23
REMARK    2  A    between atoms: S_1  and  C_27
REMARK    3  A    between atoms: O_5  and  C_31
REMARK    4  A    between atoms: O_5  and  C_32
REMARK    5  A    between atoms: N_6  and  C_15
REMARK    6  A    between atoms: N_9  and  C_29
REMARK    7  A    between atoms: C_11  and  C_16
REMARK    8  A    between atoms: C_15  and  C_17
REMARK    9  A    between atoms: C_20  and  C_24
REMARK   10  A    between atoms: C_29  and  C_31
REMARK                            x       y       z     vdW  Elec       q    Type
REMARK                         _______ _______ _______ _____ _____    ______ ____
ROOT
ATOM      2  O   UNL     1      14.372  10.551  18.155  0.00  0.00    -0.336 OA
ATOM      7  N   UNL     1      14.361   9.818  16.039  0.00  0.00    -0.190 NA
ATOM      8  N   UNL     1      15.015  11.538  17.398  0.00  0.00    -0.056 NA
ATOM     16  C   UNL     1      14.020   9.575  17.279  0.00  0.00    +0.245 A 
ATOM     20  C   UNL     1      14.968  11.034  16.161  0.00  0.00    +0.205 A 
ENDROOT
BRANCH  20  24
ATOM      9  N   UNL     1      13.334  12.419  14.298  0.00  0.00    -0.326 N 
ATOM     10  N   UNL     1      15.230  13.051  13.032  0.00  0.00    -0.240 NA
ATOM     24  C   UNL     1      15.521  11.717  15.028  0.00  0.00    +0.062 A 
ATOM     25  C   UNL     1      14.738  12.398  14.109  0.00  0.00    +0.130 A 
ATOM     26  C   UNL     1      16.898  11.706  14.828  0.00  0.00    +0.016 A 
ATOM     28  C   UNL     1      17.440  12.367  13.732  0.00  0.00    +0.020 A 
ATOM     30  C   UNL     1      16.572  13.018  12.872  0.00  0.00    +0.113 A 
ATOM     33  H   UNL     1      13.007  12.263  15.246  0.00  0.00    +0.148 HD
BRANCH   9  29
ATOM     29  C   UNL     1      12.448  13.093  13.407  0.00  0.00    +0.131 C 
BRANCH  29  31
ATOM     31  C   UNL     1      11.459  12.105  12.809  0.00  0.00    +0.178 C 
BRANCH  31   5
ATOM      5  O   UNL     1      10.157  12.678  12.814  0.00  0.00    -0.381 OA
ATOM     32  C   UNL     1      10.180  14.024  12.361  0.00  0.00    +0.194 C 
ENDBRANCH  31   5
ENDBRANCH  29  31
ENDBRANCH   9  29
ENDBRANCH  20  24
BRANCH  16  11
ATOM      6  N   UNL     1      14.009   7.785  19.009  0.00  0.00    -0.287 NA
ATOM     11  C   UNL     1      13.297   8.376  17.859  0.00  0.00    +0.146 C 
ATOM     12  C   UNL     1      11.900   8.731  18.403  0.00  0.00    +0.030 C 
ATOM     13  C   UNL     1      11.903   8.247  19.846  0.00  0.00    +0.017 C 
ATOM     14  C   UNL     1      12.985   7.188  19.866  0.00  0.00    +0.085 C 
BRANCH   6  15
ATOM     15  C   UNL     1      15.030   6.820  18.619  0.00  0.00    +0.120 C 
BRANCH  15  17
ATOM     17  C   UNL     1      16.265   6.935  19.472  0.00  0.00    -0.033 A 
ATOM     18  C   UNL     1      16.418   8.018  20.335  0.00  0.00    +0.007 A 
ATOM     19  C   UNL     1      17.257   5.957  19.397  0.00  0.00    +0.007 A 
ATOM     21  C   UNL     1      17.564   8.125  21.125  0.00  0.00    +0.027 A 
ATOM     22  C   UNL     1      18.402   6.063  20.187  0.00  0.00    +0.027 A 
ATOM     23  C   UNL     1      18.555   7.147  21.051  0.00  0.00    +0.088 A 
BRANCH  23   1
ATOM      1  S   UNL     1      19.987   7.279  22.042  0.00  0.00    -0.006 S 
ATOM      3  O   UNL     1      19.931   6.265  23.087  0.00  0.00    -0.170 OA
ATOM      4  O   UNL     1      21.140   7.342  21.155  0.00  0.00    -0.170 OA
ATOM     27  C   UNL     1      19.826   8.858  22.843  0.00  0.00    +0.200 C 
ENDBRANCH  23   1
ENDBRANCH  15  17
ENDBRANCH   6  15
ENDBRANCH  16  11
TORSDOF 8
ENDMDL
MODEL 9
REMARK VINA RESULT:      -6.2      3.295      6.961
REMARK  Name = 45783404
REMARK  10 active torsions:
REMARK  status: ('A' for Active; 'I' for Inactive)
REMARK    1  A    between atoms: S_1  and  C_23
REMARK    2  A    between atoms: S_1  and  C_27
REMARK    3  A    between atoms: O_5  and  C_31
REMARK    4  A    between atoms: O_5  and  C_32
REMARK    5  A    between atoms: N_6  and  C_15
REMARK    6  A    between atoms: N_9  and  C_29
REMARK    7  A    between atoms: C_11  and  C_16
REMARK    8  A    between atoms: C_15  and  C_17
REMARK    9  A    between atoms: C_20  and  C_24
REMARK   10  A    between atoms: C_29  and  C_31
REMARK                            x       y       z     vdW  Elec       q    Type
REMARK                         _______ _______ _______ _____ _____    ______ ____
ROOT
ATOM      2  O   UNL     1      20.075   4.388  20.442  0.00  0.00    -0.336 OA
ATOM      7  N   UNL     1      21.938   5.187  21.395  0.00  0.00    -0.190 NA
ATOM      8  N   UNL     1      20.858   3.272  20.762  0.00  0.00    -0.056 NA
ATOM     16  C   UNL     1      20.784   5.474  20.848  0.00  0.00    +0.245 A 
ATOM     20  C   UNL     1      21.939   3.825  21.321  0.00  0.00    +0.205 A 
ENDROOT
BRANCH  20  24
ATOM      9  N   UNL     1      22.921   4.112  23.970  0.00  0.00    -0.326 N 
ATOM     10  N   UNL     1      24.562   2.451  23.592  0.00  0.00    -0.240 NA
ATOM     24  C   UNL     1      23.038   3.045  21.812  0.00  0.00    +0.062 A 
ATOM     25  C   UNL     1      23.529   3.172  23.101  0.00  0.00    +0.130 A 
ATOM     26  C   UNL     1      23.646   2.117  20.972  0.00  0.00    +0.016 A 
ATOM     28  C   UNL     1      24.711   1.357  21.442  0.00  0.00    +0.020 A 
ATOM     30  C   UNL     1      25.128   1.560  22.747  0.00  0.00    +0.113 A 
ATOM     33  H   UNL     1      21.965   4.372  23.749  0.00  0.00    +0.148 HD
BRANCH   9  29
ATOM     29  C   UNL     1      23.356   4.314  25.313  0.00  0.00    +0.131 C 
BRANCH  29  31
ATOM     31  C   UNL     1      22.421   5.277  26.025  0.00  0.00    +0.178 C 
BRANCH  31   5
ATOM      5  O   UNL     1      21.518   5.843  25.084  0.00  0.00    -0.381 OA
ATOM     32  C   UNL     1      21.530   7.263  25.141  0.00  0.00    +0.194 C 
ENDBRANCH  31   5
ENDBRANCH  29  31
ENDBRANCH   9  29
ENDBRANCH  20  24
BRANCH  16  11
ATOM      6  N   UNL     1      18.688   6.817  20.865  0.00  0.00    -0.287 NA
ATOM     11  C   UNL     1      20.142   6.826  20.611  0.00  0.00    +0.146 C 
ATOM     12  C   UNL     1      20.696   7.918  21.546  0.00  0.00    +0.030 C 
ATOM     13  C   UNL     1      19.474   8.505  22.237  0.00  0.00    +0.017 C 
ATOM     14  C   UNL     1      18.336   8.169  21.296  0.00  0.00    +0.085 C 
BRANCH   6  15
ATOM     15  C   UNL     1      17.907   6.386  19.712  0.00  0.00    +0.120 C 
BRANCH  15  17
ATOM     17  C   UNL     1      16.432   6.606  19.921  0.00  0.00    -0.033 A 
ATOM     18  C   UNL     1      15.876   6.445  21.189  0.00  0.00    +0.007 A 
ATOM     19  C   UNL     1      15.622   6.970  18.845  0.00  0.00    +0.007 A 
ATOM     21  C   UNL     1      14.509   6.648  21.382  0.00  0.00    +0.027 A 
ATOM     22  C   UNL     1      14.256   7.173  19.038  0.00  0.00    +0.027 A 
ATOM     23  C   UNL     1      13.699   7.012  20.307  0.00  0.00    +0.088 A 
BRANCH  23   1
ATOM      1  S   UNL     1      11.989   7.270  20.549  0.00  0.00    -0.006 S 
ATOM      3  O   UNL     1      11.451   7.978  19.396  0.00  0.00    -0.170 OA
ATOM      4  O   UNL     1      11.400   6.003  20.961  0.00  0.00    -0.170 OA
ATOM     27  C   UNL     1      11.902   8.387  21.930  0.00  0.00    +0.200 C 
ENDBRANCH  23   1
ENDBRANCH  15  17
ENDBRANCH   6  15
ENDBRANCH  16  11
TORSDOF 8
ENDMDL
MODEL 10
REMARK VINA RESULT:      -6.1     27.278     30.006
REMARK  Name = 45783404
REMARK  10 active torsions:
REMARK  status: ('A' for Active; 'I' for Inactive)
REMARK    1  A    between atoms: S_1  and  C_23
REMARK    2  A    between atoms: S_1  and  C_27
REMARK    3  A    between atoms: O_5  and  C_31
REMARK    4  A    between atoms: O_5  and  C_32
REMARK    5  A    between atoms: N_6  and  C_15
REMARK    6  A    between atoms: N_9  and  C_29
REMARK    7  A    between atoms: C_11  and  C_16
REMARK    8  A    between atoms: C_15  and  C_17
REMARK    9  A    between atoms: C_20  and  C_24
REMARK   10  A    between atoms: C_29  and  C_31
REMARK                            x       y       z     vdW  Elec       q    Type
REMARK                         _______ _______ _______ _____ _____    ______ ____
ROOT
ATOM      2  O   UNL     1      -7.398 -11.760  16.369  0.00  0.00    -0.336 OA
ATOM      7  N   UNL     1      -5.934 -10.207  17.049  0.00  0.00    -0.190 NA
ATOM      8  N   UNL     1      -6.257 -11.925  15.573  0.00  0.00    -0.056 NA
ATOM     16  C   UNL     1      -7.124 -10.729  17.209  0.00  0.00    +0.245 A 
ATOM     20  C   UNL     1      -5.440 -10.973  16.034  0.00  0.00    +0.205 A 
ENDROOT
BRANCH  20  24
ATOM      9  N   UNL     1      -4.988 -10.571  13.260  0.00  0.00    -0.326 N 
ATOM     10  N   UNL     1      -2.659 -10.361  13.622  0.00  0.00    -0.240 NA
ATOM     24  C   UNL     1      -4.125 -10.761  15.502  0.00  0.00    +0.062 A 
ATOM     25  C   UNL     1      -3.887 -10.564  14.152  0.00  0.00    +0.130 A 
ATOM     26  C   UNL     1      -3.033 -10.751  16.364  0.00  0.00    +0.016 A 
ATOM     28  C   UNL     1      -1.755 -10.545  15.856  0.00  0.00    +0.020 A 
ATOM     30  C   UNL     1      -1.623 -10.357  14.490  0.00  0.00    +0.113 A 
ATOM     33  H   UNL     1      -5.893 -10.359  13.666  0.00  0.00    +0.148 HD
BRANCH   9  29
ATOM     29  C   UNL     1      -4.842 -10.376  11.855  0.00  0.00    +0.131 C 
BRANCH  29  31
ATOM     31  C   UNL     1      -5.534  -9.091  11.432  0.00  0.00    +0.178 C 
BRANCH  31   5
ATOM      5  O   UNL     1      -4.698  -8.378  10.530  0.00  0.00    -0.381 OA
ATOM     32  C   UNL     1      -3.617  -9.182  10.077  0.00  0.00    +0.194 C 
ENDBRANCH  31   5
ENDBRANCH  29  31
ENDBRANCH   9  29
ENDBRANCH  20  24
BRANCH  16  11
ATOM      6  N   UNL     1      -9.380  -9.726  17.526  0.00  0.00    -0.287 NA
ATOM     11  C   UNL     1      -8.216 -10.348  18.188  0.00  0.00    +0.146 C 
ATOM     12  C   UNL     1      -8.794 -11.564  18.936  0.00  0.00    +0.030 C 
ATOM     13  C   UNL     1     -10.294 -11.507  18.686  0.00  0.00    +0.017 C 
ATOM     14  C   UNL     1     -10.545 -10.052  18.349  0.00  0.00    +0.085 C 
BRANCH   6  15
ATOM     15  C   UNL     1      -9.231  -8.290  17.331  0.00  0.00    +0.120 C 
BRANCH  15  17
ATOM     17  C   UNL     1     -10.220  -7.754  16.330  0.00  0.00    -0.033 A 
ATOM     18  C   UNL     1     -10.448  -8.441  15.139  0.00  0.00    +0.007 A 
ATOM     19  C   UNL     1     -10.908  -6.570  16.595  0.00  0.00    +0.007 A 
ATOM     21  C   UNL     1     -11.364  -7.944  14.211  0.00  0.00    +0.027 A 
ATOM     22  C   UNL     1     -11.824  -6.073  15.668  0.00  0.00    +0.027 A 
ATOM     23  C   UNL     1     -12.052  -6.761  14.476  0.00  0.00    +0.088 A 
BRANCH  23   1
ATOM      1  S   UNL     1     -13.202  -6.141  13.317  0.00  0.00    -0.006 S 
ATOM      3  O   UNL     1     -13.144  -6.958  12.112  0.00  0.00    -0.170 OA
ATOM      4  O   UNL     1     -14.472  -5.952  14.003  0.00  0.00    -0.170 OA
ATOM     27  C   UNL     1     -12.571  -4.535  12.884  0.00  0.00    +0.200 C 
ENDBRANCH  23   1
ENDBRANCH  15  17
ENDBRANCH   6  15
ENDBRANCH  16  11
TORSDOF 8
ENDMDL
