MODEL 1
REMARK VINA RESULT:      -6.7      0.000      0.000
REMARK  Name = 26744058
REMARK  9 active torsions:
REMARK  status: ('A' for Active; 'I' for Inactive)
REMARK    1  A    between atoms: S_1  and  C_21
REMARK    2  A    between atoms: S_1  and  C_27
REMARK    3  A    between atoms: O_2  and  C_13
REMARK    4  A    between atoms: N_6  and  C_15
REMARK    5  A    between atoms: N_7  and  C_22
REMARK    6  A    between atoms: C_11  and  C_16
REMARK    7  A    between atoms: C_15  and  C_17
REMARK    8  A    between atoms: C_19  and  C_21
REMARK    9  A    between atoms: C_32  and  C_33
REMARK                            x       y       z     vdW  Elec       q    Type
REMARK                         _______ _______ _______ _____ _____    ______ ____
ROOT
ATOM      6  N   UNL     1      12.862  11.436  22.813  0.00  0.00    -0.282 NA
ATOM     11  C   UNL     1      12.120  10.182  23.048  0.00  0.00    +0.149 C 
ATOM     12  C   UNL     1      10.753  10.629  23.599  0.00  0.00    +0.061 C 
ATOM     13  C   UNL     1      10.839  12.148  23.682  0.00  0.00    +0.130 C 
ATOM     14  C   UNL     1      12.330  12.415  23.761  0.00  0.00    +0.117 C 
ENDROOT
BRANCH  11  16
ATOM      3  O   UNL     1      10.846   9.461  21.089  0.00  0.00    -0.336 OA
ATOM      8  N   UNL     1      12.850   8.481  21.288  0.00  0.00    -0.193 NA
ATOM     10  N   UNL     1      10.966   8.592  19.997  0.00  0.00    -0.060 NA
ATOM     16  C   UNL     1      11.998   9.334  21.798  0.00  0.00    +0.245 A 
ATOM     19  C   UNL     1      12.173   8.051  20.185  0.00  0.00    +0.193 A 
BRANCH  19  21
ATOM     21  C   UNL     1      12.731   7.057  19.262  0.00  0.00    +0.251 C 
BRANCH  21   1
ATOM      1  S   UNL     1      13.972   7.837  18.269  0.00  0.00    +0.004 S 
ATOM      4  O   UNL     1      13.736   9.268  18.317  0.00  0.00    -0.169 OA
ATOM      5  O   UNL     1      14.045   7.146  16.996  0.00  0.00    -0.169 OA
BRANCH   1  27
ATOM     27  C   UNL     1      15.478   7.501  19.131  0.00  0.00    +0.089 A 
ATOM     28  C   UNL     1      16.169   6.314  18.887  0.00  0.00    +0.027 A 
ATOM     29  C   UNL     1      15.972   8.420  20.056  0.00  0.00    +0.027 A 
ATOM     30  C   UNL     1      17.356   6.048  19.570  0.00  0.00    +0.005 A 
ATOM     31  C   UNL     1      17.158   8.152  20.738  0.00  0.00    +0.005 A 
ATOM     32  C   UNL     1      17.850   6.967  20.495  0.00  0.00    -0.050 A 
ATOM     33  C   UNL     1      19.120   6.680  21.224  0.00  0.00    +0.044 C 
ENDBRANCH   1  27
ENDBRANCH  21   1
ENDBRANCH  19  21
ENDBRANCH  11  16
BRANCH  13   2
ATOM      2  O   UNL     1      10.159  12.628  24.824  0.00  0.00    -0.390 OA
ATOM     34  H   UNL     1       9.321  13.019  24.523  0.00  0.00    +0.210 HD
ENDBRANCH  13   2
BRANCH   6  15
ATOM     15  C   UNL     1      14.306  11.282  22.937  0.00  0.00    +0.159 C 
BRANCH  15  17
ATOM      7  N   UNL     1      16.376  11.801  21.607  0.00  0.00    -0.330 N 
ATOM      9  N   UNL     1      14.452  11.862  20.496  0.00  0.00    -0.231 NA
ATOM     17  C   UNL     1      15.019  11.649  21.663  0.00  0.00    +0.125 A 
ATOM     18  C   UNL     1      16.708  12.133  20.319  0.00  0.00    +0.069 A 
ATOM     20  C   UNL     1      15.490  12.165  19.645  0.00  0.00    +0.089 A 
ATOM     22  C   UNL     1      17.301  11.640  22.707  0.00  0.00    +0.150 C 
ATOM     23  C   UNL     1      17.931  12.401  19.703  0.00  0.00    +0.028 A 
ATOM     24  C   UNL     1      15.472  12.480  18.276  0.00  0.00    +0.030 A 
ATOM     25  C   UNL     1      17.895  12.713  18.340  0.00  0.00    +0.002 A 
ATOM     26  C   UNL     1      16.689  12.753  17.638  0.00  0.00    +0.002 A 
ENDBRANCH  15  17
ENDBRANCH   6  15
TORSDOF 7
ENDMDL
MODEL 2
REMARK VINA RESULT:      -6.5     14.556     17.039
REMARK  Name = 26744058
REMARK  9 active torsions:
REMARK  status: ('A' for Active; 'I' for Inactive)
REMARK    1  A    between atoms: S_1  and  C_21
REMARK    2  A    between atoms: S_1  and  C_27
REMARK    3  A    between atoms: O_2  and  C_13
REMARK    4  A    between atoms: N_6  and  C_15
REMARK    5  A    between atoms: N_7  and  C_22
REMARK    6  A    between atoms: C_11  and  C_16
REMARK    7  A    between atoms: C_15  and  C_17
REMARK    8  A    between atoms: C_19  and  C_21
REMARK    9  A    between atoms: C_32  and  C_33
REMARK                            x       y       z     vdW  Elec       q    Type
REMARK                         _______ _______ _______ _____ _____    ______ ____
ROOT
ATOM      6  N   UNL     1      10.569   5.563   5.974  0.00  0.00    -0.282 NA
ATOM     11  C   UNL     1      10.841   6.700   6.875  0.00  0.00    +0.149 C 
ATOM     12  C   UNL     1      10.584   6.152   8.291  0.00  0.00    +0.061 C 
ATOM     13  C   UNL     1      10.127   4.714   8.080  0.00  0.00    +0.130 C 
ATOM     14  C   UNL     1       9.594   4.716   6.660  0.00  0.00    +0.117 C 
ENDROOT
BRANCH  11  16
ATOM      3  O   UNL     1      13.259   6.476   7.158  0.00  0.00    -0.336 OA
ATOM      8  N   UNL     1      12.626   8.391   6.184  0.00  0.00    -0.193 NA
ATOM     10  N   UNL     1      14.436   7.190   6.898  0.00  0.00    -0.060 NA
ATOM     16  C   UNL     1      12.241   7.254   6.707  0.00  0.00    +0.245 A 
ATOM     19  C   UNL     1      13.980   8.307   6.324  0.00  0.00    +0.193 A 
BRANCH  19  21
ATOM     21  C   UNL     1      14.881   9.374   5.875  0.00  0.00    +0.251 C 
BRANCH  21   1
ATOM      1  S   UNL     1      15.642   8.873   4.357  0.00  0.00    +0.004 S 
ATOM      4  O   UNL     1      15.606  10.009   3.454  0.00  0.00    -0.169 OA
ATOM      5  O   UNL     1      15.077   7.598   3.957  0.00  0.00    -0.169 OA
BRANCH   1  27
ATOM     27  C   UNL     1      17.326   8.579   4.803  0.00  0.00    +0.089 A 
ATOM     28  C   UNL     1      18.221   8.081   3.856  0.00  0.00    +0.027 A 
ATOM     29  C   UNL     1      17.759   8.841   6.103  0.00  0.00    +0.027 A 
ATOM     30  C   UNL     1      19.549   7.847   4.209  0.00  0.00    +0.005 A 
ATOM     31  C   UNL     1      19.087   8.606   6.455  0.00  0.00    +0.005 A 
ATOM     32  C   UNL     1      19.983   8.109   5.509  0.00  0.00    -0.050 A 
ATOM     33  C   UNL     1      21.404   7.858   5.885  0.00  0.00    +0.044 C 
ENDBRANCH   1  27
ENDBRANCH  21   1
ENDBRANCH  19  21
ENDBRANCH  11  16
BRANCH  13   2
ATOM      2  O   UNL     1       9.126   4.362   9.015  0.00  0.00    -0.390 OA
ATOM     34  H   UNL     1       9.080   5.076   9.675  0.00  0.00    +0.210 HD
ENDBRANCH  13   2
BRANCH   6  15
ATOM     15  C   UNL     1      10.106   5.973   4.654  0.00  0.00    +0.159 C 
BRANCH  15  17
ATOM      7  N   UNL     1      11.727   6.320   2.763  0.00  0.00    -0.330 N 
ATOM      9  N   UNL     1      11.221   4.211   3.251  0.00  0.00    -0.231 NA
ATOM     17  C   UNL     1      11.012   5.472   3.562  0.00  0.00    +0.125 A 
ATOM     18  C   UNL     1      12.446   5.557   1.879  0.00  0.00    +0.069 A 
ATOM     20  C   UNL     1      12.112   4.244   2.204  0.00  0.00    +0.089 A 
ATOM     22  C   UNL     1      11.730   7.764   2.835  0.00  0.00    +0.150 C 
ATOM     23  C   UNL     1      13.331   5.891   0.853  0.00  0.00    +0.028 A 
ATOM     24  C   UNL     1      12.687   3.191   1.474  0.00  0.00    +0.030 A 
ATOM     25  C   UNL     1      13.894   4.830   0.137  0.00  0.00    +0.002 A 
ATOM     26  C   UNL     1      13.579   3.503   0.439  0.00  0.00    +0.002 A 
ENDBRANCH  15  17
ENDBRANCH   6  15
TORSDOF 7
ENDMDL
MODEL 3
REMARK VINA RESULT:      -6.5     27.736     30.239
REMARK  Name = 26744058
REMARK  9 active torsions:
REMARK  status: ('A' for Active; 'I' for Inactive)
REMARK    1  A    between atoms: S_1  and  C_21
REMARK    2  A    between atoms: S_1  and  C_27
REMARK    3  A    between atoms: O_2  and  C_13
REMARK    4  A    between atoms: N_6  and  C_15
REMARK    5  A    between atoms: N_7  and  C_22
REMARK    6  A    between atoms: C_11  and  C_16
REMARK    7  A    between atoms: C_15  and  C_17
REMARK    8  A    between atoms: C_19  and  C_21
REMARK    9  A    between atoms: C_32  and  C_33
REMARK                            x       y       z     vdW  Elec       q    Type
REMARK                         _______ _______ _______ _____ _____    ______ ____
ROOT
ATOM      6  N   UNL     1      -8.020 -10.980  17.116  0.00  0.00    -0.282 NA
ATOM     11  C   UNL     1      -7.029 -10.074  17.730  0.00  0.00    +0.149 C 
ATOM     12  C   UNL     1      -7.324 -10.132  19.241  0.00  0.00    +0.061 C 
ATOM     13  C   UNL     1      -8.524 -11.061  19.372  0.00  0.00    +0.130 C 
ATOM     14  C   UNL     1      -9.180 -10.989  18.006  0.00  0.00    +0.117 C 
ENDROOT
BRANCH  11  16
ATOM      3  O   UNL     1      -4.984 -11.302  18.262  0.00  0.00    -0.336 OA
ATOM      8  N   UNL     1      -4.860 -10.090  16.382  0.00  0.00    -0.193 NA
ATOM     10  N   UNL     1      -3.695 -11.505  17.750  0.00  0.00    -0.060 NA
ATOM     16  C   UNL     1      -5.603 -10.457  17.396  0.00  0.00    +0.245 A 
ATOM     19  C   UNL     1      -3.700 -10.758  16.642  0.00  0.00    +0.193 A 
BRANCH  19  21
ATOM     21  C   UNL     1      -2.528 -10.663  15.764  0.00  0.00    +0.251 C 
BRANCH  21   1
ATOM      1  S   UNL     1      -2.657 -11.905  14.508  0.00  0.00    +0.004 S 
ATOM      4  O   UNL     1      -3.781 -12.758  14.850  0.00  0.00    -0.169 OA
ATOM      5  O   UNL     1      -1.342 -12.475  14.287  0.00  0.00    -0.169 OA
BRANCH   1  27
ATOM     27  C   UNL     1      -3.081 -10.995  13.054  0.00  0.00    +0.089 A 
ATOM     28  C   UNL     1      -4.414 -10.670  12.800  0.00  0.00    +0.027 A 
ATOM     29  C   UNL     1      -2.084 -10.604  12.160  0.00  0.00    +0.027 A 
ATOM     30  C   UNL     1      -4.748  -9.954  11.650  0.00  0.00    +0.005 A 
ATOM     31  C   UNL     1      -2.419  -9.889  11.012  0.00  0.00    +0.005 A 
ATOM     32  C   UNL     1      -3.751  -9.563  10.756  0.00  0.00    -0.050 A 
ATOM     33  C   UNL     1      -4.110  -8.797   9.528  0.00  0.00    +0.044 C 
ENDBRANCH   1  27
ENDBRANCH  21   1
ENDBRANCH  19  21
ENDBRANCH  11  16
BRANCH  13   2
ATOM      2  O   UNL     1      -9.393 -10.615  20.395  0.00  0.00    -0.390 OA
ATOM     34  H   UNL     1      -9.349 -11.263  21.119  0.00  0.00    +0.210 HD
ENDBRANCH  13   2
BRANCH   6  15
ATOM     15  C   UNL     1      -8.377 -10.605  15.754  0.00  0.00    +0.159 C 
BRANCH  15  17
ATOM      7  N   UNL     1     -10.722  -9.819  15.298  0.00  0.00    -0.330 N 
ATOM      9  N   UNL     1      -9.311  -8.297  16.096  0.00  0.00    -0.231 NA
ATOM     17  C   UNL     1      -9.452  -9.552  15.727  0.00  0.00    +0.125 A 
ATOM     18  C   UNL     1     -11.450  -8.661  15.396  0.00  0.00    +0.069 A 
ATOM     20  C   UNL     1     -10.547  -7.726  15.897  0.00  0.00    +0.089 A 
ATOM     22  C   UNL     1     -11.215 -11.093  14.825  0.00  0.00    +0.150 C 
ATOM     23  C   UNL     1     -12.780  -8.359  15.100  0.00  0.00    +0.028 A 
ATOM     24  C   UNL     1     -10.979  -6.408  16.120  0.00  0.00    +0.030 A 
ATOM     25  C   UNL     1     -13.192  -7.042  15.328  0.00  0.00    +0.002 A 
ATOM     26  C   UNL     1     -12.310  -6.083  15.829  0.00  0.00    +0.002 A 
ENDBRANCH  15  17
ENDBRANCH   6  15
TORSDOF 7
ENDMDL
MODEL 4
REMARK VINA RESULT:      -6.4     26.773     30.220
REMARK  Name = 26744058
REMARK  9 active torsions:
REMARK  status: ('A' for Active; 'I' for Inactive)
REMARK    1  A    between atoms: S_1  and  C_21
REMARK    2  A    between atoms: S_1  and  C_27
REMARK    3  A    between atoms: O_2  and  C_13
REMARK    4  A    between atoms: N_6  and  C_15
REMARK    5  A    between atoms: N_7  and  C_22
REMARK    6  A    between atoms: C_11  and  C_16
REMARK    7  A    between atoms: C_15  and  C_17
REMARK    8  A    between atoms: C_19  and  C_21
REMARK    9  A    between atoms: C_32  and  C_33
REMARK                            x       y       z     vdW  Elec       q    Type
REMARK                         _______ _______ _______ _____ _____    ______ ____
ROOT
ATOM      6  N   UNL     1      -3.316 -10.742  14.460  0.00  0.00    -0.282 NA
ATOM     11  C   UNL     1      -3.556 -11.253  15.825  0.00  0.00    +0.149 C 
ATOM     12  C   UNL     1      -2.336 -10.783  16.641  0.00  0.00    +0.061 C 
ATOM     13  C   UNL     1      -1.447 -10.058  15.639  0.00  0.00    +0.130 C 
ATOM     14  C   UNL     1      -1.866 -10.644  14.304  0.00  0.00    +0.117 C 
ENDROOT
BRANCH  11  16
ATOM      3  O   UNL     1      -5.341  -9.586  15.936  0.00  0.00    -0.336 OA
ATOM      8  N   UNL     1      -5.633 -11.332  17.308  0.00  0.00    -0.193 NA
ATOM     10  N   UNL     1      -6.546  -9.355  16.611  0.00  0.00    -0.060 NA
ATOM     16  C   UNL     1      -4.869 -10.771  16.405  0.00  0.00    +0.245 A 
ATOM     19  C   UNL     1      -6.649 -10.427  17.402  0.00  0.00    +0.193 A 
BRANCH  19  21
ATOM     21  C   UNL     1      -7.783 -10.615  18.312  0.00  0.00    +0.251 C 
BRANCH  21   1
ATOM      1  S   UNL     1      -9.189 -11.134  17.369  0.00  0.00    +0.004 S 
ATOM      4  O   UNL     1     -10.163 -11.680  18.297  0.00  0.00    -0.169 OA
ATOM      5  O   UNL     1      -8.724 -11.923  16.244  0.00  0.00    -0.169 OA
BRANCH   1  27
ATOM     27  C   UNL     1      -9.840  -9.628  16.714  0.00  0.00    +0.089 A 
ATOM     28  C   UNL     1     -10.142  -9.532  15.356  0.00  0.00    +0.027 A 
ATOM     29  C   UNL     1     -10.048  -8.534  17.555  0.00  0.00    +0.027 A 
ATOM     30  C   UNL     1     -10.653  -8.341  14.839  0.00  0.00    +0.005 A 
ATOM     31  C   UNL     1     -10.558  -7.344  17.037  0.00  0.00    +0.005 A 
ATOM     32  C   UNL     1     -10.861  -7.248  15.680  0.00  0.00    -0.050 A 
ATOM     33  C   UNL     1     -11.408  -5.975  15.125  0.00  0.00    +0.044 C 
ENDBRANCH   1  27
ENDBRANCH  21   1
ENDBRANCH  19  21
ENDBRANCH  11  16
BRANCH  13   2
ATOM      2  O   UNL     1      -0.081 -10.301  15.913  0.00  0.00    -0.390 OA
ATOM     34  H   UNL     1       0.439  -9.657  15.401  0.00  0.00    +0.210 HD
ENDBRANCH  13   2
BRANCH   6  15
ATOM     15  C   UNL     1      -3.925 -11.566  13.423  0.00  0.00    +0.159 C 
BRANCH  15  17
ATOM      7  N   UNL     1      -6.045 -10.679  12.402  0.00  0.00    -0.330 N 
ATOM      9  N   UNL     1      -4.144  -9.995  11.475  0.00  0.00    -0.231 NA
ATOM     17  C   UNL     1      -4.679 -10.736  12.420  0.00  0.00    +0.125 A 
ATOM     18  C   UNL     1      -6.416  -9.845  11.378  0.00  0.00    +0.069 A 
ATOM     20  C   UNL     1      -5.211  -9.431  10.814  0.00  0.00    +0.089 A 
ATOM     22  C   UNL     1      -6.941 -11.371  13.300  0.00  0.00    +0.150 C 
ATOM     23  C   UNL     1      -7.663  -9.430  10.910  0.00  0.00    +0.028 A 
ATOM     24  C   UNL     1      -5.234  -8.552   9.720  0.00  0.00    +0.030 A 
ATOM     25  C   UNL     1      -7.667  -8.555   9.819  0.00  0.00    +0.002 A 
ATOM     26  C   UNL     1      -6.476  -8.122   9.233  0.00  0.00    +0.002 A 
ENDBRANCH  15  17
ENDBRANCH   6  15
TORSDOF 7
ENDMDL
MODEL 5
REMARK VINA RESULT:      -6.4      3.234      6.767
REMARK  Name = 26744058
REMARK  9 active torsions:
REMARK  status: ('A' for Active; 'I' for Inactive)
REMARK    1  A    between atoms: S_1  and  C_21
REMARK    2  A    between atoms: S_1  and  C_27
REMARK    3  A    between atoms: O_2  and  C_13
REMARK    4  A    between atoms: N_6  and  C_15
REMARK    5  A    between atoms: N_7  and  C_22
REMARK    6  A    between atoms: C_11  and  C_16
REMARK    7  A    between atoms: C_15  and  C_17
REMARK    8  A    between atoms: C_19  and  C_21
REMARK    9  A    between atoms: C_32  and  C_33
REMARK                            x       y       z     vdW  Elec       q    Type
REMARK                         _______ _______ _______ _____ _____    ______ ____
ROOT
ATOM      6  N   UNL     1      12.989   8.440  20.832  0.00  0.00    -0.282 NA
ATOM     11  C   UNL     1      11.817   9.335  20.907  0.00  0.00    +0.149 C 
ATOM     12  C   UNL     1      10.701   8.473  21.529  0.00  0.00    +0.061 C 
ATOM     13  C   UNL     1      11.328   7.099  21.725  0.00  0.00    +0.130 C 
ATOM     14  C   UNL     1      12.463   7.080  20.719  0.00  0.00    +0.117 C 
ENDROOT
BRANCH  11  16
ATOM      3  O   UNL     1      11.242  11.634  21.509  0.00  0.00    -0.336 OA
ATOM      8  N   UNL     1      13.053  10.838  22.560  0.00  0.00    -0.193 NA
ATOM     10  N   UNL     1      11.698  12.668  22.338  0.00  0.00    -0.060 NA
ATOM     16  C   UNL     1      12.096  10.594  21.702  0.00  0.00    +0.245 A 
ATOM     19  C   UNL     1      12.768  12.122  22.923  0.00  0.00    +0.193 A 
BRANCH  19  21
ATOM     21  C   UNL     1      13.584  12.860  23.894  0.00  0.00    +0.251 C 
BRANCH  21   1
ATOM      1  S   UNL     1      12.756  12.844  25.460  0.00  0.00    +0.004 S 
ATOM      4  O   UNL     1      11.949  11.638  25.516  0.00  0.00    -0.169 OA
ATOM      5  O   UNL     1      12.151  14.144  25.675  0.00  0.00    -0.169 OA
BRANCH   1  27
ATOM     27  C   UNL     1      14.069  12.681  26.631  0.00  0.00    +0.089 A 
ATOM     28  C   UNL     1      15.032  11.686  26.464  0.00  0.00    +0.027 A 
ATOM     29  C   UNL     1      14.140  13.545  27.724  0.00  0.00    +0.027 A 
ATOM     30  C   UNL     1      16.066  11.556  27.390  0.00  0.00    +0.005 A 
ATOM     31  C   UNL     1      15.174  13.414  28.650  0.00  0.00    +0.005 A 
ATOM     32  C   UNL     1      16.137  12.420  28.483  0.00  0.00    -0.050 A 
ATOM     33  C   UNL     1      17.245  12.280  29.473  0.00  0.00    +0.044 C 
ENDBRANCH   1  27
ENDBRANCH  21   1
ENDBRANCH  19  21
ENDBRANCH  11  16
BRANCH  13   2
ATOM      2  O   UNL     1      10.385   6.076  21.470  0.00  0.00    -0.390 OA
ATOM     34  H   UNL     1      10.691   5.585  20.688  0.00  0.00    +0.210 HD
ENDBRANCH  13   2
BRANCH   6  15
ATOM     15  C   UNL     1      13.895   8.770  19.740  0.00  0.00    +0.159 C 
BRANCH  15  17
ATOM      7  N   UNL     1      16.166   8.312  20.719  0.00  0.00    -0.330 N 
ATOM      9  N   UNL     1      15.507   6.957  19.085  0.00  0.00    -0.231 NA
ATOM     17  C   UNL     1      15.181   7.993  19.826  0.00  0.00    +0.125 A 
ATOM     18  C   UNL     1      17.195   7.422  20.544  0.00  0.00    +0.069 A 
ATOM     20  C   UNL     1      16.759   6.586  19.518  0.00  0.00    +0.089 A 
ATOM     22  C   UNL     1      16.133   9.392  21.679  0.00  0.00    +0.150 C 
ATOM     23  C   UNL     1      18.432   7.280  21.175  0.00  0.00    +0.028 A 
ATOM     24  C   UNL     1      17.593   5.543  19.085  0.00  0.00    +0.030 A 
ATOM     25  C   UNL     1      19.249   6.236  20.730  0.00  0.00    +0.002 A 
ATOM     26  C   UNL     1      18.840   5.382  19.703  0.00  0.00    +0.002 A 
ENDBRANCH  15  17
ENDBRANCH   6  15
TORSDOF 7
ENDMDL
MODEL 6
REMARK VINA RESULT:      -6.4      2.794      6.261
REMARK  Name = 26744058
REMARK  9 active torsions:
REMARK  status: ('A' for Active; 'I' for Inactive)
REMARK    1  A    between atoms: S_1  and  C_21
REMARK    2  A    between atoms: S_1  and  C_27
REMARK    3  A    between atoms: O_2  and  C_13
REMARK    4  A    between atoms: N_6  and  C_15
REMARK    5  A    between atoms: N_7  and  C_22
REMARK    6  A    between atoms: C_11  and  C_16
REMARK    7  A    between atoms: C_15  and  C_17
REMARK    8  A    between atoms: C_19  and  C_21
REMARK    9  A    between atoms: C_32  and  C_33
REMARK                            x       y       z     vdW  Elec       q    Type
REMARK                         _______ _______ _______ _____ _____    ______ ____
ROOT
ATOM      6  N   UNL     1      13.026   7.992  21.116  0.00  0.00    -0.282 NA
ATOM     11  C   UNL     1      11.715   8.660  21.232  0.00  0.00    +0.149 C 
ATOM     12  C   UNL     1      10.719   7.525  21.538  0.00  0.00    +0.061 C 
ATOM     13  C   UNL     1      11.557   6.253  21.529  0.00  0.00    +0.130 C 
ATOM     14  C   UNL     1      12.756   6.624  20.677  0.00  0.00    +0.117 C 
ENDROOT
BRANCH  11  16
ATOM      3  O   UNL     1      10.496  10.067  22.817  0.00  0.00    -0.336 OA
ATOM      8  N   UNL     1      12.705  10.441  22.772  0.00  0.00    -0.193 NA
ATOM     10  N   UNL     1      10.740  11.081  23.753  0.00  0.00    -0.060 NA
ATOM     16  C   UNL     1      11.706   9.748  22.286  0.00  0.00    +0.245 A 
ATOM     19  C   UNL     1      12.064  11.246  23.667  0.00  0.00    +0.193 A 
BRANCH  19  21
ATOM     21  C   UNL     1      12.779  12.231  24.485  0.00  0.00    +0.251 C 
BRANCH  21   1
ATOM      1  S   UNL     1      12.331  13.855  23.938  0.00  0.00    +0.004 S 
ATOM      4  O   UNL     1      13.217  14.799  24.595  0.00  0.00    -0.169 OA
ATOM      5  O   UNL     1      10.892  13.998  24.050  0.00  0.00    -0.169 OA
BRANCH   1  27
ATOM     27  C   UNL     1      12.720  13.845  22.215  0.00  0.00    +0.089 A 
ATOM     28  C   UNL     1      11.709  14.026  21.271  0.00  0.00    +0.027 A 
ATOM     29  C   UNL     1      14.038  13.651  21.799  0.00  0.00    +0.027 A 
ATOM     30  C   UNL     1      12.017  14.015  19.911  0.00  0.00    +0.005 A 
ATOM     31  C   UNL     1      14.344  13.639  20.439  0.00  0.00    +0.005 A 
ATOM     32  C   UNL     1      13.334  13.822  19.495  0.00  0.00    -0.050 A 
ATOM     33  C   UNL     1      13.662  13.810  18.039  0.00  0.00    +0.044 C 
ENDBRANCH   1  27
ENDBRANCH  21   1
ENDBRANCH  19  21
ENDBRANCH  11  16
BRANCH  13   2
ATOM      2  O   UNL     1      10.829   5.177  20.971  0.00  0.00    -0.390 OA
ATOM     34  H   UNL     1      11.212   4.353  21.319  0.00  0.00    +0.210 HD
ENDBRANCH  13   2
BRANCH   6  15
ATOM     15  C   UNL     1      13.947   8.683  20.223  0.00  0.00    +0.159 C 
BRANCH  15  17
ATOM      7  N   UNL     1      16.283   8.804  21.146  0.00  0.00    -0.330 N 
ATOM      9  N   UNL     1      15.850   7.102  19.784  0.00  0.00    -0.231 NA
ATOM     17  C   UNL     1      15.355   8.172  20.366  0.00  0.00    +0.125 A 
ATOM     18  C   UNL     1      17.454   8.095  21.063  0.00  0.00    +0.069 A 
ATOM     20  C   UNL     1      17.158   7.037  20.207  0.00  0.00    +0.089 A 
ATOM     22  C   UNL     1      16.072  10.005  21.923  0.00  0.00    +0.150 C 
ATOM     23  C   UNL     1      18.709   8.282  21.645  0.00  0.00    +0.028 A 
ATOM     24  C   UNL     1      18.160   6.102  19.903  0.00  0.00    +0.030 A 
ATOM     25  C   UNL     1      19.694   7.341  21.331  0.00  0.00    +0.002 A 
ATOM     26  C   UNL     1      19.427   6.270  20.476  0.00  0.00    +0.002 A 
ENDBRANCH  15  17
ENDBRANCH   6  15
TORSDOF 7
ENDMDL
MODEL 7
REMARK VINA RESULT:      -6.3     26.784     30.479
REMARK  Name = 26744058
REMARK  9 active torsions:
REMARK  status: ('A' for Active; 'I' for Inactive)
REMARK    1  A    between atoms: S_1  and  C_21
REMARK    2  A    between atoms: S_1  and  C_27
REMARK    3  A    between atoms: O_2  and  C_13
REMARK    4  A    between atoms: N_6  and  C_15
REMARK    5  A    between atoms: N_7  and  C_22
REMARK    6  A    between atoms: C_11  and  C_16
REMARK    7  A    between atoms: C_15  and  C_17
REMARK    8  A    between atoms: C_19  and  C_21
REMARK    9  A    between atoms: C_32  and  C_33
REMARK                            x       y       z     vdW  Elec       q    Type
REMARK                         _______ _______ _______ _____ _____    ______ ____
ROOT
ATOM      6  N   UNL     1      -3.297 -10.729  14.511  0.00  0.00    -0.282 NA
ATOM     11  C   UNL     1      -3.475 -11.211  15.895  0.00  0.00    +0.149 C 
ATOM     12  C   UNL     1      -2.206 -10.752  16.639  0.00  0.00    +0.061 C 
ATOM     13  C   UNL     1      -1.356 -10.063  15.579  0.00  0.00    +0.130 C 
ATOM     14  C   UNL     1      -1.854 -10.663  14.279  0.00  0.00    +0.117 C 
ENDROOT
BRANCH  11  16
ATOM      3  O   UNL     1      -4.932 -10.989  17.846  0.00  0.00    -0.336 OA
ATOM      8  N   UNL     1      -5.716  -9.990  16.000  0.00  0.00    -0.193 NA
ATOM     10  N   UNL     1      -6.158 -10.413  18.204  0.00  0.00    -0.060 NA
ATOM     16  C   UNL     1      -4.748 -10.692  16.532  0.00  0.00    +0.245 A 
ATOM     19  C   UNL     1      -6.558  -9.844  17.063  0.00  0.00    +0.193 A 
BRANCH  19  21
ATOM     21  C   UNL     1      -7.824  -9.109  16.964  0.00  0.00    +0.251 C 
BRANCH  21   1
ATOM      1  S   UNL     1      -9.090 -10.229  16.434  0.00  0.00    +0.004 S 
ATOM      4  O   UNL     1      -8.548 -11.573  16.517  0.00  0.00    -0.169 OA
ATOM      5  O   UNL     1      -9.649  -9.736  15.190  0.00  0.00    -0.169 OA
BRANCH   1  27
ATOM     27  C   UNL     1     -10.343 -10.066  17.669  0.00  0.00    +0.089 A 
ATOM     28  C   UNL     1     -11.602  -9.575  17.322  0.00  0.00    +0.027 A 
ATOM     29  C   UNL     1     -10.072 -10.424  18.989  0.00  0.00    +0.027 A 
ATOM     30  C   UNL     1     -12.590  -9.444  18.298  0.00  0.00    +0.005 A 
ATOM     31  C   UNL     1     -11.061 -10.292  19.964  0.00  0.00    +0.005 A 
ATOM     32  C   UNL     1     -12.320  -9.802  19.618  0.00  0.00    -0.050 A 
ATOM     33  C   UNL     1     -13.378  -9.661  20.660  0.00  0.00    +0.044 C 
ENDBRANCH   1  27
ENDBRANCH  21   1
ENDBRANCH  19  21
ENDBRANCH  11  16
BRANCH  13   2
ATOM      2  O   UNL     1       0.017 -10.329  15.788  0.00  0.00    -0.390 OA
ATOM     34  H   UNL     1       0.081 -11.019  16.470  0.00  0.00    +0.210 HD
ENDBRANCH  13   2
BRANCH   6  15
ATOM     15  C   UNL     1      -3.974 -11.558  13.521  0.00  0.00    +0.159 C 
BRANCH  15  17
ATOM      7  N   UNL     1      -6.054 -10.764  12.353  0.00  0.00    -0.330 N 
ATOM      9  N   UNL     1      -4.135  -9.900  11.640  0.00  0.00    -0.231 NA
ATOM     17  C   UNL     1      -4.695 -10.728  12.495  0.00  0.00    +0.125 A 
ATOM     18  C   UNL     1      -6.394  -9.903  11.342  0.00  0.00    +0.069 A 
ATOM     20  C   UNL     1      -5.178  -9.375  10.913  0.00  0.00    +0.089 A 
ATOM     22  C   UNL     1      -6.974 -11.565  13.130  0.00  0.00    +0.150 C 
ATOM     23  C   UNL     1      -7.622  -9.549  10.781  0.00  0.00    +0.028 A 
ATOM     24  C   UNL     1      -5.169  -8.440   9.866  0.00  0.00    +0.030 A 
ATOM     25  C   UNL     1      -7.594  -8.617   9.740  0.00  0.00    +0.002 A 
ATOM     26  C   UNL     1      -6.390  -8.071   9.288  0.00  0.00    +0.002 A 
ENDBRANCH  15  17
ENDBRANCH   6  15
TORSDOF 7
ENDMDL
MODEL 8
REMARK VINA RESULT:      -6.3      2.523      5.102
REMARK  Name = 26744058
REMARK  9 active torsions:
REMARK  status: ('A' for Active; 'I' for Inactive)
REMARK    1  A    between atoms: S_1  and  C_21
REMARK    2  A    between atoms: S_1  and  C_27
REMARK    3  A    between atoms: O_2  and  C_13
REMARK    4  A    between atoms: N_6  and  C_15
REMARK    5  A    between atoms: N_7  and  C_22
REMARK    6  A    between atoms: C_11  and  C_16
REMARK    7  A    between atoms: C_15  and  C_17
REMARK    8  A    between atoms: C_19  and  C_21
REMARK    9  A    between atoms: C_32  and  C_33
REMARK                            x       y       z     vdW  Elec       q    Type
REMARK                         _______ _______ _______ _____ _____    ______ ____
ROOT
ATOM      6  N   UNL     1      11.829  10.977  23.164  0.00  0.00    -0.282 NA
ATOM     11  C   UNL     1      11.286  12.193  22.527  0.00  0.00    +0.149 C 
ATOM     12  C   UNL     1      10.966  13.142  23.698  0.00  0.00    +0.061 C 
ATOM     13  C   UNL     1      11.321  12.354  24.952  0.00  0.00    +0.130 C 
ATOM     14  C   UNL     1      11.236  10.909  24.499  0.00  0.00    +0.117 C 
ENDROOT
BRANCH  11  16
ATOM      3  O   UNL     1      11.717  13.152  20.320  0.00  0.00    -0.336 OA
ATOM      8  N   UNL     1      13.524  13.045  21.640  0.00  0.00    -0.193 NA
ATOM     10  N   UNL     1      12.778  13.683  19.574  0.00  0.00    -0.060 NA
ATOM     16  C   UNL     1      12.243  12.802  21.523  0.00  0.00    +0.245 A 
ATOM     19  C   UNL     1      13.808  13.585  20.420  0.00  0.00    +0.193 A 
BRANCH  19  21
ATOM     21  C   UNL     1      15.157  14.029  20.055  0.00  0.00    +0.251 C 
BRANCH  21   1
ATOM      1  S   UNL     1      16.139  12.606  19.669  0.00  0.00    +0.004 S 
ATOM      4  O   UNL     1      16.241  11.805  20.875  0.00  0.00    -0.169 OA
ATOM      5  O   UNL     1      17.334  13.045  18.975  0.00  0.00    -0.169 OA
BRANCH   1  27
ATOM     27  C   UNL     1      15.156  11.717  18.501  0.00  0.00    +0.089 A 
ATOM     28  C   UNL     1      15.005  12.205  17.204  0.00  0.00    +0.027 A 
ATOM     29  C   UNL     1      14.528  10.529  18.878  0.00  0.00    +0.027 A 
ATOM     30  C   UNL     1      14.226  11.505  16.283  0.00  0.00    +0.005 A 
ATOM     31  C   UNL     1      13.750   9.830  17.957  0.00  0.00    +0.005 A 
ATOM     32  C   UNL     1      13.599  10.317  16.659  0.00  0.00    -0.050 A 
ATOM     33  C   UNL     1      12.767   9.568  15.673  0.00  0.00    +0.044 C 
ENDBRANCH   1  27
ENDBRANCH  21   1
ENDBRANCH  19  21
ENDBRANCH  11  16
BRANCH  13   2
ATOM      2  O   UNL     1      10.406  12.632  25.994  0.00  0.00    -0.390 OA
ATOM     34  H   UNL     1       9.574  12.922  25.582  0.00  0.00    +0.210 HD
ENDBRANCH  13   2
BRANCH   6  15
ATOM     15  C   UNL     1      11.583   9.765  22.393  0.00  0.00    +0.159 C 
BRANCH  15  17
ATOM      7  N   UNL     1      12.882   7.979  21.190  0.00  0.00    -0.330 N 
ATOM      9  N   UNL     1      14.079   9.485  22.304  0.00  0.00    -0.231 NA
ATOM     17  C   UNL     1      12.866   9.097  21.977  0.00  0.00    +0.125 A 
ATOM     18  C   UNL     1      14.192   7.622  20.996  0.00  0.00    +0.069 A 
ATOM     20  C   UNL     1      14.920   8.578  21.701  0.00  0.00    +0.089 A 
ATOM     22  C   UNL     1      11.728   7.292  20.655  0.00  0.00    +0.150 C 
ATOM     23  C   UNL     1      14.786   6.578  20.286  0.00  0.00    +0.028 A 
ATOM     24  C   UNL     1      16.322   8.502  21.709  0.00  0.00    +0.030 A 
ATOM     25  C   UNL     1      16.183   6.518  20.305  0.00  0.00    +0.002 A 
ATOM     26  C   UNL     1      16.939   7.462  21.003  0.00  0.00    +0.002 A 
ENDBRANCH  15  17
ENDBRANCH   6  15
TORSDOF 7
ENDMDL
MODEL 9
REMARK VINA RESULT:      -6.3      2.365      5.259
REMARK  Name = 26744058
REMARK  9 active torsions:
REMARK  status: ('A' for Active; 'I' for Inactive)
REMARK    1  A    between atoms: S_1  and  C_21
REMARK    2  A    between atoms: S_1  and  C_27
REMARK    3  A    between atoms: O_2  and  C_13
REMARK    4  A    between atoms: N_6  and  C_15
REMARK    5  A    between atoms: N_7  and  C_22
REMARK    6  A    between atoms: C_11  and  C_16
REMARK    7  A    between atoms: C_15  and  C_17
REMARK    8  A    between atoms: C_19  and  C_21
REMARK    9  A    between atoms: C_32  and  C_33
REMARK                            x       y       z     vdW  Elec       q    Type
REMARK                         _______ _______ _______ _____ _____    ______ ____
ROOT
ATOM      6  N   UNL     1      12.147   9.694  22.167  0.00  0.00    -0.282 NA
ATOM     11  C   UNL     1      11.842  10.709  21.140  0.00  0.00    +0.149 C 
ATOM     12  C   UNL     1      11.227  11.887  21.919  0.00  0.00    +0.061 C 
ATOM     13  C   UNL     1      11.187  11.422  23.369  0.00  0.00    +0.130 C 
ATOM     14  C   UNL     1      11.195   9.909  23.257  0.00  0.00    +0.117 C 
ENDROOT
BRANCH  11  16
ATOM      3  O   UNL     1      13.125  10.652  19.059  0.00  0.00    -0.336 OA
ATOM      8  N   UNL     1      14.086  11.844  20.694  0.00  0.00    -0.193 NA
ATOM     10  N   UNL     1      14.325  11.145  18.530  0.00  0.00    -0.060 NA
ATOM     16  C   UNL     1      13.062  11.110  20.337  0.00  0.00    +0.245 A 
ATOM     19  C   UNL     1      14.833  11.837  19.554  0.00  0.00    +0.193 A 
BRANCH  19  21
ATOM     21  C   UNL     1      16.116  12.542  19.454  0.00  0.00    +0.251 C 
BRANCH  21   1
ATOM      1  S   UNL     1      17.291  11.735  20.506  0.00  0.00    +0.004 S 
ATOM      4  O   UNL     1      17.003  10.313  20.474  0.00  0.00    -0.169 OA
ATOM      5  O   UNL     1      17.343  12.447  21.769  0.00  0.00    -0.169 OA
BRANCH   1  27
ATOM     27  C   UNL     1      18.838  12.001  19.695  0.00  0.00    +0.089 A 
ATOM     28  C   UNL     1      20.019  11.550  20.284  0.00  0.00    +0.027 A 
ATOM     29  C   UNL     1      18.878  12.664  18.469  0.00  0.00    +0.027 A 
ATOM     30  C   UNL     1      21.240  11.762  19.645  0.00  0.00    +0.005 A 
ATOM     31  C   UNL     1      20.099  12.876  17.831  0.00  0.00    +0.005 A 
ATOM     32  C   UNL     1      21.280  12.425  18.419  0.00  0.00    -0.050 A 
ATOM     33  C   UNL     1      22.588  12.651  17.736  0.00  0.00    +0.044 C 
ENDBRANCH   1  27
ENDBRANCH  21   1
ENDBRANCH  19  21
ENDBRANCH  11  16
BRANCH  13   2
ATOM      2  O   UNL     1      10.020  11.893  24.014  0.00  0.00    -0.390 OA
ATOM     34  H   UNL     1      10.301  12.516  24.707  0.00  0.00    +0.210 HD
ENDBRANCH  13   2
BRANCH   6  15
ATOM     15  C   UNL     1      12.098   8.329  21.659  0.00  0.00    +0.159 C 
BRANCH  15  17
ATOM      7  N   UNL     1      13.731   7.323  20.033  0.00  0.00    -0.330 N 
ATOM      9  N   UNL     1      14.525   7.806  22.052  0.00  0.00    -0.231 NA
ATOM     17  C   UNL     1      13.464   7.826  21.275  0.00  0.00    +0.125 A 
ATOM     18  C   UNL     1      15.052   6.955  20.005  0.00  0.00    +0.069 A 
ATOM     20  C   UNL     1      15.525   7.266  21.277  0.00  0.00    +0.089 A 
ATOM     22  C   UNL     1      12.793   7.200  18.939  0.00  0.00    +0.150 C 
ATOM     23  C   UNL     1      15.850   6.393  19.007  0.00  0.00    +0.028 A 
ATOM     24  C   UNL     1      16.870   7.009  21.589  0.00  0.00    +0.030 A 
ATOM     25  C   UNL     1      17.186   6.144  19.336  0.00  0.00    +0.002 A 
ATOM     26  C   UNL     1      17.689   6.445  20.603  0.00  0.00    +0.002 A 
ENDBRANCH  15  17
ENDBRANCH   6  15
TORSDOF 7
ENDMDL
MODEL 10
REMARK VINA RESULT:      -6.2     27.137     30.782
REMARK  Name = 26744058
REMARK  9 active torsions:
REMARK  status: ('A' for Active; 'I' for Inactive)
REMARK    1  A    between atoms: S_1  and  C_21
REMARK    2  A    between atoms: S_1  and  C_27
REMARK    3  A    between atoms: O_2  and  C_13
REMARK    4  A    between atoms: N_6  and  C_15
REMARK    5  A    between atoms: N_7  and  C_22
REMARK    6  A    between atoms: C_11  and  C_16
REMARK    7  A    between atoms: C_15  and  C_17
REMARK    8  A    between atoms: C_19  and  C_21
REMARK    9  A    between atoms: C_32  and  C_33
REMARK                            x       y       z     vdW  Elec       q    Type
REMARK                         _______ _______ _______ _____ _____    ______ ____
ROOT
ATOM      6  N   UNL     1      -3.455 -11.065  14.514  0.00  0.00    -0.282 NA
ATOM     11  C   UNL     1      -3.747 -11.504  15.893  0.00  0.00    +0.149 C 
ATOM     12  C   UNL     1      -2.603 -10.920  16.744  0.00  0.00    +0.061 C 
ATOM     13  C   UNL     1      -1.696 -10.208  15.749  0.00  0.00    +0.130 C 
ATOM     14  C   UNL     1      -2.005 -10.896  14.432  0.00  0.00    +0.117 C 
ENDROOT
BRANCH  11  16
ATOM      3  O   UNL     1      -5.329  -9.721  16.437  0.00  0.00    -0.336 OA
ATOM      8  N   UNL     1      -6.143 -11.787  16.730  0.00  0.00    -0.193 NA
ATOM     10  N   UNL     1      -6.643  -9.562  16.896  0.00  0.00    -0.060 NA
ATOM     16  C   UNL     1      -5.116 -11.061  16.368  0.00  0.00    +0.245 A 
ATOM     19  C   UNL     1      -7.056 -10.824  17.045  0.00  0.00    +0.193 A 
BRANCH  19  21
ATOM     21  C   UNL     1      -8.405 -11.150  17.520  0.00  0.00    +0.251 C 
BRANCH  21   1
ATOM      1  S   UNL     1      -8.302 -11.666  19.211  0.00  0.00    +0.004 S 
ATOM      4  O   UNL     1      -7.468 -10.707  19.912  0.00  0.00    -0.169 OA
ATOM      5  O   UNL     1      -7.981 -13.081  19.242  0.00  0.00    -0.169 OA
BRANCH   1  27
ATOM     27  C   UNL     1      -9.956 -11.495  19.808  0.00  0.00    +0.089 A 
ATOM     28  C   UNL     1     -10.637 -12.608  20.302  0.00  0.00    +0.027 A 
ATOM     29  C   UNL     1     -10.582 -10.249  19.782  0.00  0.00    +0.027 A 
ATOM     30  C   UNL     1     -11.943 -12.473  20.770  0.00  0.00    +0.005 A 
ATOM     31  C   UNL     1     -11.888 -10.115  20.249  0.00  0.00    +0.005 A 
ATOM     32  C   UNL     1     -12.569 -11.226  20.744  0.00  0.00    -0.050 A 
ATOM     33  C   UNL     1     -13.967 -11.083  21.246  0.00  0.00    +0.044 C 
ENDBRANCH   1  27
ENDBRANCH  21   1
ENDBRANCH  19  21
ENDBRANCH  11  16
BRANCH  13   2
ATOM      2  O   UNL     1      -0.338 -10.358  16.113  0.00  0.00    -0.390 OA
ATOM     34  H   UNL     1      -0.315 -10.762  16.998  0.00  0.00    +0.210 HD
ENDBRANCH  13   2
BRANCH   6  15
ATOM     15  C   UNL     1      -3.958 -11.981  13.499  0.00  0.00    +0.159 C 
BRANCH  15  17
ATOM      7  N   UNL     1      -4.145 -11.872  10.994  0.00  0.00    -0.330 N 
ATOM      9  N   UNL     1      -4.719 -10.034  12.105  0.00  0.00    -0.231 NA
ATOM     17  C   UNL     1      -4.283 -11.270  12.213  0.00  0.00    +0.125 A 
ATOM     18  C   UNL     1      -4.517 -10.965  10.034  0.00  0.00    +0.069 A 
ATOM     20  C   UNL     1      -4.872  -9.826  10.754  0.00  0.00    +0.089 A 
ATOM     22  C   UNL     1      -3.689 -13.223  10.753  0.00  0.00    +0.150 C 
ATOM     23  C   UNL     1      -4.574 -11.040   8.642  0.00  0.00    +0.028 A 
ATOM     24  C   UNL     1      -5.310  -8.687  10.059  0.00  0.00    +0.030 A 
ATOM     25  C   UNL     1      -5.012  -9.897   7.967  0.00  0.00    +0.002 A 
ATOM     26  C   UNL     1      -5.374  -8.740   8.661  0.00  0.00    +0.002 A 
ENDBRANCH  15  17
ENDBRANCH   6  15
TORSDOF 7
ENDMDL
