MODEL 1
REMARK VINA RESULT:      -7.1      0.000      0.000
REMARK  Name = 11879504
REMARK  10 active torsions:
REMARK  status: ('A' for Active; 'I' for Inactive)
REMARK    1  A    between atoms: O_2  and  C_15
REMARK    2  A    between atoms: O_3  and  C_20
REMARK    3  A    between atoms: N_7  and  C_28
REMARK    4  A    between atoms: C_10  and  C_18
REMARK    5  A    between atoms: C_12  and  C_20
REMARK    6  A    between atoms: C_12  and  C_21
REMARK    7  A    between atoms: C_13  and  C_23
REMARK    8  A    between atoms: C_23  and  C_24
REMARK    9  A    between atoms: C_26  and  C_27
REMARK   10  A    between atoms: C_28  and  C_34
REMARK                            x       y       z     vdW  Elec       q    Type
REMARK                         _______ _______ _______ _____ _____    ______ ____
ROOT
ATOM      1  S   UNL     1      15.036   7.948   6.161  0.00  0.00    -0.057 S 
ATOM      5  O   UNL     1      12.588   6.356   2.519  0.00  0.00    -0.275 OA
ATOM      6  N   UNL     1      15.128   7.439   3.626  0.00  0.00    -0.229 NA
ATOM      8  N   UNL     1      13.045   6.987   4.751  0.00  0.00    -0.264 N 
ATOM     10  C   UNL     1      18.640   9.028   3.566  0.00  0.00    -0.019 C 
ATOM     11  C   UNL     1      18.954   8.582   5.062  0.00  0.00    +0.011 C 
ATOM     12  C   UNL     1      20.311   9.085   5.691  0.00  0.00    +0.021 C 
ATOM     13  C   UNL     1      17.486   8.078   3.000  0.00  0.00    +0.054 C 
ATOM     14  C   UNL     1      19.908   8.831   2.694  0.00  0.00    +0.010 C 
ATOM     15  C   UNL     1      21.463   8.855   4.671  0.00  0.00    +0.123 C 
ATOM     16  C   UNL     1      17.719   8.791   5.988  0.00  0.00    +0.049 C 
ATOM     17  C   UNL     1      21.169   9.436   3.292  0.00  0.00    +0.032 C 
ATOM     18  C   UNL     1      18.190  10.506   3.460  0.00  0.00    +0.012 C 
ATOM     19  C   UNL     1      16.362   7.940   3.995  0.00  0.00    +0.058 A 
ATOM     21  C   UNL     1      20.632   8.233   6.951  0.00  0.00    +0.016 C 
ATOM     22  C   UNL     1      16.494   8.248   5.333  0.00  0.00    +0.015 A 
ATOM     25  C   UNL     1      14.347   7.405   4.684  0.00  0.00    +0.165 A 
ATOM     26  C   UNL     1      12.261   6.499   3.692  0.00  0.00    +0.222 C 
ATOM     42  H   UNL     1      12.625   7.050   5.674  0.00  0.00    +0.157 HD
ENDROOT
BRANCH  26  27
ATOM     27  C   UNL     1      10.879   6.133   4.147  0.00  0.00    +0.075 C 
ATOM     29  C   UNL     1      10.887   5.828   5.647  0.00  0.00    +0.013 C 
ATOM     30  C   UNL     1       9.902   7.261   3.809  0.00  0.00    +0.013 C 
ATOM     31  C   UNL     1       9.483   5.541   6.171  0.00  0.00    +0.001 C 
ATOM     32  C   UNL     1       8.500   6.971   4.339  0.00  0.00    +0.001 C 
ATOM     33  C   UNL     1       8.514   6.671   5.835  0.00  0.00    +0.000 C 
ENDBRANCH  26  27
BRANCH  15   2
ATOM      2  O   UNL     1      22.682   9.417   5.156  0.00  0.00    -0.391 OA
ATOM     39  H   UNL     1      22.800   9.117   6.073  0.00  0.00    +0.210 HD
ENDBRANCH  15   2
BRANCH  12  20
ATOM     20  C   UNL     1      20.288  10.551   6.175  0.00  0.00    +0.165 C 
BRANCH  20   3
ATOM      3  O   UNL     1      21.080  10.634   7.339  0.00  0.00    -0.394 OA
ATOM     40  H   UNL     1      21.575  11.469   7.294  0.00  0.00    +0.209 HD
ENDBRANCH  20   3
ENDBRANCH  12  20
BRANCH  13  23
ATOM     23  C   UNL     1      16.963   8.470   1.611  0.00  0.00    +0.106 C 
BRANCH  23  24
ATOM      4  O   UNL     1      18.105   7.371  -0.216  0.00  0.00    -0.276 OA
ATOM      7  N   UNL     1      16.210   6.391   0.706  0.00  0.00    -0.311 N 
ATOM     24  C   UNL     1      17.183   7.374   0.595  0.00  0.00    +0.214 C 
ATOM     41  H   UNL     1      15.490   6.484   1.417  0.00  0.00    +0.149 HD
BRANCH   7  28
ATOM     28  C   UNL     1      16.168   5.222  -0.143  0.00  0.00    +0.141 C 
BRANCH  28  34
ATOM      9  N   UNL     1      13.630   3.120   1.714  0.00  0.00    -0.263 NA
ATOM     34  C   UNL     1      14.959   4.374   0.130  0.00  0.00    -0.012 A 
ATOM     35  C   UNL     1      14.065   4.054  -0.886  0.00  0.00    +0.008 A 
ATOM     36  C   UNL     1      14.699   3.887   1.400  0.00  0.00    +0.115 A 
ATOM     37  C   UNL     1      12.954   3.266  -0.603  0.00  0.00    +0.020 A 
ATOM     38  C   UNL     1      12.783   2.828   0.700  0.00  0.00    +0.111 A 
ENDBRANCH  28  34
ENDBRANCH   7  28
ENDBRANCH  23  24
ENDBRANCH  13  23
TORSDOF 8
ENDMDL
MODEL 2
REMARK VINA RESULT:      -6.7     30.951     34.923
REMARK  Name = 11879504
REMARK  10 active torsions:
REMARK  status: ('A' for Active; 'I' for Inactive)
REMARK    1  A    between atoms: O_2  and  C_15
REMARK    2  A    between atoms: O_3  and  C_20
REMARK    3  A    between atoms: N_7  and  C_28
REMARK    4  A    between atoms: C_10  and  C_18
REMARK    5  A    between atoms: C_12  and  C_20
REMARK    6  A    between atoms: C_12  and  C_21
REMARK    7  A    between atoms: C_13  and  C_23
REMARK    8  A    between atoms: C_23  and  C_24
REMARK    9  A    between atoms: C_26  and  C_27
REMARK   10  A    between atoms: C_28  and  C_34
REMARK                            x       y       z     vdW  Elec       q    Type
REMARK                         _______ _______ _______ _____ _____    ______ ____
ROOT
ATOM      1  S   UNL     1     -10.356 -12.876  19.918  0.00  0.00    -0.057 S 
ATOM      5  O   UNL     1     -13.602  -9.615  19.129  0.00  0.00    -0.275 OA
ATOM      6  N   UNL     1     -10.858 -10.666  18.669  0.00  0.00    -0.229 NA
ATOM      8  N   UNL     1     -12.632 -11.578  20.022  0.00  0.00    -0.264 N 
ATOM     10  C   UNL     1      -7.162 -10.598  17.574  0.00  0.00    -0.019 C 
ATOM     11  C   UNL     1      -7.056 -12.186  17.554  0.00  0.00    +0.011 C 
ATOM     12  C   UNL     1      -5.634 -12.807  17.266  0.00  0.00    +0.021 C 
ATOM     13  C   UNL     1      -8.705 -10.204  17.439  0.00  0.00    +0.054 C 
ATOM     14  C   UNL     1      -6.400 -10.016  16.355  0.00  0.00    +0.010 C 
ATOM     15  C   UNL     1      -4.996 -12.080  16.048  0.00  0.00    +0.123 C 
ATOM     16  C   UNL     1      -7.780 -12.820  18.778  0.00  0.00    +0.049 C 
ATOM     17  C   UNL     1      -4.989 -10.563  16.189  0.00  0.00    +0.032 C 
ATOM     18  C   UNL     1      -6.582  -9.972  18.867  0.00  0.00    +0.012 C 
ATOM     19  C   UNL     1      -9.557 -11.027  18.371  0.00  0.00    +0.058 A 
ATOM     21  C   UNL     1      -5.802 -14.302  16.877  0.00  0.00    +0.016 C 
ATOM     22  C   UNL     1      -9.128 -12.206  18.946  0.00  0.00    +0.015 A 
ATOM     25  C   UNL     1     -11.374 -11.563  19.480  0.00  0.00    +0.165 A 
ATOM     26  C   UNL     1     -13.647 -10.627  19.820  0.00  0.00    +0.222 C 
ATOM     42  H   UNL     1     -12.823 -12.367  20.632  0.00  0.00    +0.157 HD
ENDROOT
BRANCH  26  27
ATOM     27  C   UNL     1     -14.895 -10.978  20.576  0.00  0.00    +0.075 C 
ATOM     29  C   UNL     1     -14.571 -11.989  21.678  0.00  0.00    +0.013 C 
ATOM     30  C   UNL     1     -15.533  -9.710  21.147  0.00  0.00    +0.013 C 
ATOM     31  C   UNL     1     -15.795 -12.304  22.532  0.00  0.00    +0.001 C 
ATOM     32  C   UNL     1     -16.756 -10.031  22.003  0.00  0.00    +0.001 C 
ATOM     33  C   UNL     1     -16.425 -11.037  23.102  0.00  0.00    +0.000 C 
ENDBRANCH  26  27
BRANCH  15   2
ATOM      2  O   UNL     1      -3.656 -12.528  15.841  0.00  0.00    -0.391 OA
ATOM     39  H   UNL     1      -3.687 -13.267  15.210  0.00  0.00    +0.210 HD
ENDBRANCH  15   2
BRANCH  12  20
ATOM     20  C   UNL     1      -4.675 -12.798  18.477  0.00  0.00    +0.165 C 
BRANCH  20   3
ATOM      3  O   UNL     1      -4.019 -14.046  18.516  0.00  0.00    -0.394 OA
ATOM     40  H   UNL     1      -3.352 -14.046  17.809  0.00  0.00    +0.209 HD
ENDBRANCH  20   3
ENDBRANCH  12  20
BRANCH  13  23
ATOM     23  C   UNL     1      -8.995  -8.705  17.587  0.00  0.00    +0.106 C 
BRANCH  23  24
ATOM      4  O   UNL     1      -9.438  -8.626  15.210  0.00  0.00    -0.276 OA
ATOM      7  N   UNL     1     -10.211  -6.914  16.577  0.00  0.00    -0.311 N 
ATOM     24  C   UNL     1      -9.557  -8.109  16.317  0.00  0.00    +0.214 C 
ATOM     41  H   UNL     1     -10.260  -6.573  17.534  0.00  0.00    +0.149 HD
BRANCH   7  28
ATOM     28  C   UNL     1     -10.843  -6.120  15.549  0.00  0.00    +0.141 C 
BRANCH  28  34
ATOM      9  N   UNL     1     -14.424  -5.991  14.336  0.00  0.00    -0.263 NA
ATOM     34  C   UNL     1     -12.312  -6.413  15.436  0.00  0.00    -0.012 A 
ATOM     35  C   UNL     1     -12.925  -7.335  16.277  0.00  0.00    +0.008 A 
ATOM     36  C   UNL     1     -13.098  -5.774  14.491  0.00  0.00    +0.115 A 
ATOM     37  C   UNL     1     -14.287  -7.586  16.149  0.00  0.00    +0.020 A 
ATOM     38  C   UNL     1     -14.985  -6.894  15.172  0.00  0.00    +0.111 A 
ENDBRANCH  28  34
ENDBRANCH   7  28
ENDBRANCH  23  24
ENDBRANCH  13  23
TORSDOF 8
ENDMDL
MODEL 3
REMARK VINA RESULT:      -6.7     27.440     32.691
REMARK  Name = 11879504
REMARK  10 active torsions:
REMARK  status: ('A' for Active; 'I' for Inactive)
REMARK    1  A    between atoms: O_2  and  C_15
REMARK    2  A    between atoms: O_3  and  C_20
REMARK    3  A    between atoms: N_7  and  C_28
REMARK    4  A    between atoms: C_10  and  C_18
REMARK    5  A    between atoms: C_12  and  C_20
REMARK    6  A    between atoms: C_12  and  C_21
REMARK    7  A    between atoms: C_13  and  C_23
REMARK    8  A    between atoms: C_23  and  C_24
REMARK    9  A    between atoms: C_26  and  C_27
REMARK   10  A    between atoms: C_28  and  C_34
REMARK                            x       y       z     vdW  Elec       q    Type
REMARK                         _______ _______ _______ _____ _____    ______ ____
ROOT
ATOM      1  S   UNL     1      -9.437  -9.850  12.818  0.00  0.00    -0.057 S 
ATOM      5  O   UNL     1      -4.849 -10.144  13.629  0.00  0.00    -0.275 OA
ATOM      6  N   UNL     1      -7.631  -9.968  14.667  0.00  0.00    -0.229 NA
ATOM      8  N   UNL     1      -6.856 -10.011  12.386  0.00  0.00    -0.264 N 
ATOM     10  C   UNL     1     -10.431  -9.393  17.256  0.00  0.00    -0.019 C 
ATOM     11  C   UNL     1     -11.520 -10.131  16.359  0.00  0.00    +0.011 C 
ATOM     12  C   UNL     1     -13.009 -10.115  16.881  0.00  0.00    +0.021 C 
ATOM     13  C   UNL     1      -8.986  -9.898  16.794  0.00  0.00    +0.054 C 
ATOM     14  C   UNL     1     -10.634  -9.787  18.742  0.00  0.00    +0.010 C 
ATOM     15  C   UNL     1     -13.025 -10.486  18.392  0.00  0.00    +0.123 C 
ATOM     16  C   UNL     1     -11.378  -9.744  14.858  0.00  0.00    +0.049 C 
ATOM     17  C   UNL     1     -12.069  -9.643  19.228  0.00  0.00    +0.032 C 
ATOM     18  C   UNL     1     -10.499  -7.850  17.137  0.00  0.00    +0.012 C 
ATOM     19  C   UNL     1      -8.862  -9.881  15.292  0.00  0.00    +0.058 A 
ATOM     21  C   UNL     1     -13.822 -11.205  16.128  0.00  0.00    +0.016 C 
ATOM     22  C   UNL     1      -9.948  -9.829  14.443  0.00  0.00    +0.015 A 
ATOM     25  C   UNL     1      -7.811  -9.953  13.365  0.00  0.00    +0.165 A 
ATOM     26  C   UNL     1      -5.465 -10.101  12.570  0.00  0.00    +0.222 C 
ATOM     42  H   UNL     1      -7.216  -9.981  11.437  0.00  0.00    +0.157 HD
ENDROOT
BRANCH  26  27
ATOM     27  C   UNL     1      -4.733 -10.147  11.261  0.00  0.00    +0.075 C 
ATOM     29  C   UNL     1      -5.341 -11.226  10.361  0.00  0.00    +0.013 C 
ATOM     30  C   UNL     1      -4.772  -8.772  10.593  0.00  0.00    +0.013 C 
ATOM     31  C   UNL     1      -4.686 -11.245   8.984  0.00  0.00    +0.001 C 
ATOM     32  C   UNL     1      -4.119  -8.797   9.213  0.00  0.00    +0.001 C 
ATOM     33  C   UNL     1      -4.731  -9.872   8.320  0.00  0.00    +0.000 C 
ENDBRANCH  26  27
BRANCH  15   2
ATOM      2  O   UNL     1     -14.342 -10.355  18.927  0.00  0.00    -0.391 OA
ATOM     39  H   UNL     1     -14.911  -9.997  18.224  0.00  0.00    +0.210 HD
ENDBRANCH  15   2
BRANCH  12  20
ATOM     20  C   UNL     1     -13.760  -8.789  16.631  0.00  0.00    +0.165 C 
BRANCH  20   3
ATOM      3  O   UNL     1     -15.110  -9.102  16.369  0.00  0.00    -0.394 OA
ATOM     40  H   UNL     1     -15.363  -8.636  15.554  0.00  0.00    +0.209 HD
ENDBRANCH  20   3
ENDBRANCH  12  20
BRANCH  13  23
ATOM     23  C   UNL     1      -7.813  -9.171  17.464  0.00  0.00    +0.106 C 
BRANCH  23  24
ATOM      4  O   UNL     1      -7.078 -10.689  19.199  0.00  0.00    -0.276 OA
ATOM      7  N   UNL     1      -5.708 -10.297  17.363  0.00  0.00    -0.311 N 
ATOM     24  C   UNL     1      -6.855 -10.135  18.126  0.00  0.00    +0.214 C 
ATOM     41  H   UNL     1      -5.623  -9.797  16.482  0.00  0.00    +0.149 HD
BRANCH   7  28
ATOM     28  C   UNL     1      -4.616 -11.159  17.753  0.00  0.00    +0.141 C 
BRANCH  28  34
ATOM      9  N   UNL     1      -3.160 -12.875  14.713  0.00  0.00    -0.263 NA
ATOM     34  C   UNL     1      -3.703 -11.464  16.601  0.00  0.00    -0.012 A 
ATOM     35  C   UNL     1      -2.591 -10.672  16.338  0.00  0.00    +0.008 A 
ATOM     36  C   UNL     1      -3.941 -12.544  15.767  0.00  0.00    +0.115 A 
ATOM     37  C   UNL     1      -1.763 -10.980  15.263  0.00  0.00    +0.020 A 
ATOM     38  C   UNL     1      -2.088 -12.082  14.489  0.00  0.00    +0.111 A 
ENDBRANCH  28  34
ENDBRANCH   7  28
ENDBRANCH  23  24
ENDBRANCH  13  23
TORSDOF 8
ENDMDL
MODEL 4
REMARK VINA RESULT:      -6.6     27.419     34.159
REMARK  Name = 11879504
REMARK  10 active torsions:
REMARK  status: ('A' for Active; 'I' for Inactive)
REMARK    1  A    between atoms: O_2  and  C_15
REMARK    2  A    between atoms: O_3  and  C_20
REMARK    3  A    between atoms: N_7  and  C_28
REMARK    4  A    between atoms: C_10  and  C_18
REMARK    5  A    between atoms: C_12  and  C_20
REMARK    6  A    between atoms: C_12  and  C_21
REMARK    7  A    between atoms: C_13  and  C_23
REMARK    8  A    between atoms: C_23  and  C_24
REMARK    9  A    between atoms: C_26  and  C_27
REMARK   10  A    between atoms: C_28  and  C_34
REMARK                            x       y       z     vdW  Elec       q    Type
REMARK                         _______ _______ _______ _____ _____    ______ ____
ROOT
ATOM      1  S   UNL     1     -10.752   8.980  17.956  0.00  0.00    -0.057 S 
ATOM      5  O   UNL     1      -9.728  13.534  17.997  0.00  0.00    -0.275 OA
ATOM      6  N   UNL     1     -11.265  11.241  19.105  0.00  0.00    -0.229 NA
ATOM      8  N   UNL     1      -9.646  11.271  17.319  0.00  0.00    -0.264 N 
ATOM     10  C   UNL     1     -14.034   9.449  21.101  0.00  0.00    -0.019 C 
ATOM     11  C   UNL     1     -13.250   8.064  21.099  0.00  0.00    +0.011 C 
ATOM     12  C   UNL     1     -13.993   6.818  21.718  0.00  0.00    +0.021 C 
ATOM     13  C   UNL     1     -12.973  10.619  20.853  0.00  0.00    +0.054 C 
ATOM     14  C   UNL     1     -14.688   9.669  22.491  0.00  0.00    +0.010 C 
ATOM     15  C   UNL     1     -14.626   7.224  23.079  0.00  0.00    +0.123 C 
ATOM     16  C   UNL     1     -12.600   7.781  19.712  0.00  0.00    +0.049 C 
ATOM     17  C   UNL     1     -15.490   8.476  22.991  0.00  0.00    +0.032 C 
ATOM     18  C   UNL     1     -15.138   9.518  20.017  0.00  0.00    +0.012 C 
ATOM     19  C   UNL     1     -12.050  10.278  19.711  0.00  0.00    +0.058 A 
ATOM     21  C   UNL     1     -12.954   5.698  22.006  0.00  0.00    +0.016 C 
ATOM     22  C   UNL     1     -11.885   8.997  19.227  0.00  0.00    +0.015 A 
ATOM     25  C   UNL     1     -10.545  10.673  18.162  0.00  0.00    +0.165 A 
ATOM     26  C   UNL     1      -9.298  12.632  17.287  0.00  0.00    +0.222 C 
ATOM     42  H   UNL     1      -9.201  10.643  16.657  0.00  0.00    +0.157 HD
ENDROOT
BRANCH  26  27
ATOM     27  C   UNL     1      -8.273  12.919  16.229  0.00  0.00    +0.075 C 
ATOM     29  C   UNL     1      -8.909  13.715  15.088  0.00  0.00    +0.013 C 
ATOM     30  C   UNL     1      -7.087  13.666  16.842  0.00  0.00    +0.013 C 
ATOM     31  C   UNL     1      -7.879  14.109  14.033  0.00  0.00    +0.001 C 
ATOM     32  C   UNL     1      -6.061  14.061  15.783  0.00  0.00    +0.001 C 
ATOM     33  C   UNL     1      -6.701  14.857  14.649  0.00  0.00    +0.000 C 
ENDBRANCH  26  27
BRANCH  15   2
ATOM      2  O   UNL     1     -15.415   6.157  23.605  0.00  0.00    -0.391 OA
ATOM     39  H   UNL     1     -16.276   6.528  23.863  0.00  0.00    +0.210 HD
ENDBRANCH  15   2
BRANCH  12  20
ATOM     20  C   UNL     1     -15.048   6.177  20.790  0.00  0.00    +0.165 C 
BRANCH  20   3
ATOM      3  O   UNL     1     -15.273   4.858  21.238  0.00  0.00    -0.394 OA
ATOM     40  H   UNL     1     -16.203   4.644  21.055  0.00  0.00    +0.209 HD
ENDBRANCH  20   3
ENDBRANCH  12  20
BRANCH  13  23
ATOM     23  C   UNL     1     -13.589  12.013  20.682  0.00  0.00    +0.106 C 
BRANCH  23  24
ATOM      4  O   UNL     1     -14.941  13.270  22.247  0.00  0.00    -0.276 OA
ATOM      7  N   UNL     1     -12.861  12.472  22.911  0.00  0.00    -0.311 N 
ATOM     24  C   UNL     1     -13.901  12.660  22.012  0.00  0.00    +0.214 C 
ATOM     41  H   UNL     1     -12.043  11.945  22.620  0.00  0.00    +0.149 HD
BRANCH   7  28
ATOM     28  C   UNL     1     -12.883  12.986  24.261  0.00  0.00    +0.141 C 
BRANCH  28  34
ATOM      9  N   UNL     1     -13.338  10.594  27.156  0.00  0.00    -0.263 NA
ATOM     34  C   UNL     1     -12.591  11.916  25.274  0.00  0.00    -0.012 A 
ATOM     35  C   UNL     1     -11.363  11.264  25.293  0.00  0.00    +0.008 A 
ATOM     36  C   UNL     1     -13.536  11.548  26.217  0.00  0.00    +0.115 A 
ATOM     37  C   UNL     1     -11.122  10.277  26.243  0.00  0.00    +0.020 A 
ATOM     38  C   UNL     1     -12.132   9.982  27.144  0.00  0.00    +0.111 A 
ENDBRANCH  28  34
ENDBRANCH   7  28
ENDBRANCH  23  24
ENDBRANCH  13  23
TORSDOF 8
ENDMDL
MODEL 5
REMARK VINA RESULT:      -6.5     28.505     31.616
REMARK  Name = 11879504
REMARK  10 active torsions:
REMARK  status: ('A' for Active; 'I' for Inactive)
REMARK    1  A    between atoms: O_2  and  C_15
REMARK    2  A    between atoms: O_3  and  C_20
REMARK    3  A    between atoms: N_7  and  C_28
REMARK    4  A    between atoms: C_10  and  C_18
REMARK    5  A    between atoms: C_12  and  C_20
REMARK    6  A    between atoms: C_12  and  C_21
REMARK    7  A    between atoms: C_13  and  C_23
REMARK    8  A    between atoms: C_23  and  C_24
REMARK    9  A    between atoms: C_26  and  C_27
REMARK   10  A    between atoms: C_28  and  C_34
REMARK                            x       y       z     vdW  Elec       q    Type
REMARK                         _______ _______ _______ _____ _____    ______ ____
ROOT
ATOM      1  S   UNL     1      -5.171 -10.884  12.670  0.00  0.00    -0.057 S 
ATOM      5  O   UNL     1      -8.236  -8.421  10.154  0.00  0.00    -0.275 OA
ATOM      6  N   UNL     1      -7.409  -9.589  12.762  0.00  0.00    -0.229 NA
ATOM      8  N   UNL     1      -6.297  -9.690  10.625  0.00  0.00    -0.264 N 
ATOM     10  C   UNL     1      -7.800 -10.784  16.407  0.00  0.00    -0.019 C 
ATOM     11  C   UNL     1      -6.227 -10.815  16.649  0.00  0.00    +0.011 C 
ATOM     12  C   UNL     1      -5.726 -11.379  18.035  0.00  0.00    +0.021 C 
ATOM     13  C   UNL     1      -8.092  -9.801  15.181  0.00  0.00    +0.054 C 
ATOM     14  C   UNL     1      -8.505 -10.217  17.667  0.00  0.00    +0.010 C 
ATOM     15  C   UNL     1      -6.565 -10.744  19.180  0.00  0.00    +0.123 C 
ATOM     16  C   UNL     1      -5.474 -11.407  15.422  0.00  0.00    +0.049 C 
ATOM     17  C   UNL     1      -8.069 -10.877  18.967  0.00  0.00    +0.032 C 
ATOM     18  C   UNL     1      -8.388 -12.183  16.096  0.00  0.00    +0.012 C 
ATOM     19  C   UNL     1      -7.158 -10.079  14.030  0.00  0.00    +0.058 A 
ATOM     21  C   UNL     1      -4.248 -10.950  18.253  0.00  0.00    +0.016 C 
ATOM     22  C   UNL     1      -5.981 -10.785  14.165  0.00  0.00    +0.015 A 
ATOM     25  C   UNL     1      -6.432  -9.957  11.962  0.00  0.00    +0.165 A 
ATOM     26  C   UNL     1      -7.184  -8.956   9.820  0.00  0.00    +0.222 C 
ATOM     42  H   UNL     1      -5.462 -10.077  10.196  0.00  0.00    +0.157 HD
ENDROOT
BRANCH  26  27
ATOM     27  C   UNL     1      -6.703  -8.867   8.401  0.00  0.00    +0.075 C 
ATOM     29  C   UNL     1      -6.078 -10.199   7.979  0.00  0.00    +0.013 C 
ATOM     30  C   UNL     1      -7.861  -8.474   7.482  0.00  0.00    +0.013 C 
ATOM     31  C   UNL     1      -5.658 -10.183   6.512  0.00  0.00    +0.001 C 
ATOM     32  C   UNL     1      -7.437  -8.464   6.015  0.00  0.00    +0.001 C 
ATOM     33  C   UNL     1      -6.817  -9.794   5.599  0.00  0.00    +0.000 C 
ENDBRANCH  26  27
BRANCH  15   2
ATOM      2  O   UNL     1      -6.226 -11.329  20.436  0.00  0.00    -0.391 OA
ATOM     39  H   UNL     1      -6.780 -12.120  20.552  0.00  0.00    +0.210 HD
ENDBRANCH  15   2
BRANCH  12  20
ATOM     20  C   UNL     1      -5.731 -12.920  18.137  0.00  0.00    +0.165 C 
BRANCH  20   3
ATOM      3  O   UNL     1      -4.457 -13.326  18.588  0.00  0.00    -0.394 OA
ATOM     40  H   UNL     1      -4.584 -14.112  19.145  0.00  0.00    +0.209 HD
ENDBRANCH  20   3
ENDBRANCH  12  20
BRANCH  13  23
ATOM     23  C   UNL     1      -9.556  -9.771  14.722  0.00  0.00    +0.106 C 
BRANCH  23  24
ATOM      4  O   UNL     1      -9.708  -7.587  15.751  0.00  0.00    -0.276 OA
ATOM      7  N   UNL     1     -11.512  -8.412  14.541  0.00  0.00    -0.311 N 
ATOM     24  C   UNL     1     -10.233  -8.468  15.076  0.00  0.00    +0.214 C 
ATOM     41  H   UNL     1     -11.853  -9.194  13.988  0.00  0.00    +0.149 HD
BRANCH   7  28
ATOM     28  C   UNL     1     -12.395  -7.282  14.722  0.00  0.00    +0.141 C 
BRANCH  28  34
ATOM      9  N   UNL     1     -12.365  -6.080  11.136  0.00  0.00    -0.263 NA
ATOM     34  C   UNL     1     -12.375  -6.359  13.538  0.00  0.00    -0.012 A 
ATOM     35  C   UNL     1     -12.349  -4.978  13.706  0.00  0.00    +0.008 A 
ATOM     36  C   UNL     1     -12.382  -6.855  12.244  0.00  0.00    +0.115 A 
ATOM     37  C   UNL     1     -12.331  -4.148  12.590  0.00  0.00    +0.020 A 
ATOM     38  C   UNL     1     -12.340  -4.743  11.339  0.00  0.00    +0.111 A 
ENDBRANCH  28  34
ENDBRANCH   7  28
ENDBRANCH  23  24
ENDBRANCH  13  23
TORSDOF 8
ENDMDL
MODEL 6
REMARK VINA RESULT:      -6.4     27.888     30.808
REMARK  Name = 11879504
REMARK  10 active torsions:
REMARK  status: ('A' for Active; 'I' for Inactive)
REMARK    1  A    between atoms: O_2  and  C_15
REMARK    2  A    between atoms: O_3  and  C_20
REMARK    3  A    between atoms: N_7  and  C_28
REMARK    4  A    between atoms: C_10  and  C_18
REMARK    5  A    between atoms: C_12  and  C_20
REMARK    6  A    between atoms: C_12  and  C_21
REMARK    7  A    between atoms: C_13  and  C_23
REMARK    8  A    between atoms: C_23  and  C_24
REMARK    9  A    between atoms: C_26  and  C_27
REMARK   10  A    between atoms: C_28  and  C_34
REMARK                            x       y       z     vdW  Elec       q    Type
REMARK                         _______ _______ _______ _____ _____    ______ ____
ROOT
ATOM      1  S   UNL     1      -7.381 -10.816  12.395  0.00  0.00    -0.057 S 
ATOM      5  O   UNL     1      -3.299 -10.548  10.147  0.00  0.00    -0.275 OA
ATOM      6  N   UNL     1      -4.812 -10.901  12.684  0.00  0.00    -0.229 NA
ATOM      8  N   UNL     1      -5.644 -10.552  10.449  0.00  0.00    -0.264 N 
ATOM     10  C   UNL     1      -5.376 -11.056  16.495  0.00  0.00    -0.019 C 
ATOM     11  C   UNL     1      -6.760 -11.827  16.339  0.00  0.00    +0.011 C 
ATOM     12  C   UNL     1      -7.588 -12.089  17.656  0.00  0.00    +0.021 C 
ATOM     13  C   UNL     1      -4.528 -11.289  15.161  0.00  0.00    +0.054 C 
ATOM     14  C   UNL     1      -4.585 -11.656  17.688  0.00  0.00    +0.010 C 
ATOM     15  C   UNL     1      -6.637 -12.641  18.756  0.00  0.00    +0.123 C 
ATOM     16  C   UNL     1      -7.608 -11.241  15.171  0.00  0.00    +0.049 C 
ATOM     17  C   UNL     1      -5.398 -11.780  18.968  0.00  0.00    +0.032 C 
ATOM     18  C   UNL     1      -5.556  -9.537  16.733  0.00  0.00    +0.012 C 
ATOM     19  C   UNL     1      -5.377 -11.069  13.934  0.00  0.00    +0.058 A 
ATOM     21  C   UNL     1      -8.656 -13.183  17.375  0.00  0.00    +0.016 C 
ATOM     22  C   UNL     1      -6.757 -11.069  13.960  0.00  0.00    +0.015 A 
ATOM     25  C   UNL     1      -5.772 -10.752  11.798  0.00  0.00    +0.165 A 
ATOM     26  C   UNL     1      -4.446 -10.464   9.721  0.00  0.00    +0.222 C 
ATOM     42  H   UNL     1      -6.523 -10.457   9.948  0.00  0.00    +0.157 HD
ENDROOT
BRANCH  26  27
ATOM     27  C   UNL     1      -4.700 -10.243   8.258  0.00  0.00    +0.075 C 
ATOM     29  C   UNL     1      -4.535 -11.560   7.496  0.00  0.00    +0.013 C 
ATOM     30  C   UNL     1      -6.094  -9.648   8.055  0.00  0.00    +0.013 C 
ATOM     31  C   UNL     1      -4.875 -11.402   6.017  0.00  0.00    +0.001 C 
ATOM     32  C   UNL     1      -6.431  -9.494   6.574  0.00  0.00    +0.001 C 
ATOM     33  C   UNL     1      -6.268 -10.811   5.820  0.00  0.00    +0.000 C 
ENDBRANCH  26  27
BRANCH  15   2
ATOM      2  O   UNL     1      -7.327 -12.767  19.999  0.00  0.00    -0.391 OA
ATOM     39  H   UNL     1      -8.221 -13.098  19.808  0.00  0.00    +0.210 HD
ENDBRANCH  15   2
BRANCH  12  20
ATOM     20  C   UNL     1      -8.374 -10.863  18.172  0.00  0.00    +0.165 C 
BRANCH  20   3
ATOM      3  O   UNL     1      -9.541 -11.336  18.808  0.00  0.00    -0.394 OA
ATOM     40  H   UNL     1     -10.211 -11.476  18.118  0.00  0.00    +0.209 HD
ENDBRANCH  20   3
ENDBRANCH  12  20
BRANCH  13  23
ATOM     23  C   UNL     1      -3.220 -10.490  15.089  0.00  0.00    +0.106 C 
BRANCH  23  24
ATOM      4  O   UNL     1      -0.951 -11.216  15.512  0.00  0.00    -0.276 OA
ATOM      7  N   UNL     1      -2.283 -12.419  14.036  0.00  0.00    -0.311 N 
ATOM     24  C   UNL     1      -2.016 -11.389  14.927  0.00  0.00    +0.214 C 
ATOM     41  H   UNL     1      -3.203 -12.479  13.608  0.00  0.00    +0.149 HD
BRANCH   7  28
ATOM     28  C   UNL     1      -1.312 -13.430  13.685  0.00  0.00    +0.141 C 
BRANCH  28  34
ATOM      9  N   UNL     1      -2.038 -16.932  12.455  0.00  0.00    -0.263 NA
ATOM     34  C   UNL     1      -1.935 -14.792  13.576  0.00  0.00    -0.012 A 
ATOM     35  C   UNL     1      -2.945 -15.190  14.445  0.00  0.00    +0.008 A 
ATOM     36  C   UNL     1      -1.520 -15.692  12.608  0.00  0.00    +0.115 A 
ATOM     37  C   UNL     1      -3.503 -16.458  14.319  0.00  0.00    +0.020 A 
ATOM     38  C   UNL     1      -3.019 -17.283  13.317  0.00  0.00    +0.111 A 
ENDBRANCH  28  34
ENDBRANCH   7  28
ENDBRANCH  23  24
ENDBRANCH  13  23
TORSDOF 8
ENDMDL
MODEL 7
REMARK VINA RESULT:      -6.0     26.858     30.523
REMARK  Name = 11879504
REMARK  10 active torsions:
REMARK  status: ('A' for Active; 'I' for Inactive)
REMARK    1  A    between atoms: O_2  and  C_15
REMARK    2  A    between atoms: O_3  and  C_20
REMARK    3  A    between atoms: N_7  and  C_28
REMARK    4  A    between atoms: C_10  and  C_18
REMARK    5  A    between atoms: C_12  and  C_20
REMARK    6  A    between atoms: C_12  and  C_21
REMARK    7  A    between atoms: C_13  and  C_23
REMARK    8  A    between atoms: C_23  and  C_24
REMARK    9  A    between atoms: C_26  and  C_27
REMARK   10  A    between atoms: C_28  and  C_34
REMARK                            x       y       z     vdW  Elec       q    Type
REMARK                         _______ _______ _______ _____ _____    ______ ____
ROOT
ATOM      1  S   UNL     1      -6.324  -9.989   5.291  0.00  0.00    -0.057 S 
ATOM      5  O   UNL     1      -7.495  -7.984   9.341  0.00  0.00    -0.275 OA
ATOM      6  N   UNL     1      -8.149  -8.617   6.509  0.00  0.00    -0.229 NA
ATOM      8  N   UNL     1      -6.189  -9.197   7.787  0.00  0.00    -0.264 N 
ATOM     10  C   UNL     1     -10.003  -8.338   3.140  0.00  0.00    -0.019 C 
ATOM     11  C   UNL     1      -9.461  -9.747   2.634  0.00  0.00    +0.011 C 
ATOM     12  C   UNL     1      -9.816 -10.164   1.155  0.00  0.00    +0.021 C 
ATOM     13  C   UNL     1      -9.918  -8.320   4.736  0.00  0.00    +0.054 C 
ATOM     14  C   UNL     1     -11.490  -8.181   2.727  0.00  0.00    +0.010 C 
ATOM     15  C   UNL     1     -11.327  -9.899   0.897  0.00  0.00    +0.123 C 
ATOM     16  C   UNL     1      -7.959  -9.942   2.997  0.00  0.00    +0.049 C 
ATOM     17  C   UNL     1     -11.759  -8.483   1.260  0.00  0.00    +0.032 C 
ATOM     18  C   UNL     1      -9.200  -7.144   2.567  0.00  0.00    +0.012 C 
ATOM     19  C   UNL     1      -8.581  -8.827   5.212  0.00  0.00    +0.058 A 
ATOM     21  C   UNL     1      -9.579 -11.691   0.986  0.00  0.00    +0.016 C 
ATOM     22  C   UNL     1      -7.726  -9.568   4.421  0.00  0.00    +0.015 A 
ATOM     25  C   UNL     1      -6.969  -9.179   6.661  0.00  0.00    +0.165 A 
ATOM     26  C   UNL     1      -6.489  -8.613   9.029  0.00  0.00    +0.222 C 
ATOM     42  H   UNL     1      -5.305  -9.686   7.684  0.00  0.00    +0.157 HD
ENDROOT
BRANCH  26  27
ATOM     27  C   UNL     1      -5.395  -8.842  10.030  0.00  0.00    +0.075 C 
ATOM     29  C   UNL     1      -5.696 -10.095  10.855  0.00  0.00    +0.013 C 
ATOM     30  C   UNL     1      -4.048  -8.953   9.313  0.00  0.00    +0.013 C 
ATOM     31  C   UNL     1      -4.562 -10.418  11.823  0.00  0.00    +0.001 C 
ATOM     32  C   UNL     1      -2.917  -9.280  10.285  0.00  0.00    +0.001 C 
ATOM     33  C   UNL     1      -3.222 -10.532  11.103  0.00  0.00    +0.000 C 
ENDBRANCH  26  27
BRANCH  15   2
ATOM      2  O   UNL     1     -11.654 -10.142  -0.471  0.00  0.00    -0.391 OA
ATOM     39  H   UNL     1     -11.450  -9.334  -0.970  0.00  0.00    +0.210 HD
ENDBRANCH  15   2
BRANCH  12  20
ATOM     20  C   UNL     1      -8.946  -9.486   0.073  0.00  0.00    +0.165 C 
BRANCH  20   3
ATOM      3  O   UNL     1      -8.035 -10.447  -0.412  0.00  0.00    -0.394 OA
ATOM     40  H   UNL     1      -7.962 -10.320  -1.372  0.00  0.00    +0.209 HD
ENDBRANCH  20   3
ENDBRANCH  12  20
BRANCH  13  23
ATOM     23  C   UNL     1     -10.270  -6.972   5.377  0.00  0.00    +0.106 C 
BRANCH  23  24
ATOM      4  O   UNL     1     -12.305  -7.327   6.636  0.00  0.00    -0.276 OA
ATOM      7  N   UNL     1     -10.292  -7.053   7.765  0.00  0.00    -0.311 N 
ATOM     24  C   UNL     1     -11.092  -7.140   6.634  0.00  0.00    +0.214 C 
ATOM     41  H   UNL     1      -9.293  -6.902   7.656  0.00  0.00    +0.149 HD
BRANCH   7  28
ATOM     28  C   UNL     1     -10.810  -7.173   9.108  0.00  0.00    +0.141 C 
BRANCH  28  34
ATOM      9  N   UNL     1     -12.635  -4.622  11.222  0.00  0.00    -0.263 NA
ATOM     34  C   UNL     1     -11.259  -5.850   9.657  0.00  0.00    -0.012 A 
ATOM     35  C   UNL     1     -10.755  -4.656   9.152  0.00  0.00    +0.008 A 
ATOM     36  C   UNL     1     -12.188  -5.779  10.682  0.00  0.00    +0.115 A 
ATOM     37  C   UNL     1     -11.191  -3.445   9.681  0.00  0.00    +0.020 A 
ATOM     38  C   UNL     1     -12.123  -3.482  10.705  0.00  0.00    +0.111 A 
ENDBRANCH  28  34
ENDBRANCH   7  28
ENDBRANCH  23  24
ENDBRANCH  13  23
TORSDOF 8
ENDMDL
MODEL 8
REMARK VINA RESULT:      -5.9     30.290     34.842
REMARK  Name = 11879504
REMARK  10 active torsions:
REMARK  status: ('A' for Active; 'I' for Inactive)
REMARK    1  A    between atoms: O_2  and  C_15
REMARK    2  A    between atoms: O_3  and  C_20
REMARK    3  A    between atoms: N_7  and  C_28
REMARK    4  A    between atoms: C_10  and  C_18
REMARK    5  A    between atoms: C_12  and  C_20
REMARK    6  A    between atoms: C_12  and  C_21
REMARK    7  A    between atoms: C_13  and  C_23
REMARK    8  A    between atoms: C_23  and  C_24
REMARK    9  A    between atoms: C_26  and  C_27
REMARK   10  A    between atoms: C_28  and  C_34
REMARK                            x       y       z     vdW  Elec       q    Type
REMARK                         _______ _______ _______ _____ _____    ______ ____
ROOT
ATOM      1  S   UNL     1     -14.945   7.379  19.191  0.00  0.00    -0.057 S 
ATOM      5  O   UNL     1     -15.649   8.502  23.667  0.00  0.00    -0.275 OA
ATOM      6  N   UNL     1     -14.230   8.977  21.096  0.00  0.00    -0.229 NA
ATOM      8  N   UNL     1     -15.916   7.338  21.627  0.00  0.00    -0.264 N 
ATOM     10  C   UNL     1     -11.510  10.360  18.740  0.00  0.00    -0.019 C 
ATOM     11  C   UNL     1     -12.387  10.090  17.439  0.00  0.00    +0.011 C 
ATOM     12  C   UNL     1     -11.706  10.370  16.044  0.00  0.00    +0.021 C 
ATOM     13  C   UNL     1     -12.497  10.442  19.994  0.00  0.00    +0.054 C 
ATOM     14  C   UNL     1     -10.785  11.724  18.598  0.00  0.00    +0.010 C 
ATOM     15  C   UNL     1     -10.991  11.750  16.091  0.00  0.00    +0.123 C 
ATOM     16  C   UNL     1     -13.112   8.714  17.518  0.00  0.00    +0.049 C 
ATOM     17  C   UNL     1     -10.047  11.897  17.279  0.00  0.00    +0.032 C 
ATOM     18  C   UNL     1     -10.450   9.259  18.990  0.00  0.00    +0.012 C 
ATOM     19  C   UNL     1     -13.488   9.306  19.977  0.00  0.00    +0.058 A 
ATOM     21  C   UNL     1     -12.808  10.457  14.950  0.00  0.00    +0.016 C 
ATOM     22  C   UNL     1     -13.761   8.556  18.851  0.00  0.00    +0.015 A 
ATOM     25  C   UNL     1     -15.025   7.972  20.802  0.00  0.00    +0.165 A 
ATOM     26  C   UNL     1     -16.170   7.632  22.977  0.00  0.00    +0.222 C 
ATOM     42  H   UNL     1     -16.430   6.577  21.193  0.00  0.00    +0.157 HD
ENDROOT
BRANCH  26  27
ATOM     27  C   UNL     1     -17.216   6.726  23.556  0.00  0.00    +0.075 C 
ATOM     29  C   UNL     1     -18.263   6.390  22.491  0.00  0.00    +0.013 C 
ATOM     30  C   UNL     1     -16.560   5.462  24.115  0.00  0.00    +0.013 C 
ATOM     31  C   UNL     1     -19.296   5.396  23.010  0.00  0.00    +0.001 C 
ATOM     32  C   UNL     1     -17.598   4.468  24.631  0.00  0.00    +0.001 C 
ATOM     33  C   UNL     1     -18.637   4.136  23.563  0.00  0.00    +0.000 C 
ENDBRANCH  26  27
BRANCH  15   2
ATOM      2  O   UNL     1     -10.256  11.977  14.889  0.00  0.00    -0.391 OA
ATOM     39  H   UNL     1      -9.789  12.824  14.985  0.00  0.00    +0.210 HD
ENDBRANCH  15   2
BRANCH  12  20
ATOM     20  C   UNL     1     -10.738   9.263  15.571  0.00  0.00    +0.165 C 
BRANCH  20   3
ATOM      3  O   UNL     1     -10.741   9.261  14.161  0.00  0.00    -0.394 OA
ATOM     40  H   UNL     1      -9.869   9.573  13.868  0.00  0.00    +0.209 HD
ENDBRANCH  20   3
ENDBRANCH  12  20
BRANCH  13  23
ATOM     23  C   UNL     1     -11.794  10.554  21.353  0.00  0.00    +0.106 C 
BRANCH  23  24
ATOM      4  O   UNL     1     -13.419  12.255  21.920  0.00  0.00    -0.276 OA
ATOM      7  N   UNL     1     -11.941  11.493  23.545  0.00  0.00    -0.311 N 
ATOM     24  C   UNL     1     -12.492  11.531  22.271  0.00  0.00    +0.214 C 
ATOM     41  H   UNL     1     -11.177  10.851  23.736  0.00  0.00    +0.149 HD
BRANCH   7  28
ATOM     28  C   UNL     1     -12.408  12.325  24.631  0.00  0.00    +0.141 C 
BRANCH  28  34
ATOM      9  N   UNL     1     -11.832  12.112  28.363  0.00  0.00    -0.263 NA
ATOM     34  C   UNL     1     -11.945  11.816  25.965  0.00  0.00    -0.012 A 
ATOM     35  C   UNL     1     -11.229  10.628  26.071  0.00  0.00    +0.008 A 
ATOM     36  C   UNL     1     -12.218  12.514  27.130  0.00  0.00    +0.115 A 
ATOM     37  C   UNL     1     -10.814  10.182  27.321  0.00  0.00    +0.020 A 
ATOM     38  C   UNL     1     -11.138  10.953  28.426  0.00  0.00    +0.111 A 
ENDBRANCH  28  34
ENDBRANCH   7  28
ENDBRANCH  23  24
ENDBRANCH  13  23
TORSDOF 8
ENDMDL
MODEL 9
REMARK VINA RESULT:      -5.8      5.883      9.194
REMARK  Name = 11879504
REMARK  10 active torsions:
REMARK  status: ('A' for Active; 'I' for Inactive)
REMARK    1  A    between atoms: O_2  and  C_15
REMARK    2  A    between atoms: O_3  and  C_20
REMARK    3  A    between atoms: N_7  and  C_28
REMARK    4  A    between atoms: C_10  and  C_18
REMARK    5  A    between atoms: C_12  and  C_20
REMARK    6  A    between atoms: C_12  and  C_21
REMARK    7  A    between atoms: C_13  and  C_23
REMARK    8  A    between atoms: C_23  and  C_24
REMARK    9  A    between atoms: C_26  and  C_27
REMARK   10  A    between atoms: C_28  and  C_34
REMARK                            x       y       z     vdW  Elec       q    Type
REMARK                         _______ _______ _______ _____ _____    ______ ____
ROOT
ATOM      1  S   UNL     1       9.488   8.812   1.544  0.00  0.00    -0.057 S 
ATOM      5  O   UNL     1      10.605   4.472   2.850  0.00  0.00    -0.275 OA
ATOM      6  N   UNL     1       9.974   6.418   0.691  0.00  0.00    -0.229 NA
ATOM      8  N   UNL     1      10.086   6.768   3.073  0.00  0.00    -0.264 N 
ATOM     10  C   UNL     1       8.993   7.617  -2.840  0.00  0.00    -0.019 C 
ATOM     11  C   UNL     1       9.503   9.100  -2.565  0.00  0.00    +0.011 C 
ATOM     12  C   UNL     1       9.241  10.170  -3.694  0.00  0.00    +0.021 C 
ATOM     13  C   UNL     1       9.730   6.642  -1.810  0.00  0.00    +0.054 C 
ATOM     14  C   UNL     1       9.389   7.196  -4.280  0.00  0.00    +0.010 C 
ATOM     15  C   UNL     1       9.647   9.570  -5.070  0.00  0.00    +0.123 C 
ATOM     16  C   UNL     1       9.102   9.583  -1.139  0.00  0.00    +0.049 C 
ATOM     17  C   UNL     1       9.010   8.213  -5.346  0.00  0.00    +0.032 C 
ATOM     18  C   UNL     1       7.460   7.468  -2.683  0.00  0.00    +0.012 C 
ATOM     19  C   UNL     1       9.691   7.203  -0.411  0.00  0.00    +0.058 A 
ATOM     21  C   UNL     1      10.149  11.406  -3.442  0.00  0.00    +0.016 C 
ATOM     22  C   UNL     1       9.425   8.529  -0.135  0.00  0.00    +0.015 A 
ATOM     25  C   UNL     1       9.890   7.158   1.775  0.00  0.00    +0.165 A 
ATOM     26  C   UNL     1      10.424   5.480   3.524  0.00  0.00    +0.222 C 
ATOM     42  H   UNL     1       9.965   7.505   3.761  0.00  0.00    +0.157 HD
ENDROOT
BRANCH  26  27
ATOM     27  C   UNL     1      10.559   5.433   5.017  0.00  0.00    +0.075 C 
ATOM     29  C   UNL     1      11.587   6.468   5.481  0.00  0.00    +0.013 C 
ATOM     30  C   UNL     1       9.196   5.663   5.673  0.00  0.00    +0.013 C 
ATOM     31  C   UNL     1      11.689   6.518   7.002  0.00  0.00    +0.001 C 
ATOM     32  C   UNL     1       9.304   5.715   7.195  0.00  0.00    +0.001 C 
ATOM     33  C   UNL     1      10.328   6.751   7.651  0.00  0.00    +0.000 C 
ENDBRANCH  26  27
BRANCH  15   2
ATOM      2  O   UNL     1       9.303  10.463  -6.129  0.00  0.00    -0.391 OA
ATOM     39  H   UNL     1       9.043   9.925  -6.896  0.00  0.00    +0.210 HD
ENDBRANCH  15   2
BRANCH  12  20
ATOM     20  C   UNL     1       7.797  10.716  -3.736  0.00  0.00    +0.165 C 
BRANCH  20   3
ATOM      3  O   UNL     1       7.851  12.040  -4.220  0.00  0.00    -0.394 OA
ATOM     40  H   UNL     1       7.494  12.618  -3.525  0.00  0.00    +0.209 HD
ENDBRANCH  20   3
ENDBRANCH  12  20
BRANCH  13  23
ATOM     23  C   UNL     1       9.241   5.188  -1.846  0.00  0.00    +0.106 C 
BRANCH  23  24
ATOM      4  O   UNL     1      10.160   3.211  -2.894  0.00  0.00    -0.276 OA
ATOM      7  N   UNL     1      11.568   4.660  -1.745  0.00  0.00    -0.311 N 
ATOM     24  C   UNL     1      10.343   4.230  -2.234  0.00  0.00    +0.214 C 
ATOM     41  H   UNL     1      11.614   5.525  -1.213  0.00  0.00    +0.149 HD
BRANCH   7  28
ATOM     28  C   UNL     1      12.801   3.937  -1.959  0.00  0.00    +0.141 C 
BRANCH  28  34
ATOM      9  N   UNL     1      13.635   3.132   1.641  0.00  0.00    -0.263 NA
ATOM     34  C   UNL     1      13.586   3.777  -0.689  0.00  0.00    -0.012 A 
ATOM     35  C   UNL     1      14.936   4.103  -0.635  0.00  0.00    +0.008 A 
ATOM     36  C   UNL     1      12.987   3.300   0.466  0.00  0.00    +0.115 A 
ATOM     37  C   UNL     1      15.637   3.944   0.556  0.00  0.00    +0.020 A 
ATOM     38  C   UNL     1      14.947   3.460   1.655  0.00  0.00    +0.111 A 
ENDBRANCH  28  34
ENDBRANCH   7  28
ENDBRANCH  23  24
ENDBRANCH  13  23
TORSDOF 8
ENDMDL
MODEL 10
REMARK VINA RESULT:      -5.8      1.803      2.411
REMARK  Name = 11879504
REMARK  10 active torsions:
REMARK  status: ('A' for Active; 'I' for Inactive)
REMARK    1  A    between atoms: O_2  and  C_15
REMARK    2  A    between atoms: O_3  and  C_20
REMARK    3  A    between atoms: N_7  and  C_28
REMARK    4  A    between atoms: C_10  and  C_18
REMARK    5  A    between atoms: C_12  and  C_20
REMARK    6  A    between atoms: C_12  and  C_21
REMARK    7  A    between atoms: C_13  and  C_23
REMARK    8  A    between atoms: C_23  and  C_24
REMARK    9  A    between atoms: C_26  and  C_27
REMARK   10  A    between atoms: C_28  and  C_34
REMARK                            x       y       z     vdW  Elec       q    Type
REMARK                         _______ _______ _______ _____ _____    ______ ____
ROOT
ATOM      1  S   UNL     1      15.137   7.950   6.430  0.00  0.00    -0.057 S 
ATOM      5  O   UNL     1      11.684   6.260   3.783  0.00  0.00    -0.275 OA
ATOM      6  N   UNL     1      14.489   7.218   4.035  0.00  0.00    -0.229 NA
ATOM      8  N   UNL     1      12.781   7.041   5.726  0.00  0.00    -0.264 N 
ATOM     10  C   UNL     1      17.930   8.495   2.853  0.00  0.00    -0.019 C 
ATOM     11  C   UNL     1      18.623   8.156   4.246  0.00  0.00    +0.011 C 
ATOM     12  C   UNL     1      20.127   8.595   4.425  0.00  0.00    +0.021 C 
ATOM     13  C   UNL     1      16.612   7.600   2.727  0.00  0.00    +0.054 C 
ATOM     14  C   UNL     1      18.891   8.117   1.695  0.00  0.00    +0.010 C 
ATOM     15  C   UNL     1      20.934   8.183   3.161  0.00  0.00    +0.123 C 
ATOM     16  C   UNL     1      17.709   8.547   5.445  0.00  0.00    +0.049 C 
ATOM     17  C   UNL     1      20.301   8.664   1.861  0.00  0.00    +0.032 C 
ATOM     18  C   UNL     1      17.552   9.991   2.717  0.00  0.00    +0.012 C 
ATOM     19  C   UNL     1      15.804   7.643   3.999  0.00  0.00    +0.058 A 
ATOM     21  C   UNL     1      20.739   7.833   5.634  0.00  0.00    +0.016 C 
ATOM     22  C   UNL     1      16.321   8.054   5.210  0.00  0.00    +0.015 A 
ATOM     25  C   UNL     1      14.034   7.341   5.262  0.00  0.00    +0.165 A 
ATOM     26  C   UNL     1      11.706   6.531   4.978  0.00  0.00    +0.222 C 
ATOM     42  H   UNL     1      12.640   7.219   6.716  0.00  0.00    +0.157 HD
ENDROOT
BRANCH  26  27
ATOM     27  C   UNL     1      10.487   6.323   5.828  0.00  0.00    +0.075 C 
ATOM     29  C   UNL     1      10.899   6.106   7.286  0.00  0.00    +0.013 C 
ATOM     30  C   UNL     1       9.541   7.516   5.684  0.00  0.00    +0.013 C 
ATOM     31  C   UNL     1       9.685   5.982   8.202  0.00  0.00    +0.001 C 
ATOM     32  C   UNL     1       8.329   7.390   6.605  0.00  0.00    +0.001 C 
ATOM     33  C   UNL     1       8.746   7.177   8.057  0.00  0.00    +0.000 C 
ENDBRANCH  26  27
BRANCH  15   2
ATOM      2  O   UNL     1      22.270   8.680   3.233  0.00  0.00    -0.391 OA
ATOM     39  H   UNL     1      22.278   9.411   3.874  0.00  0.00    +0.210 HD
ENDBRANCH  15   2
BRANCH  12  20
ATOM     20  C   UNL     1      20.323  10.095   4.738  0.00  0.00    +0.165 C 
BRANCH  20   3
ATOM      3  O   UNL     1      21.415  10.212   5.623  0.00  0.00    -0.394 OA
ATOM     40  H   UNL     1      21.091  10.651   6.427  0.00  0.00    +0.209 HD
ENDBRANCH  20   3
ENDBRANCH  12  20
BRANCH  13  23
ATOM     23  C   UNL     1      15.745   7.912   1.500  0.00  0.00    +0.106 C 
BRANCH  23  24
ATOM      4  O   UNL     1      14.067   6.404   0.625  0.00  0.00    -0.276 OA
ATOM      7  N   UNL     1      16.315   5.838   0.459  0.00  0.00    -0.311 N 
ATOM     24  C   UNL     1      15.253   6.655   0.821  0.00  0.00    +0.214 C 
ATOM     41  H   UNL     1      17.264   6.141   0.661  0.00  0.00    +0.149 HD
BRANCH   7  28
ATOM     28  C   UNL     1      16.142   4.566  -0.204  0.00  0.00    +0.141 C 
BRANCH  28  34
ATOM      9  N   UNL     1      14.715   4.809  -3.698  0.00  0.00    -0.263 NA
ATOM     34  C   UNL     1      16.068   4.717  -1.696  0.00  0.00    -0.012 A 
ATOM     35  C   UNL     1      17.218   4.900  -2.456  0.00  0.00    +0.008 A 
ATOM     36  C   UNL     1      14.852   4.680  -2.359  0.00  0.00    +0.115 A 
ATOM     37  C   UNL     1      17.118   5.036  -3.837  0.00  0.00    +0.020 A 
ATOM     38  C   UNL     1      15.855   4.984  -4.404  0.00  0.00    +0.111 A 
ENDBRANCH  28  34
ENDBRANCH   7  28
ENDBRANCH  23  24
ENDBRANCH  13  23
TORSDOF 8
ENDMDL
