MODEL 1
REMARK VINA RESULT:      -7.8      0.000      0.000
REMARK  Name = 7144101
REMARK  4 active torsions:
REMARK  status: ('A' for Active; 'I' for Inactive)
REMARK    1  A    between atoms: O_3  and  C_27
REMARK    2  A    between atoms: O_3  and  C_30
REMARK    3  A    between atoms: C_14  and  C_19
REMARK    4  A    between atoms: C_16  and  C_20
REMARK                            x       y       z     vdW  Elec       q    Type
REMARK                         _______ _______ _______ _____ _____    ______ ____
ROOT
ATOM      1  O   UNL     1      10.944   8.915  17.184  0.00  0.00    -0.268 OA
ATOM      2  O   UNL     1      11.544  11.891  21.251  0.00  0.00    -0.270 OA
ATOM      4  N   UNL     1      12.419   9.802  21.830  0.00  0.00    -0.297 N 
ATOM      5  N   UNL     1      12.103   8.240  19.105  0.00  0.00    -0.311 N 
ATOM      7  C   UNL     1      10.901   7.899  21.346  0.00  0.00    +0.027 C 
ATOM      8  C   UNL     1      13.337   7.581  21.193  0.00  0.00    +0.054 C 
ATOM      9  C   UNL     1      12.031   6.921  21.635  0.00  0.00    +0.018 C 
ATOM     10  C   UNL     1      11.112   9.213  22.116  0.00  0.00    +0.113 C 
ATOM     11  C   UNL     1      10.832   8.125  19.834  0.00  0.00    +0.130 C 
ATOM     12  C   UNL     1      13.554   8.883  21.994  0.00  0.00    +0.117 C 
ATOM     13  C   UNL     1      13.334   7.885  19.692  0.00  0.00    +0.034 A 
ATOM     14  C   UNL     1      14.462   7.856  18.937  0.00  0.00    +0.002 A 
ATOM     15  C   UNL     1      11.994   8.610  17.752  0.00  0.00    +0.252 A 
ATOM     16  C   UNL     1      12.496  11.124  21.387  0.00  0.00    +0.247 C 
ATOM     17  C   UNL     1      14.388   8.236  17.539  0.00  0.00    +0.015 A 
ATOM     18  C   UNL     1      13.246   8.608  16.962  0.00  0.00    +0.071 A 
ENDROOT
BRANCH  16  20
ATOM      6  N   UNL     1      16.320  12.683  20.351  0.00  0.00    -0.263 NA
ATOM     20  C   UNL     1      13.814  11.662  21.030  0.00  0.00    +0.040 A 
ATOM     23  C   UNL     1      14.309  11.487  19.745  0.00  0.00    +0.033 A 
ATOM     24  C   UNL     1      14.565  12.343  21.977  0.00  0.00    +0.033 A 
ATOM     28  C   UNL     1      15.558  12.012  19.457  0.00  0.00    +0.111 A 
ATOM     29  C   UNL     1      15.803  12.831  21.590  0.00  0.00    +0.111 A 
ENDBRANCH  16  20
BRANCH  14  19
ATOM     19  C   UNL     1      15.771   7.466  19.506  0.00  0.00    -0.016 A 
ATOM     21  C   UNL     1      16.342   6.248  19.154  0.00  0.00    +0.012 A 
ATOM     22  C   UNL     1      16.420   8.321  20.391  0.00  0.00    +0.012 A 
ATOM     25  C   UNL     1      17.576   5.881  19.692  0.00  0.00    +0.046 A 
ATOM     26  C   UNL     1      17.654   7.955  20.929  0.00  0.00    +0.046 A 
ATOM     27  C   UNL     1      18.231   6.734  20.579  0.00  0.00    +0.120 A 
BRANCH  27   3
ATOM      3  O   UNL     1      19.434   6.376  21.105  0.00  0.00    -0.495 OA
ATOM     30  C   UNL     1      19.683   6.731  22.464  0.00  0.00    +0.277 C 
ENDBRANCH  27   3
ENDBRANCH  14  19
TORSDOF 3
ENDMDL
MODEL 2
REMARK VINA RESULT:      -7.3      1.717      3.529
REMARK  Name = 7144101
REMARK  4 active torsions:
REMARK  status: ('A' for Active; 'I' for Inactive)
REMARK    1  A    between atoms: O_3  and  C_27
REMARK    2  A    between atoms: O_3  and  C_30
REMARK    3  A    between atoms: C_14  and  C_19
REMARK    4  A    between atoms: C_16  and  C_20
REMARK                            x       y       z     vdW  Elec       q    Type
REMARK                         _______ _______ _______ _____ _____    ______ ____
ROOT
ATOM      1  O   UNL     1      10.224   9.183  22.238  0.00  0.00    -0.268 OA
ATOM      2  O   UNL     1      12.421  12.726  19.344  0.00  0.00    -0.270 OA
ATOM      4  N   UNL     1      14.139  11.722  20.572  0.00  0.00    -0.297 N 
ATOM      5  N   UNL     1      12.545   9.469  22.106  0.00  0.00    -0.311 N 
ATOM      7  C   UNL     1      13.691  11.579  23.009  0.00  0.00    +0.027 C 
ATOM      8  C   UNL     1      15.025   9.826  21.913  0.00  0.00    +0.054 C 
ATOM      9  C   UNL     1      14.900  10.672  23.180  0.00  0.00    +0.018 C 
ATOM     10  C   UNL     1      13.868  12.493  21.785  0.00  0.00    +0.113 C 
ATOM     11  C   UNL     1      12.441  10.704  22.895  0.00  0.00    +0.130 C 
ATOM     12  C   UNL     1      15.235  10.751  20.695  0.00  0.00    +0.117 C 
ATOM     13  C   UNL     1      13.790   8.949  21.697  0.00  0.00    +0.034 A 
ATOM     14  C   UNL     1      13.853   7.727  21.107  0.00  0.00    +0.002 A 
ATOM     15  C   UNL     1      11.336   8.783  21.891  0.00  0.00    +0.252 A 
ATOM     16  C   UNL     1      13.337  11.912  19.444  0.00  0.00    +0.247 C 
ATOM     17  C   UNL     1      12.626   6.992  20.866  0.00  0.00    +0.015 A 
ATOM     18  C   UNL     1      11.431   7.472  21.210  0.00  0.00    +0.071 A 
ENDROOT
BRANCH  16  20
ATOM      6  N   UNL     1      14.043   9.458  16.037  0.00  0.00    -0.263 NA
ATOM     20  C   UNL     1      13.581  11.067  18.269  0.00  0.00    +0.040 A 
ATOM     23  C   UNL     1      12.969   9.824  18.171  0.00  0.00    +0.033 A 
ATOM     24  C   UNL     1      14.423  11.509  17.259  0.00  0.00    +0.033 A 
ATOM     28  C   UNL     1      13.231   9.064  17.043  0.00  0.00    +0.111 A 
ATOM     29  C   UNL     1      14.619  10.673  16.171  0.00  0.00    +0.111 A 
ENDBRANCH  16  20
BRANCH  14  19
ATOM     19  C   UNL     1      15.140   7.132  20.685  0.00  0.00    -0.016 A 
ATOM     21  C   UNL     1      15.329   6.765  19.357  0.00  0.00    +0.012 A 
ATOM     22  C   UNL     1      16.152   6.943  21.621  0.00  0.00    +0.012 A 
ATOM     25  C   UNL     1      16.543   6.203  18.959  0.00  0.00    +0.046 A 
ATOM     26  C   UNL     1      17.366   6.382  21.224  0.00  0.00    +0.046 A 
ATOM     27  C   UNL     1      17.561   6.012  19.893  0.00  0.00    +0.120 A 
BRANCH  27   3
ATOM      3  O   UNL     1      18.745   5.463  19.506  0.00  0.00    -0.495 OA
ATOM     30  C   UNL     1      19.802   5.455  20.464  0.00  0.00    +0.277 C 
ENDBRANCH  27   3
ENDBRANCH  14  19
TORSDOF 3
ENDMDL
MODEL 3
REMARK VINA RESULT:      -7.2     13.507     16.438
REMARK  Name = 7144101
REMARK  4 active torsions:
REMARK  status: ('A' for Active; 'I' for Inactive)
REMARK    1  A    between atoms: O_3  and  C_27
REMARK    2  A    between atoms: O_3  and  C_30
REMARK    3  A    between atoms: C_14  and  C_19
REMARK    4  A    between atoms: C_16  and  C_20
REMARK                            x       y       z     vdW  Elec       q    Type
REMARK                         _______ _______ _______ _____ _____    ______ ____
ROOT
ATOM      1  O   UNL     1       7.177   9.247   4.624  0.00  0.00    -0.268 OA
ATOM      2  O   UNL     1      11.313  10.068   7.449  0.00  0.00    -0.270 OA
ATOM      4  N   UNL     1      11.238   7.766   7.045  0.00  0.00    -0.297 N 
ATOM      5  N   UNL     1       8.729   7.570   5.139  0.00  0.00    -0.311 N 
ATOM      7  C   UNL     1       9.042   6.722   7.540  0.00  0.00    +0.027 C 
ATOM      8  C   UNL     1      10.435   5.820   5.724  0.00  0.00    +0.054 C 
ATOM      9  C   UNL     1       9.500   5.436   6.870  0.00  0.00    +0.018 C 
ATOM     10  C   UNL     1      10.246   7.507   8.087  0.00  0.00    +0.113 C 
ATOM     11  C   UNL     1       8.239   7.538   6.524  0.00  0.00    +0.130 C 
ATOM     12  C   UNL     1      11.656   6.578   6.287  0.00  0.00    +0.117 C 
ATOM     13  C   UNL     1       9.721   6.680   4.679  0.00  0.00    +0.034 A 
ATOM     14  C   UNL     1      10.031   6.637   3.358  0.00  0.00    +0.002 A 
ATOM     15  C   UNL     1       8.059   8.460   4.280  0.00  0.00    +0.252 A 
ATOM     16  C   UNL     1      11.664   9.076   6.812  0.00  0.00    +0.247 C 
ATOM     17  C   UNL     1       9.364   7.543   2.443  0.00  0.00    +0.015 A 
ATOM     18  C   UNL     1       8.447   8.419   2.852  0.00  0.00    +0.071 A 
ENDROOT
BRANCH  16  20
ATOM      6  N   UNL     1      14.378   9.771   3.606  0.00  0.00    -0.263 NA
ATOM     20  C   UNL     1      12.599   9.316   5.706  0.00  0.00    +0.040 A 
ATOM     23  C   UNL     1      13.967   9.305   5.942  0.00  0.00    +0.033 A 
ATOM     24  C   UNL     1      12.115   9.554   4.428  0.00  0.00    +0.033 A 
ATOM     28  C   UNL     1      14.809   9.536   4.866  0.00  0.00    +0.111 A 
ATOM     29  C   UNL     1      13.039   9.774   3.419  0.00  0.00    +0.111 A 
ENDBRANCH  16  20
BRANCH  14  19
ATOM     19  C   UNL     1      11.048   5.702   2.827  0.00  0.00    -0.016 A 
ATOM     21  C   UNL     1      10.709   4.375   2.588  0.00  0.00    +0.012 A 
ATOM     22  C   UNL     1      12.338   6.158   2.573  0.00  0.00    +0.012 A 
ATOM     25  C   UNL     1      11.668   3.493   2.088  0.00  0.00    +0.046 A 
ATOM     26  C   UNL     1      13.298   5.277   2.073  0.00  0.00    +0.046 A 
ATOM     27  C   UNL     1      12.962   3.945   1.832  0.00  0.00    +0.120 A 
BRANCH  27   3
ATOM      3  O   UNL     1      13.899   3.085   1.345  0.00  0.00    -0.495 OA
ATOM     30  C   UNL     1      15.232   3.578   1.218  0.00  0.00    +0.277 C 
ENDBRANCH  27   3
ENDBRANCH  14  19
TORSDOF 3
ENDMDL
MODEL 4
REMARK VINA RESULT:      -6.7     27.538     29.575
REMARK  Name = 7144101
REMARK  4 active torsions:
REMARK  status: ('A' for Active; 'I' for Inactive)
REMARK    1  A    between atoms: O_3  and  C_27
REMARK    2  A    between atoms: O_3  and  C_30
REMARK    3  A    between atoms: C_14  and  C_19
REMARK    4  A    between atoms: C_16  and  C_20
REMARK                            x       y       z     vdW  Elec       q    Type
REMARK                         _______ _______ _______ _____ _____    ______ ____
ROOT
ATOM      1  O   UNL     1      -6.817 -15.049  16.965  0.00  0.00    -0.268 OA
ATOM      2  O   UNL     1      -8.328 -10.639  18.972  0.00  0.00    -0.270 OA
ATOM      4  N   UNL     1      -6.367 -10.183  17.784  0.00  0.00    -0.297 N 
ATOM      5  N   UNL     1      -5.770 -13.006  16.501  0.00  0.00    -0.311 N 
ATOM      7  C   UNL     1      -4.486 -11.715  18.309  0.00  0.00    +0.027 C 
ATOM      8  C   UNL     1      -4.696 -10.780  16.042  0.00  0.00    +0.054 C 
ATOM      9  C   UNL     1      -3.696 -11.150  17.137  0.00  0.00    +0.018 C 
ATOM     10  C   UNL     1      -5.484 -10.674  18.841  0.00  0.00    +0.113 C 
ATOM     11  C   UNL     1      -5.185 -12.997  17.849  0.00  0.00    +0.130 C 
ATOM     12  C   UNL     1      -5.674  -9.711  16.577  0.00  0.00    +0.117 C 
ATOM     13  C   UNL     1      -5.476 -12.004  15.554  0.00  0.00    +0.034 A 
ATOM     14  C   UNL     1      -5.910 -12.133  14.274  0.00  0.00    +0.002 A 
ATOM     15  C   UNL     1      -6.542 -14.138  16.183  0.00  0.00    +0.252 A 
ATOM     16  C   UNL     1      -7.751 -10.244  17.960  0.00  0.00    +0.247 C 
ATOM     17  C   UNL     1      -6.712 -13.286  13.911  0.00  0.00    +0.015 A 
ATOM     18  C   UNL     1      -7.036 -14.233  14.791  0.00  0.00    +0.071 A 
ENDROOT
BRANCH  16  20
ATOM      6  N   UNL     1     -10.248  -9.012  14.739  0.00  0.00    -0.263 NA
ATOM     20  C   UNL     1      -8.612  -9.820  16.850  0.00  0.00    +0.040 A 
ATOM     23  C   UNL     1      -9.064  -8.509  16.785  0.00  0.00    +0.033 A 
ATOM     24  C   UNL     1      -8.974 -10.730  15.867  0.00  0.00    +0.033 A 
ATOM     28  C   UNL     1      -9.873  -8.158  15.717  0.00  0.00    +0.111 A 
ATOM     29  C   UNL     1      -9.789 -10.279  14.839  0.00  0.00    +0.111 A 
ENDBRANCH  16  20
BRANCH  14  19
ATOM     19  C   UNL     1      -5.604 -11.118  13.242  0.00  0.00    -0.016 A 
ATOM     21  C   UNL     1      -6.487 -10.067  13.023  0.00  0.00    +0.012 A 
ATOM     22  C   UNL     1      -4.434 -11.225  12.496  0.00  0.00    +0.012 A 
ATOM     25  C   UNL     1      -6.198  -9.110  12.049  0.00  0.00    +0.046 A 
ATOM     26  C   UNL     1      -4.144 -10.269  11.522  0.00  0.00    +0.046 A 
ATOM     27  C   UNL     1      -5.027  -9.212  11.299  0.00  0.00    +0.120 A 
BRANCH  27   3
ATOM      3  O   UNL     1      -4.745  -8.280  10.348  0.00  0.00    -0.495 OA
ATOM     30  C   UNL     1      -4.203  -8.750   9.115  0.00  0.00    +0.277 C 
ENDBRANCH  27   3
ENDBRANCH  14  19
TORSDOF 3
ENDMDL
MODEL 5
REMARK VINA RESULT:      -6.6     13.811     17.457
REMARK  Name = 7144101
REMARK  4 active torsions:
REMARK  status: ('A' for Active; 'I' for Inactive)
REMARK    1  A    between atoms: O_3  and  C_27
REMARK    2  A    between atoms: O_3  and  C_30
REMARK    3  A    between atoms: C_14  and  C_19
REMARK    4  A    between atoms: C_16  and  C_20
REMARK                            x       y       z     vdW  Elec       q    Type
REMARK                         _______ _______ _______ _____ _____    ______ ____
ROOT
ATOM      1  O   UNL     1       9.122  10.323   1.563  0.00  0.00    -0.268 OA
ATOM      2  O   UNL     1      13.294   7.569   0.683  0.00  0.00    -0.270 OA
ATOM      4  N   UNL     1      13.199   7.900   2.996  0.00  0.00    -0.297 N 
ATOM      5  N   UNL     1      10.456   9.439   3.273  0.00  0.00    -0.311 N 
ATOM      7  C   UNL     1      12.853  10.264   3.668  0.00  0.00    +0.027 C 
ATOM      8  C   UNL     1      11.928   8.457   5.058  0.00  0.00    +0.054 C 
ATOM      9  C   UNL     1      12.612   9.823   5.103  0.00  0.00    +0.018 C 
ATOM     10  C   UNL     1      13.750   9.253   2.934  0.00  0.00    +0.113 C 
ATOM     11  C   UNL     1      11.497  10.434   2.979  0.00  0.00    +0.130 C 
ATOM     12  C   UNL     1      12.849   7.442   4.348  0.00  0.00    +0.117 C 
ATOM     13  C   UNL     1      10.577   8.527   4.342  0.00  0.00    +0.034 A 
ATOM     14  C   UNL     1       9.528   7.733   4.676  0.00  0.00    +0.002 A 
ATOM     15  C   UNL     1       9.287   9.538   2.497  0.00  0.00    +0.252 A 
ATOM     16  C   UNL     1      12.999   7.183   1.813  0.00  0.00    +0.247 C 
ATOM     17  C   UNL     1       8.307   7.804   3.895  0.00  0.00    +0.015 A 
ATOM     18  C   UNL     1       8.174   8.631   2.859  0.00  0.00    +0.071 A 
ENDROOT
BRANCH  16  20
ATOM      6  N   UNL     1      11.171   3.347   2.068  0.00  0.00    -0.263 NA
ATOM     20  C   UNL     1      12.370   5.861   1.901  0.00  0.00    +0.040 A 
ATOM     23  C   UNL     1      10.991   5.756   2.026  0.00  0.00    +0.033 A 
ATOM     24  C   UNL     1      13.152   4.716   1.860  0.00  0.00    +0.033 A 
ATOM     28  C   UNL     1      10.444   4.486   2.104  0.00  0.00    +0.111 A 
ATOM     29  C   UNL     1      12.509   3.491   1.946  0.00  0.00    +0.111 A 
ENDBRANCH  16  20
BRANCH  14  19
ATOM     19  C   UNL     1       9.602   6.780   5.806  0.00  0.00    -0.016 A 
ATOM     21  C   UNL     1       9.882   5.439   5.562  0.00  0.00    +0.012 A 
ATOM     22  C   UNL     1       9.390   7.232   7.105  0.00  0.00    +0.012 A 
ATOM     25  C   UNL     1       9.951   4.541   6.627  0.00  0.00    +0.046 A 
ATOM     26  C   UNL     1       9.460   6.334   8.170  0.00  0.00    +0.046 A 
ATOM     27  C   UNL     1       9.740   4.989   7.931  0.00  0.00    +0.120 A 
BRANCH  27   3
ATOM      3  O   UNL     1       9.807   4.113   8.970  0.00  0.00    -0.495 OA
ATOM     30  C   UNL     1       9.204   4.514  10.199  0.00  0.00    +0.277 C 
ENDBRANCH  27   3
ENDBRANCH  14  19
TORSDOF 3
ENDMDL
MODEL 6
REMARK VINA RESULT:      -6.5     25.351     28.180
REMARK  Name = 7144101
REMARK  4 active torsions:
REMARK  status: ('A' for Active; 'I' for Inactive)
REMARK    1  A    between atoms: O_3  and  C_27
REMARK    2  A    between atoms: O_3  and  C_30
REMARK    3  A    between atoms: C_14  and  C_19
REMARK    4  A    between atoms: C_16  and  C_20
REMARK                            x       y       z     vdW  Elec       q    Type
REMARK                         _______ _______ _______ _____ _____    ______ ____
ROOT
ATOM      1  O   UNL     1     -10.870  12.843  18.589  0.00  0.00    -0.268 OA
ATOM      2  O   UNL     1     -14.089  11.089  15.079  0.00  0.00    -0.270 OA
ATOM      4  N   UNL     1     -13.009   9.219  15.973  0.00  0.00    -0.297 N 
ATOM      5  N   UNL     1     -11.247  10.560  18.224  0.00  0.00    -0.311 N 
ATOM      7  C   UNL     1     -10.535   9.414  16.041  0.00  0.00    +0.027 C 
ATOM      8  C   UNL     1     -11.702   8.128  17.784  0.00  0.00    +0.054 C 
ATOM      9  C   UNL     1     -10.457   8.159  16.897  0.00  0.00    +0.018 C 
ATOM     10  C   UNL     1     -11.801   9.397  15.168  0.00  0.00    +0.113 C 
ATOM     11  C   UNL     1     -10.492  10.634  16.965  0.00  0.00    +0.130 C 
ATOM     12  C   UNL     1     -12.965   8.078  16.899  0.00  0.00    +0.117 C 
ATOM     13  C   UNL     1     -11.761   9.342  18.714  0.00  0.00    +0.034 A 
ATOM     14  C   UNL     1     -12.313   9.291  19.953  0.00  0.00    +0.002 A 
ATOM     15  C   UNL     1     -11.314  11.756  18.961  0.00  0.00    +0.252 A 
ATOM     16  C   UNL     1     -14.056  10.136  15.855  0.00  0.00    +0.247 C 
ATOM     17  C   UNL     1     -12.404  10.505  20.740  0.00  0.00    +0.015 A 
ATOM     18  C   UNL     1     -11.957  11.678  20.292  0.00  0.00    +0.071 A 
ENDROOT
BRANCH  16  20
ATOM      6  N   UNL     1     -17.435   9.675  18.404  0.00  0.00    -0.263 NA
ATOM     20  C   UNL     1     -15.220   9.977  16.734  0.00  0.00    +0.040 A 
ATOM     23  C   UNL     1     -16.311   9.230  16.311  0.00  0.00    +0.033 A 
ATOM     24  C   UNL     1     -15.231  10.575  17.986  0.00  0.00    +0.033 A 
ATOM     28  C   UNL     1     -17.385   9.110  17.177  0.00  0.00    +0.111 A 
ATOM     29  C   UNL     1     -16.354  10.395  18.778  0.00  0.00    +0.111 A 
ENDBRANCH  16  20
BRANCH  14  19
ATOM     19  C   UNL     1     -12.844   8.029  20.517  0.00  0.00    -0.016 A 
ATOM     21  C   UNL     1     -14.214   7.790  20.507  0.00  0.00    +0.012 A 
ATOM     22  C   UNL     1     -11.967   7.091  21.054  0.00  0.00    +0.012 A 
ATOM     25  C   UNL     1     -14.714   6.601  21.039  0.00  0.00    +0.046 A 
ATOM     26  C   UNL     1     -12.466   5.902  21.585  0.00  0.00    +0.046 A 
ATOM     27  C   UNL     1     -13.839   5.658  21.578  0.00  0.00    +0.120 A 
BRANCH  27   3
ATOM      3  O   UNL     1     -14.326   4.498  22.098  0.00  0.00    -0.495 OA
ATOM     30  C   UNL     1     -15.109   4.595  23.287  0.00  0.00    +0.277 C 
ENDBRANCH  27   3
ENDBRANCH  14  19
TORSDOF 3
ENDMDL
MODEL 7
REMARK VINA RESULT:      -6.4      2.711      5.049
REMARK  Name = 7144101
REMARK  4 active torsions:
REMARK  status: ('A' for Active; 'I' for Inactive)
REMARK    1  A    between atoms: O_3  and  C_27
REMARK    2  A    between atoms: O_3  and  C_30
REMARK    3  A    between atoms: C_14  and  C_19
REMARK    4  A    between atoms: C_16  and  C_20
REMARK                            x       y       z     vdW  Elec       q    Type
REMARK                         _______ _______ _______ _____ _____    ______ ____
ROOT
ATOM      1  O   UNL     1      11.050  10.795  22.062  0.00  0.00    -0.268 OA
ATOM      2  O   UNL     1      14.747   7.329  22.339  0.00  0.00    -0.270 OA
ATOM      4  N   UNL     1      14.367   7.705  20.063  0.00  0.00    -0.297 N 
ATOM      5  N   UNL     1      12.205  10.002  20.184  0.00  0.00    -0.311 N 
ATOM      7  C   UNL     1      11.979   7.570  19.399  0.00  0.00    +0.027 C 
ATOM      8  C   UNL     1      13.486   9.113  18.214  0.00  0.00    +0.054 C 
ATOM      9  C   UNL     1      12.326   8.135  18.029  0.00  0.00    +0.018 C 
ATOM     10  C   UNL     1      13.189   6.841  20.006  0.00  0.00    +0.113 C 
ATOM     11  C   UNL     1      11.497   8.718  20.288  0.00  0.00    +0.130 C 
ATOM     12  C   UNL     1      14.705   8.364  18.793  0.00  0.00    +0.117 C 
ATOM     13  C   UNL     1      13.101  10.276  19.131  0.00  0.00    +0.034 A 
ATOM     14  C   UNL     1      13.612  11.526  18.985  0.00  0.00    +0.002 A 
ATOM     15  C   UNL     1      11.837  10.975  21.132  0.00  0.00    +0.252 A 
ATOM     16  C   UNL     1      15.032   7.883  21.278  0.00  0.00    +0.247 C 
ATOM     17  C   UNL     1      13.259  12.553  19.946  0.00  0.00    +0.015 A 
ATOM     18  C   UNL     1      12.441  12.317  20.971  0.00  0.00    +0.071 A 
ENDROOT
BRANCH  16  20
ATOM      6  N   UNL     1      18.306  10.601  21.404  0.00  0.00    -0.263 NA
ATOM     20  C   UNL     1      16.161   8.819  21.322  0.00  0.00    +0.040 A 
ATOM     23  C   UNL     1      15.930  10.174  21.519  0.00  0.00    +0.033 A 
ATOM     24  C   UNL     1      17.457   8.350  21.165  0.00  0.00    +0.033 A 
ATOM     28  C   UNL     1      17.029  11.017  21.552  0.00  0.00    +0.111 A 
ATOM     29  C   UNL     1      18.488   9.275  21.214  0.00  0.00    +0.111 A 
ENDBRANCH  16  20
BRANCH  14  19
ATOM     19  C   UNL     1      14.537  11.864  17.880  0.00  0.00    -0.016 A 
ATOM     21  C   UNL     1      15.844  12.243  18.165  0.00  0.00    +0.012 A 
ATOM     22  C   UNL     1      14.091  11.800  16.564  0.00  0.00    +0.012 A 
ATOM     25  C   UNL     1      16.716  12.562  17.123  0.00  0.00    +0.046 A 
ATOM     26  C   UNL     1      14.962  12.119  15.522  0.00  0.00    +0.046 A 
ATOM     27  C   UNL     1      16.274  12.500  15.802  0.00  0.00    +0.120 A 
BRANCH  27   3
ATOM      3  O   UNL     1      17.123  12.812  14.785  0.00  0.00    -0.495 OA
ATOM     30  C   UNL     1      18.133  11.857  14.464  0.00  0.00    +0.277 C 
ENDBRANCH  27   3
ENDBRANCH  14  19
TORSDOF 3
ENDMDL
MODEL 8
REMARK VINA RESULT:      -6.1     12.450     15.503
REMARK  Name = 7144101
REMARK  4 active torsions:
REMARK  status: ('A' for Active; 'I' for Inactive)
REMARK    1  A    between atoms: O_3  and  C_27
REMARK    2  A    between atoms: O_3  and  C_30
REMARK    3  A    between atoms: C_14  and  C_19
REMARK    4  A    between atoms: C_16  and  C_20
REMARK                            x       y       z     vdW  Elec       q    Type
REMARK                         _______ _______ _______ _____ _____    ______ ____
ROOT
ATOM      1  O   UNL     1      19.940  -5.057  21.723  0.00  0.00    -0.268 OA
ATOM      2  O   UNL     1      20.526  -1.005  24.723  0.00  0.00    -0.270 OA
ATOM      4  N   UNL     1      18.319  -1.720  25.007  0.00  0.00    -0.297 N 
ATOM      5  N   UNL     1      18.291  -4.318  23.214  0.00  0.00    -0.311 N 
ATOM      7  C   UNL     1      17.088  -2.077  22.882  0.00  0.00    +0.027 C 
ATOM      8  C   UNL     1      16.567  -3.476  24.838  0.00  0.00    +0.054 C 
ATOM      9  C   UNL     1      15.953  -2.739  23.647  0.00  0.00    +0.018 C 
ATOM     10  C   UNL     1      17.841  -1.082  23.781  0.00  0.00    +0.113 C 
ATOM     11  C   UNL     1      18.010  -3.171  22.339  0.00  0.00    +0.130 C 
ATOM     12  C   UNL     1      17.293  -2.465  25.751  0.00  0.00    +0.117 C 
ATOM     13  C   UNL     1      17.543  -4.564  24.384  0.00  0.00    +0.034 A 
ATOM     14  C   UNL     1      17.730  -5.717  25.076  0.00  0.00    +0.002 A 
ATOM     15  C   UNL     1      19.268  -5.214  22.744  0.00  0.00    +0.252 A 
ATOM     16  C   UNL     1      19.671  -1.630  25.347  0.00  0.00    +0.247 C 
ATOM     17  C   UNL     1      18.732  -6.662  24.624  0.00  0.00    +0.015 A 
ATOM     18  C   UNL     1      19.478  -6.444  23.541  0.00  0.00    +0.071 A 
ENDROOT
BRANCH  16  20
ATOM      6  N   UNL     1      21.021  -3.715  28.805  0.00  0.00    -0.263 NA
ATOM     20  C   UNL     1      20.136  -2.348  26.539  0.00  0.00    +0.040 A 
ATOM     23  C   UNL     1      20.543  -3.671  26.436  0.00  0.00    +0.033 A 
ATOM     24  C   UNL     1      20.168  -1.705  27.768  0.00  0.00    +0.033 A 
ATOM     28  C   UNL     1      20.974  -4.306  27.590  0.00  0.00    +0.111 A 
ATOM     29  C   UNL     1      20.616  -2.427  28.863  0.00  0.00    +0.111 A 
ENDBRANCH  16  20
BRANCH  14  19
ATOM     19  C   UNL     1      16.950  -6.028  26.295  0.00  0.00    -0.016 A 
ATOM     21  C   UNL     1      17.392  -5.573  27.533  0.00  0.00    +0.012 A 
ATOM     22  C   UNL     1      15.779  -6.773  26.194  0.00  0.00    +0.012 A 
ATOM     25  C   UNL     1      16.657  -5.866  28.682  0.00  0.00    +0.046 A 
ATOM     26  C   UNL     1      15.044  -7.066  27.342  0.00  0.00    +0.046 A 
ATOM     27  C   UNL     1      15.483  -6.613  28.586  0.00  0.00    +0.120 A 
BRANCH  27   3
ATOM      3  O   UNL     1      14.765  -6.900  29.706  0.00  0.00    -0.495 OA
ATOM     30  C   UNL     1      14.292  -5.797  30.477  0.00  0.00    +0.277 C 
ENDBRANCH  27   3
ENDBRANCH  14  19
TORSDOF 3
ENDMDL
MODEL 9
REMARK VINA RESULT:      -6.0     25.184     28.628
REMARK  Name = 7144101
REMARK  4 active torsions:
REMARK  status: ('A' for Active; 'I' for Inactive)
REMARK    1  A    between atoms: O_3  and  C_27
REMARK    2  A    between atoms: O_3  and  C_30
REMARK    3  A    between atoms: C_14  and  C_19
REMARK    4  A    between atoms: C_16  and  C_20
REMARK                            x       y       z     vdW  Elec       q    Type
REMARK                         _______ _______ _______ _____ _____    ______ ____
ROOT
ATOM      1  O   UNL     1     -12.679  13.018  19.391  0.00  0.00    -0.268 OA
ATOM      2  O   UNL     1     -12.280  10.071  15.279  0.00  0.00    -0.270 OA
ATOM      4  N   UNL     1     -11.768   8.714  17.112  0.00  0.00    -0.297 N 
ATOM      5  N   UNL     1     -12.279  10.712  19.502  0.00  0.00    -0.311 N 
ATOM      7  C   UNL     1     -10.085   9.689  18.654  0.00  0.00    +0.027 C 
ATOM      8  C   UNL     1     -11.857   8.235  19.550  0.00  0.00    +0.054 C 
ATOM      9  C   UNL     1     -10.375   8.592  19.668  0.00  0.00    +0.018 C 
ATOM     10  C   UNL     1     -10.395   9.204  17.228  0.00  0.00    +0.113 C 
ATOM     11  C   UNL     1     -10.904  10.926  19.030  0.00  0.00    +0.130 C 
ATOM     12  C   UNL     1     -12.151   7.720  18.125  0.00  0.00    +0.117 C 
ATOM     13  C   UNL     1     -12.752   9.436  19.867  0.00  0.00    +0.034 A 
ATOM     14  C   UNL     1     -13.974   9.306  20.446  0.00  0.00    +0.002 A 
ATOM     15  C   UNL     1     -13.047  11.878  19.679  0.00  0.00    +0.252 A 
ATOM     16  C   UNL     1     -12.605   9.240  16.125  0.00  0.00    +0.247 C 
ATOM     17  C   UNL     1     -14.796  10.486  20.639  0.00  0.00    +0.015 A 
ATOM     18  C   UNL     1     -14.391  11.702  20.274  0.00  0.00    +0.071 A 
ENDROOT
BRANCH  16  20
ATOM      6  N   UNL     1     -16.654   7.929  16.011  0.00  0.00    -0.263 NA
ATOM     20  C   UNL     1     -14.000   8.787  16.085  0.00  0.00    +0.040 A 
ATOM     23  C   UNL     1     -14.949   9.396  16.895  0.00  0.00    +0.033 A 
ATOM     24  C   UNL     1     -14.370   7.751  15.240  0.00  0.00    +0.033 A 
ATOM     28  C   UNL     1     -16.253   8.934  16.821  0.00  0.00    +0.111 A 
ATOM     29  C   UNL     1     -15.700   7.362  15.239  0.00  0.00    +0.111 A 
ENDBRANCH  16  20
BRANCH  14  19
ATOM     19  C   UNL     1     -14.500   7.989  20.867  0.00  0.00    -0.016 A 
ATOM     21  C   UNL     1     -15.305   7.257  20.000  0.00  0.00    +0.012 A 
ATOM     22  C   UNL     1     -14.186   7.492  22.128  0.00  0.00    +0.012 A 
ATOM     25  C   UNL     1     -15.801   6.015  20.398  0.00  0.00    +0.046 A 
ATOM     26  C   UNL     1     -14.682   6.250  22.526  0.00  0.00    +0.046 A 
ATOM     27  C   UNL     1     -15.489   5.512  21.661  0.00  0.00    +0.120 A 
BRANCH  27   3
ATOM      3  O   UNL     1     -15.974   4.301  22.050  0.00  0.00    -0.495 OA
ATOM     30  C   UNL     1     -15.914   3.992  23.441  0.00  0.00    +0.277 C 
ENDBRANCH  27   3
ENDBRANCH  14  19
TORSDOF 3
ENDMDL
MODEL 10
REMARK VINA RESULT:      -6.0     26.856     29.894
REMARK  Name = 7144101
REMARK  4 active torsions:
REMARK  status: ('A' for Active; 'I' for Inactive)
REMARK    1  A    between atoms: O_3  and  C_27
REMARK    2  A    between atoms: O_3  and  C_30
REMARK    3  A    between atoms: C_14  and  C_19
REMARK    4  A    between atoms: C_16  and  C_20
REMARK                            x       y       z     vdW  Elec       q    Type
REMARK                         _______ _______ _______ _____ _____    ______ ____
ROOT
ATOM      1  O   UNL     1      -1.083 -12.291  13.554  0.00  0.00    -0.268 OA
ATOM      2  O   UNL     1      -5.442 -13.434  11.220  0.00  0.00    -0.270 OA
ATOM      4  N   UNL     1      -5.682 -14.130  13.439  0.00  0.00    -0.297 N 
ATOM      5  N   UNL     1      -2.955 -13.135  14.680  0.00  0.00    -0.311 N 
ATOM      7  C   UNL     1      -3.804 -15.522  14.272  0.00  0.00    +0.027 C 
ATOM      8  C   UNL     1      -5.001 -14.038  15.828  0.00  0.00    +0.054 C 
ATOM      9  C   UNL     1      -4.349 -15.413  15.688  0.00  0.00    +0.018 C 
ATOM     10  C   UNL     1      -4.936 -15.372  13.243  0.00  0.00    +0.113 C 
ATOM     11  C   UNL     1      -2.718 -14.459  14.088  0.00  0.00    +0.130 C 
ATOM     12  C   UNL     1      -6.157 -13.910  14.812  0.00  0.00    +0.117 C 
ATOM     13  C   UNL     1      -3.989 -12.910  15.612  0.00  0.00    +0.034 A 
ATOM     14  C   UNL     1      -4.075 -11.716  16.253  0.00  0.00    +0.002 A 
ATOM     15  C   UNL     1      -2.012 -12.145  14.349  0.00  0.00    +0.252 A 
ATOM     16  C   UNL     1      -5.840 -13.246  12.368  0.00  0.00    +0.247 C 
ATOM     17  C   UNL     1      -3.122 -10.669  15.933  0.00  0.00    +0.015 A 
ATOM     18  C   UNL     1      -2.155 -10.840  15.032  0.00  0.00    +0.071 A 
ENDROOT
BRANCH  16  20
ATOM      6  N   UNL     1      -7.818  -9.545  13.087  0.00  0.00    -0.263 NA
ATOM     20  C   UNL     1      -6.522 -11.971  12.616  0.00  0.00    +0.040 A 
ATOM     23  C   UNL     1      -5.793 -10.864  13.028  0.00  0.00    +0.033 A 
ATOM     24  C   UNL     1      -7.895 -11.873  12.439  0.00  0.00    +0.033 A 
ATOM     28  C   UNL     1      -6.483  -9.683  13.248  0.00  0.00    +0.111 A 
ATOM     29  C   UNL     1      -8.491 -10.646  12.686  0.00  0.00    +0.111 A 
ENDBRANCH  16  20
BRANCH  14  19
ATOM     19  C   UNL     1      -5.128 -11.444  17.256  0.00  0.00    -0.016 A 
ATOM     21  C   UNL     1      -4.906 -11.757  18.593  0.00  0.00    +0.012 A 
ATOM     22  C   UNL     1      -6.335 -10.880  16.854  0.00  0.00    +0.012 A 
ATOM     25  C   UNL     1      -5.899 -11.501  19.538  0.00  0.00    +0.046 A 
ATOM     26  C   UNL     1      -7.328 -10.624  17.798  0.00  0.00    +0.046 A 
ATOM     27  C   UNL     1      -7.111 -10.935  19.141  0.00  0.00    +0.120 A 
BRANCH  27   3
ATOM      3  O   UNL     1      -8.081 -10.687  20.062  0.00  0.00    -0.495 OA
ATOM     30  C   UNL     1      -9.417 -11.045  19.714  0.00  0.00    +0.277 C 
ENDBRANCH  27   3
ENDBRANCH  14  19
TORSDOF 3
ENDMDL
