MODEL 1
REMARK VINA RESULT:      -7.1      0.000      0.000
REMARK  Name = 51137080
REMARK  3 active torsions:
REMARK  status: ('A' for Active; 'I' for Inactive)
REMARK    1  A    between atoms: N_2  and  C_9
REMARK    2  A    between atoms: C_5  and  C_10
REMARK    3  A    between atoms: C_9  and  C_11
REMARK                            x       y       z     vdW  Elec       q    Type
REMARK                         _______ _______ _______ _____ _____    ______ ____
ROOT
ATOM      2  N   UNL     1      16.397   7.404  20.368  0.00  0.00    -0.297 NA
ATOM      5  C   UNL     1      18.637   6.745  20.161  0.00  0.00    +0.060 C 
ATOM      6  C   UNL     1      17.648   7.408  21.128  0.00  0.00    +0.095 C 
ATOM      7  C   UNL     1      17.761   5.884  19.235  0.00  0.00    +0.027 C 
ATOM      8  C   UNL     1      16.339   6.081  19.744  0.00  0.00    +0.085 C 
ENDROOT
BRANCH   5  10
ATOM      1  S   UNL     1      20.325   6.586  22.364  0.00  0.00    -0.072 S 
ATOM      3  N   UNL     1      20.301   4.898  20.413  0.00  0.00    -0.244 NA
ATOM     10  C   UNL     1      19.742   5.994  20.869  0.00  0.00    +0.084 A 
ATOM     15  C   UNL     1      21.437   5.270  22.438  0.00  0.00    +0.039 A 
ATOM     16  C   UNL     1      21.277   4.471  21.303  0.00  0.00    +0.078 A 
ATOM     19  C   UNL     1      22.384   4.967  23.430  0.00  0.00    +0.017 A 
ATOM     20  C   UNL     1      22.093   3.328  21.158  0.00  0.00    +0.029 A 
ATOM     23  C   UNL     1      23.180   3.830  23.262  0.00  0.00    +0.001 A 
ATOM     24  C   UNL     1      23.037   3.020  22.141  0.00  0.00    +0.002 A 
ENDBRANCH   5  10
BRANCH   2   9
ATOM      9  C   UNL     1      15.237   7.672  21.206  0.00  0.00    +0.121 C 
BRANCH   9  11
ATOM      4  N   UNL     1      11.903   7.059  19.774  0.00  0.00    -0.360 N 
ATOM     11  C   UNL     1      13.953   7.612  20.421  0.00  0.00    -0.008 A 
ATOM     12  C   UNL     1      13.646   8.346  19.242  0.00  0.00    +0.004 A 
ATOM     13  C   UNL     1      12.863   6.830  20.724  0.00  0.00    +0.088 A 
ATOM     14  C   UNL     1      12.355   7.980  18.856  0.00  0.00    +0.047 A 
ATOM     17  C   UNL     1      14.345   9.289  18.462  0.00  0.00    +0.010 A 
ATOM     18  C   UNL     1      11.725   8.514  17.725  0.00  0.00    +0.026 A 
ATOM     21  C   UNL     1      13.728   9.830  17.329  0.00  0.00    +0.001 A 
ATOM     22  C   UNL     1      12.438   9.447  16.968  0.00  0.00    +0.002 A 
ATOM     25  H   UNL     1      10.995   6.617  19.749  0.00  0.00    +0.165 HD
ENDBRANCH   9  11
ENDBRANCH   2   9
TORSDOF 3
ENDMDL
MODEL 2
REMARK VINA RESULT:      -7.0      4.598      6.389
REMARK  Name = 51137080
REMARK  3 active torsions:
REMARK  status: ('A' for Active; 'I' for Inactive)
REMARK    1  A    between atoms: N_2  and  C_9
REMARK    2  A    between atoms: C_5  and  C_10
REMARK    3  A    between atoms: C_9  and  C_11
REMARK                            x       y       z     vdW  Elec       q    Type
REMARK                         _______ _______ _______ _____ _____    ______ ____
ROOT
ATOM      2  N   UNL     1      11.363   9.701  21.410  0.00  0.00    -0.297 NA
ATOM      5  C   UNL     1      13.287   9.297  20.133  0.00  0.00    +0.060 C 
ATOM      6  C   UNL     1      12.814   9.582  21.564  0.00  0.00    +0.095 C 
ATOM      7  C   UNL     1      12.067   8.670  19.437  0.00  0.00    +0.027 C 
ATOM      8  C   UNL     1      10.989   8.609  20.511  0.00  0.00    +0.085 C 
ENDROOT
BRANCH   5  10
ATOM      1  S   UNL     1      14.700   7.259  18.876  0.00  0.00    -0.072 S 
ATOM      3  N   UNL     1      15.552   8.588  20.916  0.00  0.00    -0.244 NA
ATOM     10  C   UNL     1      14.545   8.460  20.083  0.00  0.00    +0.084 A 
ATOM     15  C   UNL     1      16.255   6.848  19.499  0.00  0.00    +0.039 A 
ATOM     16  C   UNL     1      16.541   7.669  20.593  0.00  0.00    +0.078 A 
ATOM     19  C   UNL     1      17.157   5.870  19.050  0.00  0.00    +0.017 A 
ATOM     20  C   UNL     1      17.774   7.504  21.260  0.00  0.00    +0.029 A 
ATOM     23  C   UNL     1      18.371   5.727  19.728  0.00  0.00    +0.001 A 
ATOM     24  C   UNL     1      18.676   6.533  20.819  0.00  0.00    +0.002 A 
ENDBRANCH   5  10
BRANCH   2   9
ATOM      9  C   UNL     1      10.662   9.635  22.684  0.00  0.00    +0.121 C 
BRANCH   9  11
ATOM      4  N   UNL     1      11.475  12.058  25.332  0.00  0.00    -0.360 N 
ATOM     11  C   UNL     1      10.975  10.820  23.558  0.00  0.00    -0.008 A 
ATOM     12  C   UNL     1      11.051  12.180  23.145  0.00  0.00    +0.004 A 
ATOM     13  C   UNL     1      11.240  10.777  24.907  0.00  0.00    +0.088 A 
ATOM     14  C   UNL     1      11.365  12.935  24.277  0.00  0.00    +0.047 A 
ATOM     17  C   UNL     1      10.880  12.844  21.914  0.00  0.00    +0.010 A 
ATOM     18  C   UNL     1      11.519  14.325  24.238  0.00  0.00    +0.026 A 
ATOM     21  C   UNL     1      11.032  14.234  21.860  0.00  0.00    +0.001 A 
ATOM     22  C   UNL     1      11.346  14.962  23.006  0.00  0.00    +0.002 A 
ATOM     25  H   UNL     1      11.696  12.321  26.282  0.00  0.00    +0.165 HD
ENDBRANCH   9  11
ENDBRANCH   2   9
TORSDOF 3
ENDMDL
MODEL 3
REMARK VINA RESULT:      -6.9     26.758     30.257
REMARK  Name = 51137080
REMARK  3 active torsions:
REMARK  status: ('A' for Active; 'I' for Inactive)
REMARK    1  A    between atoms: N_2  and  C_9
REMARK    2  A    between atoms: C_5  and  C_10
REMARK    3  A    between atoms: C_9  and  C_11
REMARK                            x       y       z     vdW  Elec       q    Type
REMARK                         _______ _______ _______ _____ _____    ______ ____
ROOT
ATOM      2  N   UNL     1      -4.462 -11.658  17.212  0.00  0.00    -0.297 NA
ATOM      5  C   UNL     1      -6.118 -10.574  18.470  0.00  0.00    +0.060 C 
ATOM      6  C   UNL     1      -5.635 -10.800  17.031  0.00  0.00    +0.095 C 
ATOM      7  C   UNL     1      -5.588 -11.787  19.254  0.00  0.00    +0.027 C 
ATOM      8  C   UNL     1      -4.866 -12.640  18.220  0.00  0.00    +0.085 C 
ENDROOT
BRANCH   5  10
ATOM      1  S   UNL     1      -8.390  -9.394  17.387  0.00  0.00    -0.072 S 
ATOM      3  N   UNL     1      -8.374 -10.871  19.502  0.00  0.00    -0.244 NA
ATOM     10  C   UNL     1      -7.612 -10.361  18.563  0.00  0.00    +0.084 A 
ATOM     15  C   UNL     1      -9.898  -9.663  18.179  0.00  0.00    +0.039 A 
ATOM     16  C   UNL     1      -9.690 -10.479  19.294  0.00  0.00    +0.078 A 
ATOM     19  C   UNL     1     -11.174  -9.185  17.838  0.00  0.00    +0.017 A 
ATOM     20  C   UNL     1     -10.799 -10.829  20.095  0.00  0.00    +0.029 A 
ATOM     23  C   UNL     1     -12.255  -9.547  18.647  0.00  0.00    +0.001 A 
ATOM     24  C   UNL     1     -12.071 -10.358  19.761  0.00  0.00    +0.002 A 
ENDBRANCH   5  10
BRANCH   2   9
ATOM      9  C   UNL     1      -4.035 -12.284  15.969  0.00  0.00    +0.121 C 
BRANCH   9  11
ATOM      4  N   UNL     1      -1.462  -9.983  14.691  0.00  0.00    -0.360 N 
ATOM     11  C   UNL     1      -3.099 -11.399  15.190  0.00  0.00    -0.008 A 
ATOM     12  C   UNL     1      -3.106 -11.189  13.783  0.00  0.00    +0.004 A 
ATOM     13  C   UNL     1      -2.078 -10.644  15.721  0.00  0.00    +0.088 A 
ATOM     14  C   UNL     1      -2.070 -10.297  13.496  0.00  0.00    +0.047 A 
ATOM     17  C   UNL     1      -3.897 -11.673  12.722  0.00  0.00    +0.010 A 
ATOM     18  C   UNL     1      -1.785  -9.864  12.196  0.00  0.00    +0.026 A 
ATOM     21  C   UNL     1      -3.622 -11.248  11.417  0.00  0.00    +0.001 A 
ATOM     22  C   UNL     1      -2.582 -10.358  11.160  0.00  0.00    +0.002 A 
ATOM     25  H   UNL     1      -0.677  -9.356  14.792  0.00  0.00    +0.165 HD
ENDBRANCH   9  11
ENDBRANCH   2   9
TORSDOF 3
ENDMDL
MODEL 4
REMARK VINA RESULT:      -6.8     27.547     29.913
REMARK  Name = 51137080
REMARK  3 active torsions:
REMARK  status: ('A' for Active; 'I' for Inactive)
REMARK    1  A    between atoms: N_2  and  C_9
REMARK    2  A    between atoms: C_5  and  C_10
REMARK    3  A    between atoms: C_9  and  C_11
REMARK                            x       y       z     vdW  Elec       q    Type
REMARK                         _______ _______ _______ _____ _____    ______ ____
ROOT
ATOM      2  N   UNL     1      -3.946 -10.723  14.737  0.00  0.00    -0.297 NA
ATOM      5  C   UNL     1      -5.299  -9.768  16.397  0.00  0.00    +0.060 C 
ATOM      6  C   UNL     1      -5.318 -10.253  14.942  0.00  0.00    +0.095 C 
ATOM      7  C   UNL     1      -4.157 -10.559  17.057  0.00  0.00    +0.027 C 
ATOM      8  C   UNL     1      -3.615 -11.462  15.956  0.00  0.00    +0.085 C 
ENDROOT
BRANCH   5  10
ATOM      1  S   UNL     1      -6.827 -11.050  18.334  0.00  0.00    -0.072 S 
ATOM      3  N   UNL     1      -7.699  -9.186  16.778  0.00  0.00    -0.244 NA
ATOM     10  C   UNL     1      -6.641  -9.901  17.080  0.00  0.00    +0.084 A 
ATOM     15  C   UNL     1      -8.474 -10.572  18.512  0.00  0.00    +0.039 A 
ATOM     16  C   UNL     1      -8.760  -9.561  17.592  0.00  0.00    +0.078 A 
ATOM     19  C   UNL     1      -9.444 -11.058  19.405  0.00  0.00    +0.017 A 
ATOM     20  C   UNL     1     -10.062  -9.016  17.564  0.00  0.00    +0.029 A 
ATOM     23  C   UNL     1     -10.726 -10.502  19.357  0.00  0.00    +0.001 A 
ATOM     24  C   UNL     1     -11.032  -9.495  18.449  0.00  0.00    +0.002 A 
ENDBRANCH   5  10
BRANCH   2   9
ATOM      9  C   UNL     1      -3.812 -11.540  13.540  0.00  0.00    +0.121 C 
BRANCH   9  11
ATOM      4  N   UNL     1      -2.202  -9.608  10.853  0.00  0.00    -0.360 N 
ATOM     11  C   UNL     1      -3.421 -10.717  12.341  0.00  0.00    -0.008 A 
ATOM     12  C   UNL     1      -4.298 -10.187  11.355  0.00  0.00    +0.004 A 
ATOM     13  C   UNL     1      -2.139 -10.345  12.006  0.00  0.00    +0.088 A 
ATOM     14  C   UNL     1      -3.509  -9.494  10.434  0.00  0.00    +0.047 A 
ATOM     17  C   UNL     1      -5.693 -10.227  11.157  0.00  0.00    +0.010 A 
ATOM     18  C   UNL     1      -4.047  -8.840   9.320  0.00  0.00    +0.026 A 
ATOM     21  C   UNL     1      -6.244  -9.577  10.048  0.00  0.00    +0.001 A 
ATOM     22  C   UNL     1      -5.433  -8.894   9.145  0.00  0.00    +0.002 A 
ATOM     25  H   UNL     1      -1.407  -9.204  10.379  0.00  0.00    +0.165 HD
ENDBRANCH   9  11
ENDBRANCH   2   9
TORSDOF 3
ENDMDL
MODEL 5
REMARK VINA RESULT:      -6.8     16.950     20.418
REMARK  Name = 51137080
REMARK  3 active torsions:
REMARK  status: ('A' for Active; 'I' for Inactive)
REMARK    1  A    between atoms: N_2  and  C_9
REMARK    2  A    between atoms: C_5  and  C_10
REMARK    3  A    between atoms: C_9  and  C_11
REMARK                            x       y       z     vdW  Elec       q    Type
REMARK                         _______ _______ _______ _____ _____    ______ ____
ROOT
ATOM      2  N   UNL     1      12.006   4.539   1.244  0.00  0.00    -0.297 NA
ATOM      5  C   UNL     1      10.339   5.172   2.766  0.00  0.00    +0.060 C 
ATOM      6  C   UNL     1      11.395   4.092   2.498  0.00  0.00    +0.095 C 
ATOM      7  C   UNL     1      10.854   6.415   2.022  0.00  0.00    +0.027 C 
ATOM      8  C   UNL     1      12.177   5.984   1.402  0.00  0.00    +0.085 C 
ENDROOT
BRANCH   5  10
ATOM      1  S   UNL     1       9.607   6.931   4.791  0.00  0.00    -0.072 S 
ATOM      3  N   UNL     1      10.167   4.438   5.149  0.00  0.00    -0.244 NA
ATOM     10  C   UNL     1      10.070   5.379   4.240  0.00  0.00    +0.084 A 
ATOM     15  C   UNL     1       9.520   6.321   6.401  0.00  0.00    +0.039 A 
ATOM     16  C   UNL     1       9.854   4.964   6.395  0.00  0.00    +0.078 A 
ATOM     19  C   UNL     1       9.180   6.995   7.585  0.00  0.00    +0.017 A 
ATOM     20  C   UNL     1       9.847   4.258   7.618  0.00  0.00    +0.029 A 
ATOM     23  C   UNL     1       9.180   6.274   8.782  0.00  0.00    +0.001 A 
ATOM     24  C   UNL     1       9.509   4.923   8.800  0.00  0.00    +0.002 A 
ENDBRANCH   5  10
BRANCH   2   9
ATOM      9  C   UNL     1      13.264   3.859   0.966  0.00  0.00    +0.121 C 
BRANCH   9  11
ATOM      4  N   UNL     1      14.753   4.223  -2.379  0.00  0.00    -0.360 N 
ATOM     11  C   UNL     1      13.618   3.915  -0.496  0.00  0.00    -0.008 A 
ATOM     12  C   UNL     1      12.774   3.565  -1.586  0.00  0.00    +0.004 A 
ATOM     13  C   UNL     1      14.828   4.315  -1.015  0.00  0.00    +0.088 A 
ATOM     14  C   UNL     1      13.509   3.769  -2.756  0.00  0.00    +0.047 A 
ATOM     17  C   UNL     1      11.449   3.095  -1.692  0.00  0.00    +0.010 A 
ATOM     18  C   UNL     1      12.984   3.523  -4.030  0.00  0.00    +0.026 A 
ATOM     21  C   UNL     1      10.912   2.846  -2.959  0.00  0.00    +0.001 A 
ATOM     22  C   UNL     1      11.669   3.057  -4.109  0.00  0.00    +0.002 A 
ATOM     25  H   UNL     1      15.500   4.456  -3.018  0.00  0.00    +0.165 HD
ENDBRANCH   9  11
ENDBRANCH   2   9
TORSDOF 3
ENDMDL
MODEL 6
REMARK VINA RESULT:      -6.8      2.518      8.967
REMARK  Name = 51137080
REMARK  3 active torsions:
REMARK  status: ('A' for Active; 'I' for Inactive)
REMARK    1  A    between atoms: N_2  and  C_9
REMARK    2  A    between atoms: C_5  and  C_10
REMARK    3  A    between atoms: C_9  and  C_11
REMARK                            x       y       z     vdW  Elec       q    Type
REMARK                         _______ _______ _______ _____ _____    ______ ____
ROOT
ATOM      2  N   UNL     1      18.670   7.739  21.346  0.00  0.00    -0.297 NA
ATOM      5  C   UNL     1      16.496   8.158  20.574  0.00  0.00    +0.060 C 
ATOM      6  C   UNL     1      17.356   7.097  21.272  0.00  0.00    +0.095 C 
ATOM      7  C   UNL     1      17.200   9.492  20.877  0.00  0.00    +0.027 C 
ATOM      8  C   UNL     1      18.393   9.119  21.747  0.00  0.00    +0.085 C 
ENDROOT
BRANCH   5  10
ATOM      1  S   UNL     1      14.346   9.445  21.779  0.00  0.00    -0.072 S 
ATOM      3  N   UNL     1      14.253   7.074  20.768  0.00  0.00    -0.244 NA
ATOM     10  C   UNL     1      15.042   8.101  20.983  0.00  0.00    +0.084 A 
ATOM     15  C   UNL     1      12.843   8.605  21.861  0.00  0.00    +0.039 A 
ATOM     16  C   UNL     1      12.988   7.349  21.267  0.00  0.00    +0.078 A 
ATOM     19  C   UNL     1      11.622   9.029  22.411  0.00  0.00    +0.017 A 
ATOM     20  C   UNL     1      11.870   6.487  21.223  0.00  0.00    +0.029 A 
ATOM     23  C   UNL     1      10.531   8.157  22.355  0.00  0.00    +0.001 A 
ATOM     24  C   UNL     1      10.652   6.902  21.769  0.00  0.00    +0.002 A 
ENDBRANCH   5  10
BRANCH   2   9
ATOM      9  C   UNL     1      19.568   7.063  22.271  0.00  0.00    +0.121 C 
BRANCH   9  11
ATOM      4  N   UNL     1      21.057   4.519  20.068  0.00  0.00    -0.360 N 
ATOM     11  C   UNL     1      20.348   5.968  21.593  0.00  0.00    -0.008 A 
ATOM     12  C   UNL     1      21.417   5.216  22.157  0.00  0.00    +0.004 A 
ATOM     13  C   UNL     1      20.150   5.517  20.308  0.00  0.00    +0.088 A 
ATOM     14  C   UNL     1      21.843   4.314  21.179  0.00  0.00    +0.047 A 
ATOM     17  C   UNL     1      22.064   5.215  23.408  0.00  0.00    +0.010 A 
ATOM     18  C   UNL     1      22.889   3.408  21.393  0.00  0.00    +0.026 A 
ATOM     21  C   UNL     1      23.112   4.315  23.635  0.00  0.00    +0.001 A 
ATOM     22  C   UNL     1      23.516   3.426  22.641  0.00  0.00    +0.002 A 
ATOM     25  H   UNL     1      21.138   4.006  19.201  0.00  0.00    +0.165 HD
ENDBRANCH   9  11
ENDBRANCH   2   9
TORSDOF 3
ENDMDL
MODEL 7
REMARK VINA RESULT:      -6.7     26.852     29.291
REMARK  Name = 51137080
REMARK  3 active torsions:
REMARK  status: ('A' for Active; 'I' for Inactive)
REMARK    1  A    between atoms: N_2  and  C_9
REMARK    2  A    between atoms: C_5  and  C_10
REMARK    3  A    between atoms: C_9  and  C_11
REMARK                            x       y       z     vdW  Elec       q    Type
REMARK                         _______ _______ _______ _____ _____    ______ ____
ROOT
ATOM      2  N   UNL     1      -2.181 -11.354  13.876  0.00  0.00    -0.297 NA
ATOM      5  C   UNL     1      -3.579 -10.338  15.461  0.00  0.00    +0.060 C 
ATOM      6  C   UNL     1      -3.598 -11.256  14.232  0.00  0.00    +0.095 C 
ATOM      7  C   UNL     1      -2.169 -10.507  16.053  0.00  0.00    +0.027 C 
ATOM      8  C   UNL     1      -1.484 -11.527  15.152  0.00  0.00    +0.085 C 
ENDROOT
BRANCH   5  10
ATOM      1  S   UNL     1      -6.153  -9.707  16.300  0.00  0.00    -0.072 S 
ATOM      3  N   UNL     1      -4.668 -11.526  17.370  0.00  0.00    -0.244 NA
ATOM     10  C   UNL     1      -4.710 -10.617  16.424  0.00  0.00    +0.084 A 
ATOM     15  C   UNL     1      -6.809 -10.589  17.630  0.00  0.00    +0.039 A 
ATOM     16  C   UNL     1      -5.867 -11.521  18.071  0.00  0.00    +0.078 A 
ATOM     19  C   UNL     1      -8.069 -10.463  18.237  0.00  0.00    +0.017 A 
ATOM     20  C   UNL     1      -6.198 -12.357  19.159  0.00  0.00    +0.029 A 
ATOM     23  C   UNL     1      -8.373 -11.303  19.313  0.00  0.00    +0.001 A 
ATOM     24  C   UNL     1      -7.450 -12.238  19.769  0.00  0.00    +0.002 A 
ENDBRANCH   5  10
BRANCH   2   9
ATOM      9  C   UNL     1      -1.916 -12.444  12.949  0.00  0.00    +0.121 C 
BRANCH   9  11
ATOM      4  N   UNL     1      -4.266 -13.028  10.177  0.00  0.00    -0.360 N 
ATOM     11  C   UNL     1      -2.839 -12.404  11.760  0.00  0.00    -0.008 A 
ATOM     12  C   UNL     1      -3.138 -11.267  10.958  0.00  0.00    +0.004 A 
ATOM     13  C   UNL     1      -3.547 -13.471  11.255  0.00  0.00    +0.088 A 
ATOM     14  C   UNL     1      -4.035 -11.686   9.972  0.00  0.00    +0.047 A 
ATOM     17  C   UNL     1      -2.731  -9.919  10.975  0.00  0.00    +0.010 A 
ATOM     18  C   UNL     1      -4.547 -10.819   9.000  0.00  0.00    +0.026 A 
ATOM     21  C   UNL     1      -3.235  -9.041  10.008  0.00  0.00    +0.001 A 
ATOM     22  C   UNL     1      -4.128  -9.486   9.037  0.00  0.00    +0.002 A 
ATOM     25  H   UNL     1      -4.877 -13.601   9.613  0.00  0.00    +0.165 HD
ENDBRANCH   9  11
ENDBRANCH   2   9
TORSDOF 3
ENDMDL
MODEL 8
REMARK VINA RESULT:      -6.7     28.915     32.593
REMARK  Name = 51137080
REMARK  3 active torsions:
REMARK  status: ('A' for Active; 'I' for Inactive)
REMARK    1  A    between atoms: N_2  and  C_9
REMARK    2  A    between atoms: C_5  and  C_10
REMARK    3  A    between atoms: C_9  and  C_11
REMARK                            x       y       z     vdW  Elec       q    Type
REMARK                         _______ _______ _______ _____ _____    ______ ____
ROOT
ATOM      2  N   UNL     1     -10.223  -8.550  16.480  0.00  0.00    -0.297 NA
ATOM      5  C   UNL     1     -12.008  -7.096  16.040  0.00  0.00    +0.060 C 
ATOM      6  C   UNL     1     -10.483  -7.216  15.937  0.00  0.00    +0.095 C 
ATOM      7  C   UNL     1     -12.515  -8.549  16.034  0.00  0.00    +0.027 C 
ATOM      8  C   UNL     1     -11.261  -9.402  15.899  0.00  0.00    +0.085 C 
ENDROOT
BRANCH   5  10
ATOM      1  S   UNL     1     -14.293  -6.251  14.701  0.00  0.00    -0.072 S 
ATOM      3  N   UNL     1     -11.909  -5.396  14.211  0.00  0.00    -0.244 NA
ATOM     10  C   UNL     1     -12.605  -6.211  14.969  0.00  0.00    +0.084 A 
ATOM     15  C   UNL     1     -14.112  -5.074  13.454  0.00  0.00    +0.039 A 
ATOM     16  C   UNL     1     -12.761  -4.736  13.336  0.00  0.00    +0.078 A 
ATOM     19  C   UNL     1     -15.096  -4.491  12.638  0.00  0.00    +0.017 A 
ATOM     20  C   UNL     1     -12.383  -3.781  12.368  0.00  0.00    +0.029 A 
ATOM     23  C   UNL     1     -14.695  -3.548  11.688  0.00  0.00    +0.001 A 
ATOM     24  C   UNL     1     -13.356  -3.197  11.553  0.00  0.00    +0.002 A 
ENDBRANCH   5  10
BRANCH   2   9
ATOM      9  C   UNL     1      -8.881  -9.023  16.172  0.00  0.00    +0.121 C 
BRANCH   9  11
ATOM      4  N   UNL     1      -7.977 -10.688  19.328  0.00  0.00    -0.360 N 
ATOM     11  C   UNL     1      -8.248  -9.718  17.349  0.00  0.00    -0.008 A 
ATOM     12  C   UNL     1      -6.886 -10.111  17.468  0.00  0.00    +0.004 A 
ATOM     13  C   UNL     1      -8.894 -10.085  18.508  0.00  0.00    +0.088 A 
ATOM     14  C   UNL     1      -6.743 -10.717  18.719  0.00  0.00    +0.047 A 
ATOM     17  C   UNL     1      -5.757 -10.010  16.632  0.00  0.00    +0.010 A 
ATOM     18  C   UNL     1      -5.522 -11.228  19.174  0.00  0.00    +0.026 A 
ATOM     21  C   UNL     1      -4.531 -10.517  17.074  0.00  0.00    +0.001 A 
ATOM     22  C   UNL     1      -4.417 -11.117  18.327  0.00  0.00    +0.002 A 
ATOM     25  H   UNL     1      -8.177 -11.057  20.247  0.00  0.00    +0.165 HD
ENDBRANCH   9  11
ENDBRANCH   2   9
TORSDOF 3
ENDMDL
MODEL 9
REMARK VINA RESULT:      -6.5     27.387     30.918
REMARK  Name = 51137080
REMARK  3 active torsions:
REMARK  status: ('A' for Active; 'I' for Inactive)
REMARK    1  A    between atoms: N_2  and  C_9
REMARK    2  A    between atoms: C_5  and  C_10
REMARK    3  A    between atoms: C_9  and  C_11
REMARK                            x       y       z     vdW  Elec       q    Type
REMARK                         _______ _______ _______ _____ _____    ______ ____
ROOT
ATOM      2  N   UNL     1      -5.240 -11.300  17.600  0.00  0.00    -0.297 NA
ATOM      5  C   UNL     1      -6.891 -12.145  19.035  0.00  0.00    +0.060 C 
ATOM      6  C   UNL     1      -6.203 -10.843  18.605  0.00  0.00    +0.095 C 
ATOM      7  C   UNL     1      -6.718 -13.092  17.836  0.00  0.00    +0.027 C 
ATOM      8  C   UNL     1      -5.974 -12.272  16.790  0.00  0.00    +0.085 C 
ENDROOT
BRANCH   5  10
ATOM      1  S   UNL     1      -9.219 -13.278  20.047  0.00  0.00    -0.072 S 
ATOM      3  N   UNL     1      -8.940 -10.780  19.464  0.00  0.00    -0.244 NA
ATOM     10  C   UNL     1      -8.320 -11.937  19.480  0.00  0.00    +0.084 A 
ATOM     15  C   UNL     1     -10.576 -12.245  20.304  0.00  0.00    +0.039 A 
ATOM     16  C   UNL     1     -10.236 -10.942  19.934  0.00  0.00    +0.078 A 
ATOM     19  C   UNL     1     -11.851 -12.567  20.799  0.00  0.00    +0.017 A 
ATOM     20  C   UNL     1     -11.206  -9.924  20.065  0.00  0.00    +0.029 A 
ATOM     23  C   UNL     1     -12.793 -11.542  20.919  0.00  0.00    +0.001 A 
ATOM     24  C   UNL     1     -12.476 -10.237  20.557  0.00  0.00    +0.002 A 
ENDBRANCH   5  10
BRANCH   2   9
ATOM      9  C   UNL     1      -4.707 -10.204  16.804  0.00  0.00    +0.121 C 
BRANCH   9  11
ATOM      4  N   UNL     1      -1.529 -11.362  15.354  0.00  0.00    -0.360 N 
ATOM     11  C   UNL     1      -3.540 -10.642  15.959  0.00  0.00    -0.008 A 
ATOM     12  C   UNL     1      -3.503 -10.714  14.538  0.00  0.00    +0.004 A 
ATOM     13  C   UNL     1      -2.313 -11.046  16.432  0.00  0.00    +0.088 A 
ATOM     14  C   UNL     1      -2.230 -11.168  14.185  0.00  0.00    +0.047 A 
ATOM     17  C   UNL     1      -4.432 -10.436  13.516  0.00  0.00    +0.010 A 
ATOM     18  C   UNL     1      -1.840 -11.359  12.854  0.00  0.00    +0.026 A 
ATOM     21  C   UNL     1      -4.054 -10.622  12.181  0.00  0.00    +0.001 A 
ATOM     22  C   UNL     1      -2.778 -11.076  11.858  0.00  0.00    +0.002 A 
ATOM     25  H   UNL     1      -0.575 -11.689  15.407  0.00  0.00    +0.165 HD
ENDBRANCH   9  11
ENDBRANCH   2   9
TORSDOF 3
ENDMDL
MODEL 10
REMARK VINA RESULT:      -6.5     27.636     29.479
REMARK  Name = 51137080
REMARK  3 active torsions:
REMARK  status: ('A' for Active; 'I' for Inactive)
REMARK    1  A    between atoms: N_2  and  C_9
REMARK    2  A    between atoms: C_5  and  C_10
REMARK    3  A    between atoms: C_9  and  C_11
REMARK                            x       y       z     vdW  Elec       q    Type
REMARK                         _______ _______ _______ _____ _____    ______ ____
ROOT
ATOM      2  N   UNL     1      -4.541 -12.481  16.972  0.00  0.00    -0.297 NA
ATOM      5  C   UNL     1      -3.410 -11.751  15.053  0.00  0.00    +0.060 C 
ATOM      6  C   UNL     1      -4.656 -12.518  15.513  0.00  0.00    +0.095 C 
ATOM      7  C   UNL     1      -3.055 -10.836  16.237  0.00  0.00    +0.027 C 
ATOM      8  C   UNL     1      -4.129 -11.111  17.282  0.00  0.00    +0.085 C 
ENDROOT
BRANCH   5  10
ATOM      1  S   UNL     1      -2.305 -10.936  12.635  0.00  0.00    -0.072 S 
ATOM      3  N   UNL     1      -4.736 -10.473  13.364  0.00  0.00    -0.244 NA
ATOM     10  C   UNL     1      -3.610 -11.036  13.736  0.00  0.00    +0.084 A 
ATOM     15  C   UNL     1      -3.308 -10.058  11.541  0.00  0.00    +0.039 A 
ATOM     16  C   UNL     1      -4.577  -9.907  12.106  0.00  0.00    +0.078 A 
ATOM     19  C   UNL     1      -2.994  -9.541  10.274  0.00  0.00    +0.017 A 
ATOM     20  C   UNL     1      -5.566  -9.213  11.375  0.00  0.00    +0.029 A 
ATOM     23  C   UNL     1      -3.991  -8.859   9.571  0.00  0.00    +0.001 A 
ATOM     24  C   UNL     1      -5.261  -8.696  10.113  0.00  0.00    +0.002 A 
ENDBRANCH   5  10
BRANCH   2   9
ATOM      9  C   UNL     1      -5.783 -12.849  17.636  0.00  0.00    +0.121 C 
BRANCH   9  11
ATOM      4  N   UNL     1      -7.562 -10.001  19.142  0.00  0.00    -0.360 N 
ATOM     11  C   UNL     1      -6.610 -11.641  17.987  0.00  0.00    -0.008 A 
ATOM     12  C   UNL     1      -7.411 -10.875  17.094  0.00  0.00    +0.004 A 
ATOM     13  C   UNL     1      -6.723 -11.079  19.238  0.00  0.00    +0.088 A 
ATOM     14  C   UNL     1      -7.998  -9.853  17.844  0.00  0.00    +0.047 A 
ATOM     17  C   UNL     1      -7.696 -10.953  15.717  0.00  0.00    +0.010 A 
ATOM     18  C   UNL     1      -8.857  -8.902  17.282  0.00  0.00    +0.026 A 
ATOM     21  C   UNL     1      -8.554 -10.009  15.142  0.00  0.00    +0.001 A 
ATOM     22  C   UNL     1      -9.124  -9.000  15.914  0.00  0.00    +0.002 A 
ATOM     25  H   UNL     1      -7.824  -9.401  19.911  0.00  0.00    +0.165 HD
ENDBRANCH   9  11
ENDBRANCH   2   9
TORSDOF 3
ENDMDL
