MODEL 1
REMARK VINA RESULT:      -7.4      0.000      0.000
REMARK  Name = 51137740
REMARK  5 active torsions:
REMARK  status: ('A' for Active; 'I' for Inactive)
REMARK    1  A    between atoms: S_1  and  N_5
REMARK    2  A    between atoms: S_1  and  C_14
REMARK    3  A    between atoms: C_9  and  C_13
REMARK    4  A    between atoms: C_17  and  C_20
REMARK    5  A    between atoms: C_21  and  C_26
REMARK                            x       y       z     vdW  Elec       q    Type
REMARK                         _______ _______ _______ _____ _____    ______ ____
ROOT
ATOM      5  N   UNL     1      12.611   7.797  19.473  0.00  0.00    -0.176 NA
ATOM      9  C   UNL     1      11.940   8.345  21.730  0.00  0.00    +0.094 C 
ATOM     10  C   UNL     1      10.725   8.309  20.801  0.00  0.00    +0.031 C 
ATOM     11  C   UNL     1      13.031   7.652  20.898  0.00  0.00    +0.122 C 
ATOM     12  C   UNL     1      11.321   8.524  19.417  0.00  0.00    +0.110 C 
ENDROOT
BRANCH   9  13
ATOM      2  O   UNL     1      11.194  10.630  22.233  0.00  0.00    -0.420 OA
ATOM      6  N   UNL     1      13.367  10.275  22.630  0.00  0.00    -0.112 NA
ATOM      7  N   UNL     1      13.083  11.589  22.952  0.00  0.00    -0.107 NA
ATOM     13  C   UNL     1      12.236   9.754  22.215  0.00  0.00    +0.222 A 
ATOM     17  C   UNL     1      11.805  11.751  22.704  0.00  0.00    +0.248 A 
BRANCH  17  20
ATOM     20  C   UNL     1      10.968  12.907  22.852  0.00  0.00    +0.038 A 
ATOM     22  C   UNL     1      10.515  13.589  21.724  0.00  0.00    +0.013 A 
ATOM     23  C   UNL     1      10.609  13.348  24.126  0.00  0.00    +0.013 A 
ATOM     24  C   UNL     1       9.702  14.713  21.868  0.00  0.00    +0.001 A 
ATOM     25  C   UNL     1       9.794  14.471  24.270  0.00  0.00    +0.001 A 
ATOM     27  C   UNL     1       9.341  15.154  23.141  0.00  0.00    +0.000 A 
ENDBRANCH  17  20
ENDBRANCH   9  13
BRANCH   5   1
ATOM      1  S   UNL     1      13.787   8.142  18.302  0.00  0.00    +0.061 S 
ATOM      3  O   UNL     1      13.794   9.567  18.026  0.00  0.00    -0.153 OA
ATOM      4  O   UNL     1      13.685   7.184  17.216  0.00  0.00    -0.153 OA
BRANCH   1  14
ATOM     14  C   UNL     1      15.261   7.769  19.205  0.00  0.00    +0.106 A 
ATOM     15  C   UNL     1      15.814   8.720  20.061  0.00  0.00    +0.030 A 
ATOM     16  C   UNL     1      15.871   6.523  19.060  0.00  0.00    +0.030 A 
ATOM     18  C   UNL     1      16.976   8.426  20.773  0.00  0.00    +0.021 A 
ATOM     19  C   UNL     1      17.034   6.229  19.772  0.00  0.00    +0.021 A 
ATOM     21  C   UNL     1      17.587   7.180  20.628  0.00  0.00    +0.052 A 
BRANCH  21  26
ATOM      8  N   UNL     1      19.746   6.637  21.950  0.00  0.00    -0.191 NA
ATOM     26  C   UNL     1      18.778   6.880  21.358  0.00  0.00    +0.099 C 
ENDBRANCH  21  26
ENDBRANCH   1  14
ENDBRANCH   5   1
TORSDOF 5
ENDMDL
MODEL 2
REMARK VINA RESULT:      -7.3      3.065      7.150
REMARK  Name = 51137740
REMARK  5 active torsions:
REMARK  status: ('A' for Active; 'I' for Inactive)
REMARK    1  A    between atoms: S_1  and  N_5
REMARK    2  A    between atoms: S_1  and  C_14
REMARK    3  A    between atoms: C_9  and  C_13
REMARK    4  A    between atoms: C_17  and  C_20
REMARK    5  A    between atoms: C_21  and  C_26
REMARK                            x       y       z     vdW  Elec       q    Type
REMARK                         _______ _______ _______ _____ _____    ______ ____
ROOT
ATOM      5  N   UNL     1      12.579  12.901  23.922  0.00  0.00    -0.176 NA
ATOM      9  C   UNL     1      14.862  12.146  23.662  0.00  0.00    +0.094 C 
ATOM     10  C   UNL     1      14.795  13.674  23.646  0.00  0.00    +0.031 C 
ATOM     11  C   UNL     1      13.481  11.747  24.208  0.00  0.00    +0.122 C 
ATOM     12  C   UNL     1      13.355  13.971  23.250  0.00  0.00    +0.110 C 
ENDROOT
BRANCH   9  13
ATOM      2  O   UNL     1      15.465  10.244  22.231  0.00  0.00    -0.420 OA
ATOM      6  N   UNL     1      15.421  12.208  21.160  0.00  0.00    -0.112 NA
ATOM      7  N   UNL     1      15.771  11.231  20.247  0.00  0.00    -0.107 NA
ATOM     13  C   UNL     1      15.252  11.587  22.304  0.00  0.00    +0.222 A 
ATOM     17  C   UNL     1      15.785  10.102  20.915  0.00  0.00    +0.248 A 
BRANCH  17  20
ATOM     20  C   UNL     1      16.079   8.767  20.481  0.00  0.00    +0.038 A 
ATOM     22  C   UNL     1      15.331   8.186  19.458  0.00  0.00    +0.013 A 
ATOM     23  C   UNL     1      17.112   8.050  21.084  0.00  0.00    +0.013 A 
ATOM     24  C   UNL     1      15.617   6.888  19.036  0.00  0.00    +0.001 A 
ATOM     25  C   UNL     1      17.399   6.752  20.661  0.00  0.00    +0.001 A 
ATOM     27  C   UNL     1      16.650   6.171  19.637  0.00  0.00    +0.000 A 
ENDBRANCH  17  20
ENDBRANCH   9  13
BRANCH   5   1
ATOM      1  S   UNL     1      10.998  12.597  23.396  0.00  0.00    +0.061 S 
ATOM      3  O   UNL     1      10.586  13.634  22.467  0.00  0.00    -0.153 OA
ATOM      4  O   UNL     1      10.164  12.259  24.536  0.00  0.00    -0.153 OA
BRANCH   1  14
ATOM     14  C   UNL     1      11.247  11.116  22.462  0.00  0.00    +0.106 A 
ATOM     15  C   UNL     1      11.892  11.171  21.226  0.00  0.00    +0.030 A 
ATOM     16  C   UNL     1      10.799   9.893  22.961  0.00  0.00    +0.030 A 
ATOM     18  C   UNL     1      12.089  10.004  20.489  0.00  0.00    +0.021 A 
ATOM     19  C   UNL     1      10.997   8.725  22.224  0.00  0.00    +0.021 A 
ATOM     21  C   UNL     1      11.641   8.780  20.988  0.00  0.00    +0.052 A 
BRANCH  21  26
ATOM      8  N   UNL     1      12.005   6.612  19.619  0.00  0.00    -0.191 NA
ATOM     26  C   UNL     1      11.843   7.584  20.233  0.00  0.00    +0.099 C 
ENDBRANCH  21  26
ENDBRANCH   1  14
ENDBRANCH   5   1
TORSDOF 5
ENDMDL
MODEL 3
REMARK VINA RESULT:      -7.2      2.882      6.821
REMARK  Name = 51137740
REMARK  5 active torsions:
REMARK  status: ('A' for Active; 'I' for Inactive)
REMARK    1  A    between atoms: S_1  and  N_5
REMARK    2  A    between atoms: S_1  and  C_14
REMARK    3  A    between atoms: C_9  and  C_13
REMARK    4  A    between atoms: C_17  and  C_20
REMARK    5  A    between atoms: C_21  and  C_26
REMARK                            x       y       z     vdW  Elec       q    Type
REMARK                         _______ _______ _______ _____ _____    ______ ____
ROOT
ATOM      5  N   UNL     1      11.948   9.498  20.937  0.00  0.00    -0.176 NA
ATOM      9  C   UNL     1      13.647  10.302  22.458  0.00  0.00    +0.094 C 
ATOM     10  C   UNL     1      13.008  11.467  21.702  0.00  0.00    +0.031 C 
ATOM     11  C   UNL     1      12.674   9.142  22.192  0.00  0.00    +0.122 C 
ATOM     12  C   UNL     1      12.429  10.815  20.454  0.00  0.00    +0.110 C 
ENDROOT
BRANCH   9  13
ATOM      2  O   UNL     1      15.440   8.842  21.630  0.00  0.00    -0.420 OA
ATOM      6  N   UNL     1      16.093  10.944  22.033  0.00  0.00    -0.112 NA
ATOM      7  N   UNL     1      17.189  10.236  21.576  0.00  0.00    -0.107 NA
ATOM     13  C   UNL     1      15.095  10.091  22.048  0.00  0.00    +0.222 A 
ATOM     17  C   UNL     1      16.762   9.015  21.354  0.00  0.00    +0.248 A 
BRANCH  17  20
ATOM     20  C   UNL     1      17.460   7.858  20.874  0.00  0.00    +0.038 A 
ATOM     22  C   UNL     1      18.710   7.531  21.396  0.00  0.00    +0.013 A 
ATOM     23  C   UNL     1      16.887   7.060  19.883  0.00  0.00    +0.013 A 
ATOM     24  C   UNL     1      19.389   6.406  20.928  0.00  0.00    +0.001 A 
ATOM     25  C   UNL     1      17.565   5.934  19.416  0.00  0.00    +0.001 A 
ATOM     27  C   UNL     1      18.817   5.608  19.939  0.00  0.00    +0.000 A 
ENDBRANCH  17  20
ENDBRANCH   9  13
BRANCH   5   1
ATOM      1  S   UNL     1      11.634   8.284  19.798  0.00  0.00    +0.061 S 
ATOM      3  O   UNL     1      10.234   8.328  19.415  0.00  0.00    -0.153 OA
ATOM      4  O   UNL     1      12.236   7.038  20.239  0.00  0.00    -0.153 OA
BRANCH   1  14
ATOM     14  C   UNL     1      12.578   8.875  18.425  0.00  0.00    +0.106 A 
ATOM     15  C   UNL     1      11.965   9.066  17.187  0.00  0.00    +0.030 A 
ATOM     16  C   UNL     1      13.937   9.151  18.580  0.00  0.00    +0.030 A 
ATOM     18  C   UNL     1      12.709   9.533  16.104  0.00  0.00    +0.021 A 
ATOM     19  C   UNL     1      14.681   9.618  17.497  0.00  0.00    +0.021 A 
ATOM     21  C   UNL     1      14.068   9.808  16.259  0.00  0.00    +0.052 A 
BRANCH  21  26
ATOM      8  N   UNL     1      15.450  10.673  14.247  0.00  0.00    -0.191 NA
ATOM     26  C   UNL     1      14.831  10.286  15.149  0.00  0.00    +0.099 C 
ENDBRANCH  21  26
ENDBRANCH   1  14
ENDBRANCH   5   1
TORSDOF 5
ENDMDL
MODEL 4
REMARK VINA RESULT:      -7.1      2.635      5.290
REMARK  Name = 51137740
REMARK  5 active torsions:
REMARK  status: ('A' for Active; 'I' for Inactive)
REMARK    1  A    between atoms: S_1  and  N_5
REMARK    2  A    between atoms: S_1  and  C_14
REMARK    3  A    between atoms: C_9  and  C_13
REMARK    4  A    between atoms: C_17  and  C_20
REMARK    5  A    between atoms: C_21  and  C_26
REMARK                            x       y       z     vdW  Elec       q    Type
REMARK                         _______ _______ _______ _____ _____    ______ ____
ROOT
ATOM      5  N   UNL     1      13.743   7.163  20.118  0.00  0.00    -0.176 NA
ATOM      9  C   UNL     1      15.731   8.540  20.100  0.00  0.00    +0.094 C 
ATOM     10  C   UNL     1      15.758   7.572  21.284  0.00  0.00    +0.031 C 
ATOM     11  C   UNL     1      14.615   7.967  19.211  0.00  0.00    +0.122 C 
ATOM     12  C   UNL     1      14.293   7.216  21.494  0.00  0.00    +0.110 C 
ENDROOT
BRANCH   9  13
ATOM      2  O   UNL     1      15.091  10.181  21.811  0.00  0.00    -0.420 OA
ATOM      6  N   UNL     1      15.842  11.094  19.912  0.00  0.00    -0.112 NA
ATOM      7  N   UNL     1      15.519  12.120  20.780  0.00  0.00    -0.107 NA
ATOM     13  C   UNL     1      15.576   9.981  20.554  0.00  0.00    +0.222 A 
ATOM     17  C   UNL     1      15.085  11.540  21.875  0.00  0.00    +0.248 A 
BRANCH  17  20
ATOM     20  C   UNL     1      14.616  12.109  23.106  0.00  0.00    +0.038 A 
ATOM     22  C   UNL     1      14.582  11.334  24.264  0.00  0.00    +0.013 A 
ATOM     23  C   UNL     1      14.194  13.438  23.143  0.00  0.00    +0.013 A 
ATOM     24  C   UNL     1      14.125  11.886  25.460  0.00  0.00    +0.001 A 
ATOM     25  C   UNL     1      13.738  13.991  24.339  0.00  0.00    +0.001 A 
ATOM     27  C   UNL     1      13.704  13.215  25.498  0.00  0.00    +0.000 A 
ENDBRANCH  17  20
ENDBRANCH   9  13
BRANCH   5   1
ATOM      1  S   UNL     1      12.062   7.232  19.914  0.00  0.00    +0.061 S 
ATOM      3  O   UNL     1      11.463   6.006  20.409  0.00  0.00    -0.153 OA
ATOM      4  O   UNL     1      11.755   7.713  18.579  0.00  0.00    -0.153 OA
BRANCH   1  14
ATOM     14  C   UNL     1      11.651   8.521  21.053  0.00  0.00    +0.106 A 
ATOM     15  C   UNL     1      11.853   9.855  20.698  0.00  0.00    +0.030 A 
ATOM     16  C   UNL     1      11.126   8.204  22.305  0.00  0.00    +0.030 A 
ATOM     18  C   UNL     1      11.528  10.872  21.596  0.00  0.00    +0.021 A 
ATOM     19  C   UNL     1      10.802   9.221  23.203  0.00  0.00    +0.021 A 
ATOM     21  C   UNL     1      11.003  10.555  22.849  0.00  0.00    +0.052 A 
BRANCH  21  26
ATOM      8  N   UNL     1      10.401  12.442  24.517  0.00  0.00    -0.191 NA
ATOM     26  C   UNL     1      10.671  11.597  23.769  0.00  0.00    +0.099 C 
ENDBRANCH  21  26
ENDBRANCH   1  14
ENDBRANCH   5   1
TORSDOF 5
ENDMDL
MODEL 5
REMARK VINA RESULT:      -6.9     18.809     22.062
REMARK  Name = 51137740
REMARK  5 active torsions:
REMARK  status: ('A' for Active; 'I' for Inactive)
REMARK    1  A    between atoms: S_1  and  N_5
REMARK    2  A    between atoms: S_1  and  C_14
REMARK    3  A    between atoms: C_9  and  C_13
REMARK    4  A    between atoms: C_17  and  C_20
REMARK    5  A    between atoms: C_21  and  C_26
REMARK                            x       y       z     vdW  Elec       q    Type
REMARK                         _______ _______ _______ _____ _____    ______ ____
ROOT
ATOM      5  N   UNL     1      12.708   4.902   2.388  0.00  0.00    -0.176 NA
ATOM      9  C   UNL     1      13.677   3.251   0.910  0.00  0.00    +0.094 C 
ATOM     10  C   UNL     1      14.771   4.091   1.570  0.00  0.00    +0.031 C 
ATOM     11  C   UNL     1      12.435   3.577   1.756  0.00  0.00    +0.122 C 
ATOM     12  C   UNL     1      14.052   5.371   1.975  0.00  0.00    +0.110 C 
ENDROOT
BRANCH   9  13
ATOM      2  O   UNL     1      12.452   3.101  -1.213  0.00  0.00    -0.420 OA
ATOM      6  N   UNL     1      14.440   4.113  -1.380  0.00  0.00    -0.112 NA
ATOM      7  N   UNL     1      13.862   4.096  -2.636  0.00  0.00    -0.107 NA
ATOM     13  C   UNL     1      13.582   3.522  -0.582  0.00  0.00    +0.222 A 
ATOM     17  C   UNL     1      12.704   3.496  -2.491  0.00  0.00    +0.248 A 
BRANCH  17  20
ATOM     20  C   UNL     1      11.682   3.199  -3.453  0.00  0.00    +0.038 A 
ATOM     22  C   UNL     1      11.899   3.462  -4.805  0.00  0.00    +0.013 A 
ATOM     23  C   UNL     1      10.472   2.646  -3.035  0.00  0.00    +0.013 A 
ATOM     24  C   UNL     1      10.906   3.174  -5.740  0.00  0.00    +0.001 A 
ATOM     25  C   UNL     1       9.478   2.356  -3.970  0.00  0.00    +0.001 A 
ATOM     27  C   UNL     1       9.696   2.620  -5.323  0.00  0.00    +0.000 A 
ENDBRANCH  17  20
ENDBRANCH   9  13
BRANCH   5   1
ATOM      1  S   UNL     1      11.452   6.035   2.494  0.00  0.00    +0.061 S 
ATOM      3  O   UNL     1      10.352   5.622   1.641  0.00  0.00    -0.153 OA
ATOM      4  O   UNL     1      11.999   7.375   2.390  0.00  0.00    -0.153 OA
BRANCH   1  14
ATOM     14  C   UNL     1      10.942   5.796   4.170  0.00  0.00    +0.106 A 
ATOM     15  C   UNL     1      10.106   4.729   4.499  0.00  0.00    +0.030 A 
ATOM     16  C   UNL     1      11.374   6.675   5.163  0.00  0.00    +0.030 A 
ATOM     18  C   UNL     1       9.703   4.540   5.821  0.00  0.00    +0.021 A 
ATOM     19  C   UNL     1      10.972   6.486   6.485  0.00  0.00    +0.021 A 
ATOM     21  C   UNL     1      10.136   5.419   6.814  0.00  0.00    +0.052 A 
BRANCH  21  26
ATOM      8  N   UNL     1       9.386   5.068   9.268  0.00  0.00    -0.191 NA
ATOM     26  C   UNL     1       9.723   5.226   8.168  0.00  0.00    +0.099 C 
ENDBRANCH  21  26
ENDBRANCH   1  14
ENDBRANCH   5   1
TORSDOF 5
ENDMDL
MODEL 6
REMARK VINA RESULT:      -6.9     27.106     29.995
REMARK  Name = 51137740
REMARK  5 active torsions:
REMARK  status: ('A' for Active; 'I' for Inactive)
REMARK    1  A    between atoms: S_1  and  N_5
REMARK    2  A    between atoms: S_1  and  C_14
REMARK    3  A    between atoms: C_9  and  C_13
REMARK    4  A    between atoms: C_17  and  C_20
REMARK    5  A    between atoms: C_21  and  C_26
REMARK                            x       y       z     vdW  Elec       q    Type
REMARK                         _______ _______ _______ _____ _____    ______ ____
ROOT
ATOM      5  N   UNL     1      -8.677 -12.274  17.957  0.00  0.00    -0.176 NA
ATOM      9  C   UNL     1      -8.136 -13.993  16.346  0.00  0.00    +0.094 C 
ATOM     10  C   UNL     1      -8.563 -14.617  17.675  0.00  0.00    +0.031 C 
ATOM     11  C   UNL     1      -8.589 -12.531  16.489  0.00  0.00    +0.122 C 
ATOM     12  C   UNL     1      -8.317 -13.510  18.691  0.00  0.00    +0.110 C 
ENDROOT
BRANCH   9  13
ATOM      2  O   UNL     1      -6.073 -13.412  15.146  0.00  0.00    -0.420 OA
ATOM      6  N   UNL     1      -5.846 -15.124  16.568  0.00  0.00    -0.112 NA
ATOM      7  N   UNL     1      -4.622 -14.904  15.965  0.00  0.00    -0.107 NA
ATOM     13  C   UNL     1      -6.662 -14.231  16.060  0.00  0.00    +0.222 A 
ATOM     17  C   UNL     1      -4.801 -13.897  15.143  0.00  0.00    +0.248 A 
BRANCH  17  20
ATOM     20  C   UNL     1      -3.881 -13.240  14.260  0.00  0.00    +0.038 A 
ATOM     22  C   UNL     1      -2.561 -13.682  14.174  0.00  0.00    +0.013 A 
ATOM     23  C   UNL     1      -4.308 -12.160  13.487  0.00  0.00    +0.013 A 
ATOM     24  C   UNL     1      -1.667 -13.043  13.316  0.00  0.00    +0.001 A 
ATOM     25  C   UNL     1      -3.414 -11.522  12.628  0.00  0.00    +0.001 A 
ATOM     27  C   UNL     1      -2.093 -11.963  12.542  0.00  0.00    +0.000 A 
ENDBRANCH  17  20
ENDBRANCH   9  13
BRANCH   5   1
ATOM      1  S   UNL     1      -8.138 -10.786  18.563  0.00  0.00    +0.061 S 
ATOM      3  O   UNL     1      -8.042 -10.857  20.010  0.00  0.00    -0.153 OA
ATOM      4  O   UNL     1      -8.875  -9.708  17.928  0.00  0.00    -0.153 OA
BRANCH   1  14
ATOM     14  C   UNL     1      -6.490 -10.754  17.923  0.00  0.00    +0.106 A 
ATOM     15  C   UNL     1      -5.499 -11.540  18.511  0.00  0.00    +0.030 A 
ATOM     16  C   UNL     1      -6.182  -9.944  16.831  0.00  0.00    +0.030 A 
ATOM     18  C   UNL     1      -4.198 -11.515  18.006  0.00  0.00    +0.021 A 
ATOM     19  C   UNL     1      -4.881  -9.919  16.326  0.00  0.00    +0.021 A 
ATOM     21  C   UNL     1      -3.890 -10.704  16.914  0.00  0.00    +0.052 A 
BRANCH  21  26
ATOM      8  N   UNL     1      -1.476 -10.660  15.978  0.00  0.00    -0.191 NA
ATOM     26  C   UNL     1      -2.558 -10.679  16.397  0.00  0.00    +0.099 C 
ENDBRANCH  21  26
ENDBRANCH   1  14
ENDBRANCH   5   1
TORSDOF 5
ENDMDL
MODEL 7
REMARK VINA RESULT:      -6.8     26.994     28.935
REMARK  Name = 51137740
REMARK  5 active torsions:
REMARK  status: ('A' for Active; 'I' for Inactive)
REMARK    1  A    between atoms: S_1  and  N_5
REMARK    2  A    between atoms: S_1  and  C_14
REMARK    3  A    between atoms: C_9  and  C_13
REMARK    4  A    between atoms: C_17  and  C_20
REMARK    5  A    between atoms: C_21  and  C_26
REMARK                            x       y       z     vdW  Elec       q    Type
REMARK                         _______ _______ _______ _____ _____    ______ ____
ROOT
ATOM      5  N   UNL     1      -4.601 -12.170  16.979  0.00  0.00    -0.176 NA
ATOM      9  C   UNL     1      -5.404 -10.670  18.698  0.00  0.00    +0.094 C 
ATOM     10  C   UNL     1      -4.743 -11.899  19.323  0.00  0.00    +0.031 C 
ATOM     11  C   UNL     1      -4.946 -10.740  17.232  0.00  0.00    +0.122 C 
ATOM     12  C   UNL     1      -4.815 -12.949  18.222  0.00  0.00    +0.110 C 
ENDROOT
BRANCH   9  13
ATOM      2  O   UNL     1      -7.653  -9.867  18.123  0.00  0.00    -0.420 OA
ATOM      6  N   UNL     1      -7.608 -11.280  19.857  0.00  0.00    -0.112 NA
ATOM      7  N   UNL     1      -8.922 -10.909  19.643  0.00  0.00    -0.107 NA
ATOM     13  C   UNL     1      -6.903 -10.648  18.948  0.00  0.00    +0.222 A 
ATOM     17  C   UNL     1      -8.901 -10.084  18.622  0.00  0.00    +0.248 A 
BRANCH  17  20
ATOM     20  C   UNL     1      -9.969  -9.390  17.964  0.00  0.00    +0.038 A 
ATOM     22  C   UNL     1     -11.242  -9.958  17.910  0.00  0.00    +0.013 A 
ATOM     23  C   UNL     1      -9.735  -8.146  17.378  0.00  0.00    +0.013 A 
ATOM     24  C   UNL     1     -12.280  -9.283  17.270  0.00  0.00    +0.001 A 
ATOM     25  C   UNL     1     -10.775  -7.470  16.738  0.00  0.00    +0.001 A 
ATOM     27  C   UNL     1     -12.047  -8.039  16.684  0.00  0.00    +0.000 A 
ENDBRANCH  17  20
ENDBRANCH   9  13
BRANCH   5   1
ATOM      1  S   UNL     1      -5.037 -12.870  15.499  0.00  0.00    +0.061 S 
ATOM      3  O   UNL     1      -6.416 -12.535  15.191  0.00  0.00    -0.153 OA
ATOM      4  O   UNL     1      -4.592 -14.252  15.467  0.00  0.00    -0.153 OA
BRANCH   1  14
ATOM     14  C   UNL     1      -4.008 -11.953  14.392  0.00  0.00    +0.106 A 
ATOM     15  C   UNL     1      -2.625 -12.132  14.416  0.00  0.00    +0.030 A 
ATOM     16  C   UNL     1      -4.579 -11.050  13.495  0.00  0.00    +0.030 A 
ATOM     18  C   UNL     1      -1.813 -11.408  13.543  0.00  0.00    +0.021 A 
ATOM     19  C   UNL     1      -3.767 -10.327  12.622  0.00  0.00    +0.021 A 
ATOM     21  C   UNL     1      -2.384 -10.505  12.646  0.00  0.00    +0.052 A 
BRANCH  21  26
ATOM      8  N   UNL     1      -0.875  -9.163  11.025  0.00  0.00    -0.191 NA
ATOM     26  C   UNL     1      -1.552  -9.764  11.751  0.00  0.00    +0.099 C 
ENDBRANCH  21  26
ENDBRANCH   1  14
ENDBRANCH   5   1
TORSDOF 5
ENDMDL
MODEL 8
REMARK VINA RESULT:      -6.8     27.408     29.292
REMARK  Name = 51137740
REMARK  5 active torsions:
REMARK  status: ('A' for Active; 'I' for Inactive)
REMARK    1  A    between atoms: S_1  and  N_5
REMARK    2  A    between atoms: S_1  and  C_14
REMARK    3  A    between atoms: C_9  and  C_13
REMARK    4  A    between atoms: C_17  and  C_20
REMARK    5  A    between atoms: C_21  and  C_26
REMARK                            x       y       z     vdW  Elec       q    Type
REMARK                         _______ _______ _______ _____ _____    ______ ____
ROOT
ATOM      5  N   UNL     1      -2.257 -12.640  14.655  0.00  0.00    -0.176 NA
ATOM      9  C   UNL     1      -3.135 -14.377  13.221  0.00  0.00    +0.094 C 
ATOM     10  C   UNL     1      -1.627 -14.546  13.408  0.00  0.00    +0.031 C 
ATOM     11  C   UNL     1      -3.511 -13.380  14.330  0.00  0.00    +0.122 C 
ATOM     12  C   UNL     1      -1.154 -13.155  13.810  0.00  0.00    +0.110 C 
ENDROOT
BRANCH   9  13
ATOM      2  O   UNL     1      -3.657 -12.655  11.549  0.00  0.00    -0.420 OA
ATOM      6  N   UNL     1      -3.652 -14.739  10.736  0.00  0.00    -0.112 NA
ATOM      7  N   UNL     1      -3.958 -13.877   9.700  0.00  0.00    -0.107 NA
ATOM     13  C   UNL     1      -3.485 -13.983  11.796  0.00  0.00    +0.222 A 
ATOM     17  C   UNL     1      -3.950 -12.672  10.220  0.00  0.00    +0.248 A 
BRANCH  17  20
ATOM     20  C   UNL     1      -4.196 -11.396   9.615  0.00  0.00    +0.038 A 
ATOM     22  C   UNL     1      -4.950 -11.312   8.445  0.00  0.00    +0.013 A 
ATOM     23  C   UNL     1      -3.681 -10.238  10.198  0.00  0.00    +0.013 A 
ATOM     24  C   UNL     1      -5.189 -10.070   7.857  0.00  0.00    +0.001 A 
ATOM     25  C   UNL     1      -3.921  -8.995   9.610  0.00  0.00    +0.001 A 
ATOM     27  C   UNL     1      -4.675  -8.912   8.439  0.00  0.00    +0.000 A 
ENDBRANCH  17  20
ENDBRANCH   9  13
BRANCH   5   1
ATOM      1  S   UNL     1      -2.341 -10.973  14.949  0.00  0.00    +0.061 S 
ATOM      3  O   UNL     1      -2.865 -10.299  13.774  0.00  0.00    -0.153 OA
ATOM      4  O   UNL     1      -1.103 -10.526  15.561  0.00  0.00    -0.153 OA
BRANCH   1  14
ATOM     14  C   UNL     1      -3.598 -10.927  16.191  0.00  0.00    +0.106 A 
ATOM     15  C   UNL     1      -4.826 -10.324  15.920  0.00  0.00    +0.030 A 
ATOM     16  C   UNL     1      -3.362 -11.493  17.444  0.00  0.00    +0.030 A 
ATOM     18  C   UNL     1      -5.817 -10.287  16.900  0.00  0.00    +0.021 A 
ATOM     19  C   UNL     1      -4.353 -11.457  18.424  0.00  0.00    +0.021 A 
ATOM     21  C   UNL     1      -5.581 -10.854  18.152  0.00  0.00    +0.052 A 
BRANCH  21  26
ATOM      8  N   UNL     1      -7.423 -10.786  19.971  0.00  0.00    -0.191 NA
ATOM     26  C   UNL     1      -6.597 -10.816  19.156  0.00  0.00    +0.099 C 
ENDBRANCH  21  26
ENDBRANCH   1  14
ENDBRANCH   5   1
TORSDOF 5
ENDMDL
MODEL 9
REMARK VINA RESULT:      -6.7     27.599     29.230
REMARK  Name = 51137740
REMARK  5 active torsions:
REMARK  status: ('A' for Active; 'I' for Inactive)
REMARK    1  A    between atoms: S_1  and  N_5
REMARK    2  A    between atoms: S_1  and  C_14
REMARK    3  A    between atoms: C_9  and  C_13
REMARK    4  A    between atoms: C_17  and  C_20
REMARK    5  A    between atoms: C_21  and  C_26
REMARK                            x       y       z     vdW  Elec       q    Type
REMARK                         _______ _______ _______ _____ _____    ______ ____
ROOT
ATOM      5  N   UNL     1      -8.035 -10.446  17.997  0.00  0.00    -0.176 NA
ATOM      9  C   UNL     1      -8.440  -9.545  15.790  0.00  0.00    +0.094 C 
ATOM     10  C   UNL     1      -9.658 -10.327  16.283  0.00  0.00    +0.031 C 
ATOM     11  C   UNL     1      -7.609  -9.356  17.070  0.00  0.00    +0.122 C 
ATOM     12  C   UNL     1      -9.085 -11.261  17.341  0.00  0.00    +0.110 C 
ENDROOT
BRANCH   9  13
ATOM      2  O   UNL     1      -6.833  -9.520  13.933  0.00  0.00    -0.420 OA
ATOM      6  N   UNL     1      -7.922 -11.461  14.167  0.00  0.00    -0.112 NA
ATOM      7  N   UNL     1      -7.057 -11.583  13.095  0.00  0.00    -0.107 NA
ATOM     13  C   UNL     1      -7.758 -10.242  14.625  0.00  0.00    +0.222 A 
ATOM     17  C   UNL     1      -6.443 -10.427  12.995  0.00  0.00    +0.248 A 
BRANCH  17  20
ATOM     20  C   UNL     1      -5.443  -9.982  12.069  0.00  0.00    +0.038 A 
ATOM     22  C   UNL     1      -5.686  -8.872  11.260  0.00  0.00    +0.013 A 
ATOM     23  C   UNL     1      -4.228 -10.660  11.977  0.00  0.00    +0.013 A 
ATOM     24  C   UNL     1      -4.714  -8.440  10.359  0.00  0.00    +0.001 A 
ATOM     25  C   UNL     1      -3.254 -10.227  11.076  0.00  0.00    +0.001 A 
ATOM     27  C   UNL     1      -3.498  -9.116  10.267  0.00  0.00    +0.000 A 
ENDBRANCH  17  20
ENDBRANCH   9  13
BRANCH   5   1
ATOM      1  S   UNL     1      -6.860 -11.236  18.928  0.00  0.00    +0.061 S 
ATOM      3  O   UNL     1      -7.350 -12.546  19.318  0.00  0.00    -0.153 OA
ATOM      4  O   UNL     1      -6.335 -10.321  19.925  0.00  0.00    -0.153 OA
BRANCH   1  14
ATOM     14  C   UNL     1      -5.598 -11.483  17.714  0.00  0.00    +0.106 A 
ATOM     15  C   UNL     1      -4.474 -10.657  17.700  0.00  0.00    +0.030 A 
ATOM     16  C   UNL     1      -5.727 -12.502  16.771  0.00  0.00    +0.030 A 
ATOM     18  C   UNL     1      -3.478 -10.851  16.742  0.00  0.00    +0.021 A 
ATOM     19  C   UNL     1      -4.731 -12.696  15.814  0.00  0.00    +0.021 A 
ATOM     21  C   UNL     1      -3.607 -11.871  15.799  0.00  0.00    +0.052 A 
BRANCH  21  26
ATOM      8  N   UNL     1      -1.757 -12.231  14.023  0.00  0.00    -0.191 NA
ATOM     26  C   UNL     1      -2.587 -12.069  14.818  0.00  0.00    +0.099 C 
ENDBRANCH  21  26
ENDBRANCH   1  14
ENDBRANCH   5   1
TORSDOF 5
ENDMDL
MODEL 10
REMARK VINA RESULT:      -6.7     22.144     25.044
REMARK  Name = 51137740
REMARK  5 active torsions:
REMARK  status: ('A' for Active; 'I' for Inactive)
REMARK    1  A    between atoms: S_1  and  N_5
REMARK    2  A    between atoms: S_1  and  C_14
REMARK    3  A    between atoms: C_9  and  C_13
REMARK    4  A    between atoms: C_17  and  C_20
REMARK    5  A    between atoms: C_21  and  C_26
REMARK                            x       y       z     vdW  Elec       q    Type
REMARK                         _______ _______ _______ _____ _____    ______ ____
ROOT
ATOM      5  N   UNL     1     -11.371   9.475  17.712  0.00  0.00    -0.176 NA
ATOM      9  C   UNL     1     -11.627  10.528  15.550  0.00  0.00    +0.094 C 
ATOM     10  C   UNL     1     -10.704   9.313  15.450  0.00  0.00    +0.031 C 
ATOM     11  C   UNL     1     -12.295  10.343  16.922  0.00  0.00    +0.122 C 
ATOM     12  C   UNL     1     -10.200   9.123  16.875  0.00  0.00    +0.110 C 
ENDROOT
BRANCH   9  13
ATOM      2  O   UNL     1      -9.656  11.945  15.920  0.00  0.00    -0.420 OA
ATOM      6  N   UNL     1     -11.219  12.883  14.623  0.00  0.00    -0.112 NA
ATOM      7  N   UNL     1     -10.174  13.779  14.749  0.00  0.00    -0.107 NA
ATOM     13  C   UNL     1     -10.874  11.827  15.322  0.00  0.00    +0.222 A 
ATOM     17  C   UNL     1      -9.285  13.190  15.514  0.00  0.00    +0.248 A 
BRANCH  17  20
ATOM     20  C   UNL     1      -8.007  13.647  15.978  0.00  0.00    +0.038 A 
ATOM     22  C   UNL     1      -6.896  13.581  15.139  0.00  0.00    +0.013 A 
ATOM     23  C   UNL     1      -7.877  14.158  17.269  0.00  0.00    +0.013 A 
ATOM     24  C   UNL     1      -5.653  14.025  15.590  0.00  0.00    +0.001 A 
ATOM     25  C   UNL     1      -6.635  14.603  17.721  0.00  0.00    +0.001 A 
ATOM     27  C   UNL     1      -5.523  14.536  16.881  0.00  0.00    +0.000 A 
ENDBRANCH  17  20
ENDBRANCH   9  13
BRANCH   5   1
ATOM      1  S   UNL     1     -11.120   9.823  19.351  0.00  0.00    +0.061 S 
ATOM      3  O   UNL     1     -11.775  11.074  19.688  0.00  0.00    -0.153 OA
ATOM      4  O   UNL     1      -9.723   9.613  19.683  0.00  0.00    -0.153 OA
BRANCH   1  14
ATOM     14  C   UNL     1     -12.048   8.519  20.103  0.00  0.00    +0.106 A 
ATOM     15  C   UNL     1     -11.405   7.350  20.511  0.00  0.00    +0.030 A 
ATOM     16  C   UNL     1     -13.424   8.658  20.288  0.00  0.00    +0.030 A 
ATOM     18  C   UNL     1     -12.136   6.322  21.104  0.00  0.00    +0.021 A 
ATOM     19  C   UNL     1     -14.155   7.629  20.881  0.00  0.00    +0.021 A 
ATOM     21  C   UNL     1     -13.512   6.461  21.289  0.00  0.00    +0.052 A 
BRANCH  21  26
ATOM      8  N   UNL     1     -14.869   4.551  22.392  0.00  0.00    -0.191 NA
ATOM     26  C   UNL     1     -14.261   5.407  21.897  0.00  0.00    +0.099 C 
ENDBRANCH  21  26
ENDBRANCH   1  14
ENDBRANCH   5   1
TORSDOF 5
ENDMDL
