MODEL 1
REMARK VINA RESULT:      -6.7      0.000      0.000
REMARK  Name = 26742973
REMARK  10 active torsions:
REMARK  status: ('A' for Active; 'I' for Inactive)
REMARK    1  A    between atoms: N_5  and  C_19
REMARK    2  A    between atoms: C_7  and  C_13
REMARK    3  A    between atoms: C_8  and  C_11
REMARK    4  A    between atoms: C_11  and  C_14
REMARK    5  A    between atoms: C_13  and  C_15
REMARK    6  A    between atoms: C_17  and  C_18
REMARK    7  A    between atoms: C_18  and  C_20
REMARK    8  A    between atoms: C_19  and  C_21
REMARK    9  A    between atoms: C_20  and  C_22
REMARK   10  A    between atoms: C_22  and  C_23
REMARK                            x       y       z     vdW  Elec       q    Type
REMARK                         _______ _______ _______ _____ _____    ______ ____
ROOT
ATOM      4  N   UNL     1     -18.715   4.441  27.029  0.00  0.00    -0.316 NA
ATOM      7  C   UNL     1     -16.171   3.048  27.572  0.00  0.00    +0.004 C 
ATOM      8  C   UNL     1     -16.528   3.625  26.182  0.00  0.00    +0.012 C 
ATOM      9  C   UNL     1     -16.960   3.810  28.650  0.00  0.00    +0.019 C 
ATOM     10  C   UNL     1     -18.050   3.687  25.966  0.00  0.00    +0.085 C 
ATOM     12  C   UNL     1     -18.457   3.865  28.347  0.00  0.00    +0.081 C 
ATOM     29  H   UNL     1     -19.720   4.453  26.856  0.00  0.00    +0.122 HD
ENDROOT
BRANCH   8  11
ATOM     11  C   UNL     1     -15.854   2.877  25.030  0.00  0.00    +0.064 C 
BRANCH  11  14
ATOM      2  O   UNL     1     -15.911   4.449  21.792  0.00  0.00    -0.359 OA
ATOM      6  N   UNL     1     -16.264   3.434  22.672  0.00  0.00    -0.083 NA
ATOM     14  C   UNL     1     -15.683   3.763  23.829  0.00  0.00    +0.084 A 
ATOM     16  C   UNL     1     -14.957   4.963  23.740  0.00  0.00    +0.071 A 
ATOM     17  C   UNL     1     -15.132   5.353  22.438  0.00  0.00    +0.138 A 
BRANCH  17  18
ATOM     18  C   UNL     1     -14.666   6.500  21.650  0.00  0.00    +0.077 C 
BRANCH  18  20
ATOM     20  C   UNL     1     -13.195   6.363  21.194  0.00  0.00    +0.007 C 
BRANCH  20  22
ATOM     22  C   UNL     1     -12.494   7.714  21.063  0.00  0.00    -0.003 C 
ATOM     23  C   UNL     1     -11.255   7.617  20.187  0.00  0.00    +0.004 C 
ENDBRANCH  20  22
ENDBRANCH  18  20
ENDBRANCH  17  18
ENDBRANCH  11  14
ENDBRANCH   8  11
BRANCH   7  13
ATOM     13  C   UNL     1     -16.397   1.537  27.697  0.00  0.00    +0.099 C 
BRANCH  13  15
ATOM      3  O   UNL     1     -16.361   0.181  29.700  0.00  0.00    -0.276 OA
ATOM      5  N   UNL     1     -14.494   1.450  29.147  0.00  0.00    -0.311 N 
ATOM     15  C   UNL     1     -15.780   0.966  28.956  0.00  0.00    +0.214 C 
ATOM     30  H   UNL     1     -14.108   2.113  28.482  0.00  0.00    +0.149 HD
BRANCH   5  19
ATOM     19  C   UNL     1     -13.669   1.074  30.273  0.00  0.00    +0.139 C 
BRANCH  19  21
ATOM      1  F   UNL     1     -14.656   4.302  34.778  0.00  0.00    -0.205 F 
ATOM     21  C   UNL     1     -13.932   1.934  31.474  0.00  0.00    -0.030 A 
ATOM     24  C   UNL     1     -13.481   3.254  31.499  0.00  0.00    +0.008 A 
ATOM     25  C   UNL     1     -14.627   1.415  32.566  0.00  0.00    +0.008 A 
ATOM     26  C   UNL     1     -13.725   4.054  32.615  0.00  0.00    +0.038 A 
ATOM     27  C   UNL     1     -14.872   2.215  33.682  0.00  0.00    +0.038 A 
ATOM     28  C   UNL     1     -14.420   3.535  33.707  0.00  0.00    +0.123 A 
ENDBRANCH  19  21
ENDBRANCH   5  19
ENDBRANCH  13  15
ENDBRANCH   7  13
TORSDOF 9
ENDMDL
MODEL 2
REMARK VINA RESULT:      -6.6     29.581     33.584
REMARK  Name = 26742973
REMARK  10 active torsions:
REMARK  status: ('A' for Active; 'I' for Inactive)
REMARK    1  A    between atoms: N_5  and  C_19
REMARK    2  A    between atoms: C_7  and  C_13
REMARK    3  A    between atoms: C_8  and  C_11
REMARK    4  A    between atoms: C_11  and  C_14
REMARK    5  A    between atoms: C_13  and  C_15
REMARK    6  A    between atoms: C_17  and  C_18
REMARK    7  A    between atoms: C_18  and  C_20
REMARK    8  A    between atoms: C_19  and  C_21
REMARK    9  A    between atoms: C_20  and  C_22
REMARK   10  A    between atoms: C_22  and  C_23
REMARK                            x       y       z     vdW  Elec       q    Type
REMARK                         _______ _______ _______ _____ _____    ______ ____
ROOT
ATOM      4  N   UNL     1      17.303   9.351  21.989  0.00  0.00    -0.316 NA
ATOM      7  C   UNL     1      16.412   6.776  20.855  0.00  0.00    +0.004 C 
ATOM      8  C   UNL     1      17.872   7.034  21.300  0.00  0.00    +0.012 C 
ATOM      9  C   UNL     1      15.478   7.726  21.624  0.00  0.00    +0.019 C 
ATOM     10  C   UNL     1      18.235   8.527  21.219  0.00  0.00    +0.085 C 
ATOM     12  C   UNL     1      15.925   9.184  21.532  0.00  0.00    +0.081 C 
ATOM     29  H   UNL     1      17.571  10.331  21.905  0.00  0.00    +0.122 HD
ENDROOT
BRANCH   8  11
ATOM     11  C   UNL     1      18.891   6.192  20.531  0.00  0.00    +0.064 C 
BRANCH  11  14
ATOM      2  O   UNL     1      21.204   5.574  23.220  0.00  0.00    -0.359 OA
ATOM      6  N   UNL     1      20.041   6.130  22.701  0.00  0.00    -0.083 NA
ATOM     14  C   UNL     1      20.026   5.763  21.417  0.00  0.00    +0.084 A 
ATOM     16  C   UNL     1      21.142   4.983  21.071  0.00  0.00    +0.071 A 
ATOM     17  C   UNL     1      21.851   4.894  22.240  0.00  0.00    +0.138 A 
BRANCH  17  18
ATOM     18  C   UNL     1      23.110   4.239  22.618  0.00  0.00    +0.077 C 
BRANCH  18  20
ATOM     20  C   UNL     1      22.906   2.812  23.174  0.00  0.00    +0.007 C 
BRANCH  20  22
ATOM     22  C   UNL     1      23.871   1.799  22.559  0.00  0.00    -0.003 C 
ATOM     23  C   UNL     1      23.870   1.878  21.041  0.00  0.00    +0.004 C 
ENDBRANCH  20  22
ENDBRANCH  18  20
ENDBRANCH  17  18
ENDBRANCH  11  14
ENDBRANCH   8  11
BRANCH   7  13
ATOM     13  C   UNL     1      16.190   6.898  19.343  0.00  0.00    +0.099 C 
BRANCH  13  15
ATOM      3  O   UNL     1      14.635   8.458  18.345  0.00  0.00    -0.276 OA
ATOM      5  N   UNL     1      13.818   6.644  19.546  0.00  0.00    -0.311 N 
ATOM     15  C   UNL     1      14.817   7.441  19.007  0.00  0.00    +0.214 C 
ATOM     30  H   UNL     1      14.074   5.830  20.097  0.00  0.00    +0.149 HD
BRANCH   5  19
ATOM     19  C   UNL     1      12.410   6.928  19.385  0.00  0.00    +0.139 C 
BRANCH  19  21
ATOM      1  F   UNL     1      10.497  10.432  23.354  0.00  0.00    -0.205 F 
ATOM     21  C   UNL     1      11.900   7.863  20.442  0.00  0.00    -0.030 A 
ATOM     24  C   UNL     1      11.301   7.352  21.593  0.00  0.00    +0.008 A 
ATOM     25  C   UNL     1      12.024   9.242  20.275  0.00  0.00    +0.008 A 
ATOM     26  C   UNL     1      10.827   8.219  22.577  0.00  0.00    +0.038 A 
ATOM     27  C   UNL     1      11.550  10.109  21.258  0.00  0.00    +0.038 A 
ATOM     28  C   UNL     1      10.951   9.599  22.410  0.00  0.00    +0.123 A 
ENDBRANCH  19  21
ENDBRANCH   5  19
ENDBRANCH  13  15
ENDBRANCH   7  13
TORSDOF 9
ENDMDL
MODEL 3
REMARK VINA RESULT:      -6.4     28.864     31.914
REMARK  Name = 26742973
REMARK  10 active torsions:
REMARK  status: ('A' for Active; 'I' for Inactive)
REMARK    1  A    between atoms: N_5  and  C_19
REMARK    2  A    between atoms: C_7  and  C_13
REMARK    3  A    between atoms: C_8  and  C_11
REMARK    4  A    between atoms: C_11  and  C_14
REMARK    5  A    between atoms: C_13  and  C_15
REMARK    6  A    between atoms: C_17  and  C_18
REMARK    7  A    between atoms: C_18  and  C_20
REMARK    8  A    between atoms: C_19  and  C_21
REMARK    9  A    between atoms: C_20  and  C_22
REMARK   10  A    between atoms: C_22  and  C_23
REMARK                            x       y       z     vdW  Elec       q    Type
REMARK                         _______ _______ _______ _____ _____    ______ ____
ROOT
ATOM      4  N   UNL     1      15.215  12.397  14.116  0.00  0.00    -0.316 NA
ATOM      7  C   UNL     1      15.416  11.828  17.005  0.00  0.00    +0.004 C 
ATOM      8  C   UNL     1      14.659  10.904  16.021  0.00  0.00    +0.012 C 
ATOM      9  C   UNL     1      16.477  12.627  16.228  0.00  0.00    +0.019 C 
ATOM     10  C   UNL     1      14.138  11.680  14.799  0.00  0.00    +0.085 C 
ATOM     12  C   UNL     1      15.893  13.337  15.007  0.00  0.00    +0.081 C 
ATOM     29  H   UNL     1      14.829  12.904  13.320  0.00  0.00    +0.122 HD
ENDROOT
BRANCH   8  11
ATOM     11  C   UNL     1      13.524  10.123  16.685  0.00  0.00    +0.064 C 
BRANCH  11  14
ATOM      2  O   UNL     1      14.450   6.752  17.545  0.00  0.00    -0.359 OA
ATOM      6  N   UNL     1      13.881   7.692  16.695  0.00  0.00    -0.083 NA
ATOM     14  C   UNL     1      14.030   8.861  17.324  0.00  0.00    +0.084 A 
ATOM     16  C   UNL     1      14.678   8.722  18.563  0.00  0.00    +0.071 A 
ATOM     17  C   UNL     1      14.920   7.377  18.654  0.00  0.00    +0.138 A 
BRANCH  17  18
ATOM     18  C   UNL     1      15.557   6.526  19.667  0.00  0.00    +0.077 C 
BRANCH  18  20
ATOM     20  C   UNL     1      16.268   7.333  20.776  0.00  0.00    +0.007 C 
BRANCH  20  22
ATOM     22  C   UNL     1      17.788   7.330  20.622  0.00  0.00    -0.003 C 
ATOM     23  C   UNL     1      18.279   6.050  19.965  0.00  0.00    +0.004 C 
ENDBRANCH  20  22
ENDBRANCH  18  20
ENDBRANCH  17  18
ENDBRANCH  11  14
ENDBRANCH   8  11
BRANCH   7  13
ATOM     13  C   UNL     1      14.506  12.765  17.806  0.00  0.00    +0.099 C 
BRANCH  13  15
ATOM      3  O   UNL     1      15.344  12.288  20.024  0.00  0.00    -0.276 OA
ATOM      5  N   UNL     1      13.074  12.048  19.587  0.00  0.00    -0.311 N 
ATOM     15  C   UNL     1      14.388  12.348  19.257  0.00  0.00    +0.214 C 
ATOM     30  H   UNL     1      12.355  12.112  18.872  0.00  0.00    +0.149 HD
BRANCH   5  19
ATOM     19  C   UNL     1      12.671  11.619  20.907  0.00  0.00    +0.139 C 
BRANCH  19  21
ATOM      1  F   UNL     1      11.811   6.060  21.143  0.00  0.00    -0.205 F 
ATOM     21  C   UNL     1      12.442  10.137  20.970  0.00  0.00    -0.030 A 
ATOM     24  C   UNL     1      11.538   9.534  20.096  0.00  0.00    +0.008 A 
ATOM     25  C   UNL     1      13.133   9.363  21.902  0.00  0.00    +0.008 A 
ATOM     26  C   UNL     1      11.324   8.156  20.155  0.00  0.00    +0.038 A 
ATOM     27  C   UNL     1      12.919   7.986  21.961  0.00  0.00    +0.038 A 
ATOM     28  C   UNL     1      12.015   7.382  21.087  0.00  0.00    +0.123 A 
ENDBRANCH  19  21
ENDBRANCH   5  19
ENDBRANCH  13  15
ENDBRANCH   7  13
TORSDOF 9
ENDMDL
MODEL 4
REMARK VINA RESULT:      -6.3     32.456     34.766
REMARK  Name = 26742973
REMARK  10 active torsions:
REMARK  status: ('A' for Active; 'I' for Inactive)
REMARK    1  A    between atoms: N_5  and  C_19
REMARK    2  A    between atoms: C_7  and  C_13
REMARK    3  A    between atoms: C_8  and  C_11
REMARK    4  A    between atoms: C_11  and  C_14
REMARK    5  A    between atoms: C_13  and  C_15
REMARK    6  A    between atoms: C_17  and  C_18
REMARK    7  A    between atoms: C_18  and  C_20
REMARK    8  A    between atoms: C_19  and  C_21
REMARK    9  A    between atoms: C_20  and  C_22
REMARK   10  A    between atoms: C_22  and  C_23
REMARK                            x       y       z     vdW  Elec       q    Type
REMARK                         _______ _______ _______ _____ _____    ______ ____
ROOT
ATOM      4  N   UNL     1      17.623  -3.665  31.756  0.00  0.00    -0.316 NA
ATOM      7  C   UNL     1      18.304  -2.821  29.012  0.00  0.00    +0.004 C 
ATOM      8  C   UNL     1      18.097  -4.303  29.404  0.00  0.00    +0.012 C 
ATOM      9  C   UNL     1      17.536  -1.928  30.002  0.00  0.00    +0.019 C 
ATOM     10  C   UNL     1      18.406  -4.547  30.891  0.00  0.00    +0.085 C 
ATOM     12  C   UNL     1      17.865  -2.255  31.458  0.00  0.00    +0.081 C 
ATOM     29  H   UNL     1      17.861  -3.851  32.731  0.00  0.00    +0.122 HD
ENDROOT
BRANCH   8  11
ATOM     11  C   UNL     1      18.890  -5.272  28.525  0.00  0.00    +0.064 C 
BRANCH  11  14
ATOM      2  O   UNL     1      16.564  -5.987  25.871  0.00  0.00    -0.359 OA
ATOM      6  N   UNL     1      16.886  -5.820  27.212  0.00  0.00    -0.083 NA
ATOM     14  C   UNL     1      18.189  -5.525  27.221  0.00  0.00    +0.084 A 
ATOM     16  C   UNL     1      18.737  -5.493  25.927  0.00  0.00    +0.071 A 
ATOM     17  C   UNL     1      17.674  -5.791  25.116  0.00  0.00    +0.138 A 
BRANCH  17  18
ATOM     18  C   UNL     1      17.512  -5.931  23.663  0.00  0.00    +0.077 C 
BRANCH  18  20
ATOM     20  C   UNL     1      18.836  -6.261  22.936  0.00  0.00    +0.007 C 
BRANCH  20  22
ATOM     22  C   UNL     1      19.249  -5.173  21.947  0.00  0.00    -0.003 C 
ATOM     23  C   UNL     1      19.943  -5.760  20.728  0.00  0.00    +0.004 C 
ENDBRANCH  20  22
ENDBRANCH  18  20
ENDBRANCH  17  18
ENDBRANCH  11  14
ENDBRANCH   8  11
BRANCH   7  13
ATOM     13  C   UNL     1      19.776  -2.399  28.925  0.00  0.00    +0.099 C 
BRANCH  13  15
ATOM      3  O   UNL     1      21.020  -0.902  27.489  0.00  0.00    -0.276 OA
ATOM      5  N   UNL     1      19.213  -2.078  26.620  0.00  0.00    -0.311 N 
ATOM     15  C   UNL     1      20.096  -1.699  27.620  0.00  0.00    +0.214 C 
ATOM     30  H   UNL     1      18.467  -2.733  26.835  0.00  0.00    +0.149 HD
BRANCH   5  19
ATOM     19  C   UNL     1      19.283  -1.563  25.271  0.00  0.00    +0.139 C 
BRANCH  19  21
ATOM      1  F   UNL     1      14.736  -2.944  22.252  0.00  0.00    -0.205 F 
ATOM     21  C   UNL     1      18.071  -1.931  24.466  0.00  0.00    -0.030 A 
ATOM     24  C   UNL     1      16.911  -2.361  25.109  0.00  0.00    +0.008 A 
ATOM     25  C   UNL     1      18.105  -1.844  23.074  0.00  0.00    +0.008 A 
ATOM     26  C   UNL     1      15.784  -2.703  24.362  0.00  0.00    +0.038 A 
ATOM     27  C   UNL     1      16.978  -2.187  22.326  0.00  0.00    +0.038 A 
ATOM     28  C   UNL     1      15.818  -2.617  22.970  0.00  0.00    +0.123 A 
ENDBRANCH  19  21
ENDBRANCH   5  19
ENDBRANCH  13  15
ENDBRANCH   7  13
TORSDOF 9
ENDMDL
MODEL 5
REMARK VINA RESULT:      -6.2     21.126     23.508
REMARK  Name = 26742973
REMARK  10 active torsions:
REMARK  status: ('A' for Active; 'I' for Inactive)
REMARK    1  A    between atoms: N_5  and  C_19
REMARK    2  A    between atoms: C_7  and  C_13
REMARK    3  A    between atoms: C_8  and  C_11
REMARK    4  A    between atoms: C_11  and  C_14
REMARK    5  A    between atoms: C_13  and  C_15
REMARK    6  A    between atoms: C_17  and  C_18
REMARK    7  A    between atoms: C_18  and  C_20
REMARK    8  A    between atoms: C_19  and  C_21
REMARK    9  A    between atoms: C_20  and  C_22
REMARK   10  A    between atoms: C_22  and  C_23
REMARK                            x       y       z     vdW  Elec       q    Type
REMARK                         _______ _______ _______ _____ _____    ______ ____
ROOT
ATOM      4  N   UNL     1      -6.990 -10.913  17.370  0.00  0.00    -0.316 NA
ATOM      7  C   UNL     1      -4.765 -10.633  15.452  0.00  0.00    +0.004 C 
ATOM      8  C   UNL     1      -6.228 -10.873  15.007  0.00  0.00    +0.012 C 
ATOM      9  C   UNL     1      -4.765  -9.978  16.843  0.00  0.00    +0.019 C 
ATOM     10  C   UNL     1      -7.036 -11.614  16.086  0.00  0.00    +0.085 C 
ATOM     12  C   UNL     1      -5.620 -10.747  17.850  0.00  0.00    +0.081 C 
ATOM     29  H   UNL     1      -7.529 -11.438  18.059  0.00  0.00    +0.122 HD
ENDROOT
BRANCH   8  11
ATOM     11  C   UNL     1      -6.335 -11.598  13.664  0.00  0.00    +0.064 C 
BRANCH  11  14
ATOM      2  O   UNL     1      -6.531  -8.818  11.385  0.00  0.00    -0.359 OA
ATOM      6  N   UNL     1      -6.048  -9.436  12.531  0.00  0.00    -0.083 NA
ATOM     14  C   UNL     1      -6.632 -10.638  12.548  0.00  0.00    +0.084 A 
ATOM     16  C   UNL     1      -7.486 -10.832  11.448  0.00  0.00    +0.071 A 
ATOM     17  C   UNL     1      -7.386  -9.658  10.749  0.00  0.00    +0.138 A 
BRANCH  17  18
ATOM     18  C   UNL     1      -7.994  -9.160   9.509  0.00  0.00    +0.077 C 
BRANCH  18  20
ATOM     20  C   UNL     1      -7.250  -7.941   8.917  0.00  0.00    +0.007 C 
BRANCH  20  22
ATOM     22  C   UNL     1      -8.200  -6.912   8.308  0.00  0.00    -0.003 C 
ATOM     23  C   UNL     1      -8.281  -7.053   6.796  0.00  0.00    +0.004 C 
ENDBRANCH  20  22
ENDBRANCH  18  20
ENDBRANCH  17  18
ENDBRANCH  11  14
ENDBRANCH   8  11
BRANCH   7  13
ATOM     13  C   UNL     1      -3.896 -11.896  15.443  0.00  0.00    +0.099 C 
BRANCH  13  15
ATOM      3  O   UNL     1      -2.058 -12.779  14.142  0.00  0.00    -0.276 OA
ATOM      5  N   UNL     1      -3.010 -10.747  13.538  0.00  0.00    -0.311 N 
ATOM     15  C   UNL     1      -2.881 -11.886  14.319  0.00  0.00    +0.214 C 
ATOM     30  H   UNL     1      -3.714 -10.055  13.779  0.00  0.00    +0.149 HD
BRANCH   5  19
ATOM     19  C   UNL     1      -2.168 -10.475  12.396  0.00  0.00    +0.139 C 
BRANCH  19  21
ATOM      1  F   UNL     1      -5.117 -10.245   7.606  0.00  0.00    -0.205 F 
ATOM     21  C   UNL     1      -2.954 -10.414  11.119  0.00  0.00    -0.030 A 
ATOM     24  C   UNL     1      -3.074  -9.206  10.432  0.00  0.00    +0.008 A 
ATOM     25  C   UNL     1      -3.565 -11.564  10.620  0.00  0.00    +0.008 A 
ATOM     26  C   UNL     1      -3.805  -9.149   9.245  0.00  0.00    +0.038 A 
ATOM     27  C   UNL     1      -4.296 -11.507   9.433  0.00  0.00    +0.038 A 
ATOM     28  C   UNL     1      -4.416 -10.299   8.745  0.00  0.00    +0.123 A 
ENDBRANCH  19  21
ENDBRANCH   5  19
ENDBRANCH  13  15
ENDBRANCH   7  13
TORSDOF 9
ENDMDL
MODEL 6
REMARK VINA RESULT:      -6.2     21.785     23.914
REMARK  Name = 26742973
REMARK  10 active torsions:
REMARK  status: ('A' for Active; 'I' for Inactive)
REMARK    1  A    between atoms: N_5  and  C_19
REMARK    2  A    between atoms: C_7  and  C_13
REMARK    3  A    between atoms: C_8  and  C_11
REMARK    4  A    between atoms: C_11  and  C_14
REMARK    5  A    between atoms: C_13  and  C_15
REMARK    6  A    between atoms: C_17  and  C_18
REMARK    7  A    between atoms: C_18  and  C_20
REMARK    8  A    between atoms: C_19  and  C_21
REMARK    9  A    between atoms: C_20  and  C_22
REMARK   10  A    between atoms: C_22  and  C_23
REMARK                            x       y       z     vdW  Elec       q    Type
REMARK                         _______ _______ _______ _____ _____    ______ ____
ROOT
ATOM      4  N   UNL     1      -7.252 -11.417  18.394  0.00  0.00    -0.316 NA
ATOM      7  C   UNL     1      -5.175 -11.239  16.305  0.00  0.00    +0.004 C 
ATOM      8  C   UNL     1      -5.854 -12.572  16.697  0.00  0.00    +0.012 C 
ATOM      9  C   UNL     1      -6.115 -10.073  16.660  0.00  0.00    +0.019 C 
ATOM     10  C   UNL     1      -6.357 -12.549  18.151  0.00  0.00    +0.085 C 
ATOM     12  C   UNL     1      -6.604 -10.139  18.107  0.00  0.00    +0.081 C 
ATOM     29  H   UNL     1      -7.556 -11.431  19.368  0.00  0.00    +0.122 HD
ENDROOT
BRANCH   8  11
ATOM     11  C   UNL     1      -4.963 -13.792  16.458  0.00  0.00    +0.064 C 
BRANCH  11  14
ATOM      2  O   UNL     1      -3.450 -14.341  13.237  0.00  0.00    -0.359 OA
ATOM      6  N   UNL     1      -3.398 -14.266  14.623  0.00  0.00    -0.083 NA
ATOM     14  C   UNL     1      -4.642 -13.956  14.999  0.00  0.00    +0.084 A 
ATOM     16  C   UNL     1      -5.513 -13.823  13.904  0.00  0.00    +0.071 A 
ATOM     17  C   UNL     1      -4.714 -14.075  12.821  0.00  0.00    +0.138 A 
BRANCH  17  18
ATOM     18  C   UNL     1      -4.948 -14.111  11.372  0.00  0.00    +0.077 C 
BRANCH  18  20
ATOM     20  C   UNL     1      -5.960 -13.045  10.896  0.00  0.00    +0.007 C 
BRANCH  20  22
ATOM     22  C   UNL     1      -5.607 -12.471   9.524  0.00  0.00    -0.003 C 
ATOM     23  C   UNL     1      -4.143 -12.700   9.185  0.00  0.00    +0.004 C 
ENDBRANCH  20  22
ENDBRANCH  18  20
ENDBRANCH  17  18
ENDBRANCH  11  14
ENDBRANCH   8  11
BRANCH   7  13
ATOM     13  C   UNL     1      -3.792 -11.035  16.933  0.00  0.00    +0.099 C 
BRANCH  13  15
ATOM      3  O   UNL     1      -1.532 -10.648  16.163  0.00  0.00    -0.276 OA
ATOM      5  N   UNL     1      -3.213 -11.049  14.610  0.00  0.00    -0.311 N 
ATOM     15  C   UNL     1      -2.704 -10.886  15.889  0.00  0.00    +0.214 C 
ATOM     30  H   UNL     1      -4.206 -11.226  14.487  0.00  0.00    +0.149 HD
BRANCH   5  19
ATOM     19  C   UNL     1      -2.398 -10.957  13.419  0.00  0.00    +0.139 C 
BRANCH  19  21
ATOM      1  F   UNL     1      -5.102  -8.375   9.210  0.00  0.00    -0.205 F 
ATOM     21  C   UNL     1      -3.118 -10.269  12.297  0.00  0.00    -0.030 A 
ATOM     24  C   UNL     1      -4.482  -9.997  12.407  0.00  0.00    +0.008 A 
ATOM     25  C   UNL     1      -2.426  -9.901  11.144  0.00  0.00    +0.008 A 
ATOM     26  C   UNL     1      -5.152  -9.357  11.365  0.00  0.00    +0.038 A 
ATOM     27  C   UNL     1      -3.096  -9.262  10.101  0.00  0.00    +0.038 A 
ATOM     28  C   UNL     1      -4.460  -8.990  10.211  0.00  0.00    +0.123 A 
ENDBRANCH  19  21
ENDBRANCH   5  19
ENDBRANCH  13  15
ENDBRANCH   7  13
TORSDOF 9
ENDMDL
MODEL 7
REMARK VINA RESULT:      -6.2     18.893     20.654
REMARK  Name = 26742973
REMARK  10 active torsions:
REMARK  status: ('A' for Active; 'I' for Inactive)
REMARK    1  A    between atoms: N_5  and  C_19
REMARK    2  A    between atoms: C_7  and  C_13
REMARK    3  A    between atoms: C_8  and  C_11
REMARK    4  A    between atoms: C_11  and  C_14
REMARK    5  A    between atoms: C_13  and  C_15
REMARK    6  A    between atoms: C_17  and  C_18
REMARK    7  A    between atoms: C_18  and  C_20
REMARK    8  A    between atoms: C_19  and  C_21
REMARK    9  A    between atoms: C_20  and  C_22
REMARK   10  A    between atoms: C_22  and  C_23
REMARK                            x       y       z     vdW  Elec       q    Type
REMARK                         _______ _______ _______ _____ _____    ______ ____
ROOT
ATOM      4  N   UNL     1      -5.964 -14.257  17.121  0.00  0.00    -0.316 NA
ATOM      7  C   UNL     1      -6.799 -11.426  17.141  0.00  0.00    +0.004 C 
ATOM      8  C   UNL     1      -5.374 -11.875  16.741  0.00  0.00    +0.012 C 
ATOM      9  C   UNL     1      -7.776 -12.591  16.907  0.00  0.00    +0.019 C 
ATOM     10  C   UNL     1      -4.987 -13.206  17.409  0.00  0.00    +0.085 C 
ATOM     12  C   UNL     1      -7.307 -13.888  17.565  0.00  0.00    +0.081 C 
ATOM     29  H   UNL     1      -5.678 -15.119  17.586  0.00  0.00    +0.122 HD
ENDROOT
BRANCH   8  11
ATOM     11  C   UNL     1      -4.311 -10.809  17.015  0.00  0.00    +0.064 C 
BRANCH  11  14
ATOM      2  O   UNL     1      -1.487 -10.348  14.829  0.00  0.00    -0.359 OA
ATOM      6  N   UNL     1      -2.074 -10.394  16.088  0.00  0.00    -0.083 NA
ATOM     14  C   UNL     1      -3.359 -10.678  15.861  0.00  0.00    +0.084 A 
ATOM     16  C   UNL     1      -3.640 -10.821  14.491  0.00  0.00    +0.071 A 
ATOM     17  C   UNL     1      -2.430 -10.603  13.887  0.00  0.00    +0.138 A 
BRANCH  17  18
ATOM     18  C   UNL     1      -1.979 -10.594  12.490  0.00  0.00    +0.077 C 
BRANCH  18  20
ATOM     20  C   UNL     1      -2.845 -11.483  11.568  0.00  0.00    +0.007 C 
BRANCH  20  22
ATOM     22  C   UNL     1      -3.629 -10.671  10.538  0.00  0.00    -0.003 C 
ATOM     23  C   UNL     1      -3.006  -9.302  10.315  0.00  0.00    +0.004 C 
ENDBRANCH  20  22
ENDBRANCH  18  20
ENDBRANCH  17  18
ENDBRANCH  11  14
ENDBRANCH   8  11
BRANCH   7  13
ATOM     13  C   UNL     1      -6.909 -10.904  18.579  0.00  0.00    +0.099 C 
BRANCH  13  15
ATOM      3  O   UNL     1      -8.799 -11.461  19.981  0.00  0.00    -0.276 OA
ATOM      5  N   UNL     1      -9.060  -9.897  18.282  0.00  0.00    -0.311 N 
ATOM     15  C   UNL     1      -8.346 -10.807  19.046  0.00  0.00    +0.214 C 
ATOM     30  H   UNL     1      -8.597  -9.419  17.515  0.00  0.00    +0.149 HD
BRANCH   5  19
ATOM     19  C   UNL     1     -10.458  -9.606  18.505  0.00  0.00    +0.139 C 
BRANCH  19  21
ATOM      1  F   UNL     1     -12.437  -5.831  14.827  0.00  0.00    -0.205 F 
ATOM     21  C   UNL     1     -10.986  -8.600  17.525  0.00  0.00    -0.030 A 
ATOM     24  C   UNL     1     -10.151  -7.593  17.041  0.00  0.00    +0.008 A 
ATOM     25  C   UNL     1     -12.312  -8.671  17.097  0.00  0.00    +0.008 A 
ATOM     26  C   UNL     1     -10.641  -6.657  16.130  0.00  0.00    +0.038 A 
ATOM     27  C   UNL     1     -12.802  -7.735  16.185  0.00  0.00    +0.038 A 
ATOM     28  C   UNL     1     -11.966  -6.728  15.702  0.00  0.00    +0.123 A 
ENDBRANCH  19  21
ENDBRANCH   5  19
ENDBRANCH  13  15
ENDBRANCH   7  13
TORSDOF 9
ENDMDL
MODEL 8
REMARK VINA RESULT:      -6.1     19.630     21.290
REMARK  Name = 26742973
REMARK  10 active torsions:
REMARK  status: ('A' for Active; 'I' for Inactive)
REMARK    1  A    between atoms: N_5  and  C_19
REMARK    2  A    between atoms: C_7  and  C_13
REMARK    3  A    between atoms: C_8  and  C_11
REMARK    4  A    between atoms: C_11  and  C_14
REMARK    5  A    between atoms: C_13  and  C_15
REMARK    6  A    between atoms: C_17  and  C_18
REMARK    7  A    between atoms: C_18  and  C_20
REMARK    8  A    between atoms: C_19  and  C_21
REMARK    9  A    between atoms: C_20  and  C_22
REMARK   10  A    between atoms: C_22  and  C_23
REMARK                            x       y       z     vdW  Elec       q    Type
REMARK                         _______ _______ _______ _____ _____    ______ ____
ROOT
ATOM      4  N   UNL     1     -11.139  -9.399  16.434  0.00  0.00    -0.316 NA
ATOM      7  C   UNL     1      -8.220  -9.630  16.801  0.00  0.00    +0.004 C 
ATOM      8  C   UNL     1      -8.953 -10.186  15.557  0.00  0.00    +0.012 C 
ATOM      9  C   UNL     1      -9.058  -8.494  17.412  0.00  0.00    +0.019 C 
ATOM     10  C   UNL     1     -10.417 -10.540  15.870  0.00  0.00    +0.085 C 
ATOM     12  C   UNL     1     -10.509  -8.907  17.658  0.00  0.00    +0.081 C 
ATOM     29  H   UNL     1     -12.100  -9.675  16.636  0.00  0.00    +0.122 HD
ENDROOT
BRANCH   8  11
ATOM     11  C   UNL     1      -8.237 -11.379  14.921  0.00  0.00    +0.064 C 
BRANCH  11  14
ATOM      2  O   UNL     1      -6.616 -11.281  11.708  0.00  0.00    -0.359 OA
ATOM      6  N   UNL     1      -7.080 -11.954  12.831  0.00  0.00    -0.083 NA
ATOM     14  C   UNL     1      -7.623 -11.007  13.602  0.00  0.00    +0.084 A 
ATOM     16  C   UNL     1      -7.530  -9.730  13.023  0.00  0.00    +0.071 A 
ATOM     17  C   UNL     1      -6.889  -9.958  11.834  0.00  0.00    +0.138 A 
BRANCH  17  18
ATOM     18  C   UNL     1      -6.463  -9.092  10.728  0.00  0.00    +0.077 C 
BRANCH  18  20
ATOM     20  C   UNL     1      -4.996  -8.622  10.857  0.00  0.00    +0.007 C 
BRANCH  20  22
ATOM     22  C   UNL     1      -4.109  -9.150   9.730  0.00  0.00    -0.003 C 
ATOM     23  C   UNL     1      -3.638 -10.568  10.009  0.00  0.00    +0.004 C 
ENDBRANCH  20  22
ENDBRANCH  18  20
ENDBRANCH  17  18
ENDBRANCH  11  14
ENDBRANCH   8  11
BRANCH   7  13
ATOM     13  C   UNL     1      -7.889 -10.692  17.856  0.00  0.00    +0.099 C 
BRANCH  13  15
ATOM      3  O   UNL     1      -6.059 -10.227  19.367  0.00  0.00    -0.276 OA
ATOM      5  N   UNL     1      -5.609 -11.140  17.278  0.00  0.00    -0.311 N 
ATOM     15  C   UNL     1      -6.436 -10.649  18.278  0.00  0.00    +0.214 C 
ATOM     30  H   UNL     1      -6.018 -11.449  16.401  0.00  0.00    +0.149 HD
BRANCH   5  19
ATOM     19  C   UNL     1      -4.172 -11.213  17.409  0.00  0.00    +0.139 C 
BRANCH  19  21
ATOM      1  F   UNL     1      -1.551 -10.049  12.564  0.00  0.00    -0.205 F 
ATOM     21  C   UNL     1      -3.474 -10.903  16.117  0.00  0.00    -0.030 A 
ATOM     24  C   UNL     1      -2.116 -10.582  16.118  0.00  0.00    +0.008 A 
ATOM     25  C   UNL     1      -4.181 -10.934  14.916  0.00  0.00    +0.008 A 
ATOM     26  C   UNL     1      -1.466 -10.294  14.918  0.00  0.00    +0.038 A 
ATOM     27  C   UNL     1      -3.531 -10.645  13.716  0.00  0.00    +0.038 A 
ATOM     28  C   UNL     1      -2.174 -10.325  13.716  0.00  0.00    +0.123 A 
ENDBRANCH  19  21
ENDBRANCH   5  19
ENDBRANCH  13  15
ENDBRANCH   7  13
TORSDOF 9
ENDMDL
MODEL 9
REMARK VINA RESULT:      -6.0     19.316     21.869
REMARK  Name = 26742973
REMARK  10 active torsions:
REMARK  status: ('A' for Active; 'I' for Inactive)
REMARK    1  A    between atoms: N_5  and  C_19
REMARK    2  A    between atoms: C_7  and  C_13
REMARK    3  A    between atoms: C_8  and  C_11
REMARK    4  A    between atoms: C_11  and  C_14
REMARK    5  A    between atoms: C_13  and  C_15
REMARK    6  A    between atoms: C_17  and  C_18
REMARK    7  A    between atoms: C_18  and  C_20
REMARK    8  A    between atoms: C_19  and  C_21
REMARK    9  A    between atoms: C_20  and  C_22
REMARK   10  A    between atoms: C_22  and  C_23
REMARK                            x       y       z     vdW  Elec       q    Type
REMARK                         _______ _______ _______ _____ _____    ______ ____
ROOT
ATOM      4  N   UNL     1      -5.861 -12.203  19.026  0.00  0.00    -0.316 NA
ATOM      7  C   UNL     1      -4.206 -10.777  17.042  0.00  0.00    +0.004 C 
ATOM      8  C   UNL     1      -5.711 -10.480  17.245  0.00  0.00    +0.012 C 
ATOM      9  C   UNL     1      -3.635 -11.382  18.336  0.00  0.00    +0.019 C 
ATOM     10  C   UNL     1      -6.464 -11.705  17.790  0.00  0.00    +0.085 C 
ATOM     12  C   UNL     1      -4.458 -12.568  18.838  0.00  0.00    +0.081 C 
ATOM     29  H   UNL     1      -6.381 -13.018  19.350  0.00  0.00    +0.122 HD
ENDROOT
BRANCH   8  11
ATOM     11  C   UNL     1      -6.393  -9.949  15.982  0.00  0.00    +0.064 C 
BRANCH  11  14
ATOM      2  O   UNL     1      -9.990 -10.082  15.943  0.00  0.00    -0.359 OA
ATOM      6  N   UNL     1      -8.739 -10.504  15.510  0.00  0.00    -0.083 NA
ATOM     14  C   UNL     1      -7.867  -9.760  16.196  0.00  0.00    +0.084 A 
ATOM     16  C   UNL     1      -8.504  -8.860  17.068  0.00  0.00    +0.071 A 
ATOM     17  C   UNL     1      -9.837  -9.103  16.870  0.00  0.00    +0.138 A 
BRANCH  17  18
ATOM     18  C   UNL     1     -11.068  -8.539  17.437  0.00  0.00    +0.077 C 
BRANCH  18  20
ATOM     20  C   UNL     1     -12.133  -8.212  16.366  0.00  0.00    +0.007 C 
BRANCH  20  22
ATOM     22  C   UNL     1     -11.626  -7.225  15.316  0.00  0.00    -0.003 C 
ATOM     23  C   UNL     1     -11.290  -5.877  15.933  0.00  0.00    +0.004 C 
ENDBRANCH  20  22
ENDBRANCH  18  20
ENDBRANCH  17  18
ENDBRANCH  11  14
ENDBRANCH   8  11
BRANCH   7  13
ATOM     13  C   UNL     1      -3.905 -11.679  15.839  0.00  0.00    +0.099 C 
BRANCH  13  15
ATOM      3  O   UNL     1      -2.036 -10.314  15.135  0.00  0.00    -0.276 OA
ATOM      5  N   UNL     1      -3.423 -11.265  13.531  0.00  0.00    -0.311 N 
ATOM     15  C   UNL     1      -3.004 -11.003  14.827  0.00  0.00    +0.214 C 
ATOM     30  H   UNL     1      -4.251 -11.833  13.381  0.00  0.00    +0.149 HD
BRANCH   5  19
ATOM     19  C   UNL     1      -2.749 -10.743  12.364  0.00  0.00    +0.139 C 
BRANCH  19  21
ATOM      1  F   UNL     1      -6.220  -7.767   9.079  0.00  0.00    -0.205 F 
ATOM     21  C   UNL     1      -3.674  -9.950  11.488  0.00  0.00    -0.030 A 
ATOM     24  C   UNL     1      -4.947  -9.609  11.946  0.00  0.00    +0.008 A 
ATOM     25  C   UNL     1      -3.262  -9.553  10.216  0.00  0.00    +0.008 A 
ATOM     26  C   UNL     1      -5.807  -8.872  11.132  0.00  0.00    +0.038 A 
ATOM     27  C   UNL     1      -4.123  -8.816   9.402  0.00  0.00    +0.038 A 
ATOM     28  C   UNL     1      -5.395  -8.476   9.860  0.00  0.00    +0.123 A 
ENDBRANCH  19  21
ENDBRANCH   5  19
ENDBRANCH  13  15
ENDBRANCH   7  13
TORSDOF 9
ENDMDL
MODEL 10
REMARK VINA RESULT:      -6.0     18.912     20.326
REMARK  Name = 26742973
REMARK  10 active torsions:
REMARK  status: ('A' for Active; 'I' for Inactive)
REMARK    1  A    between atoms: N_5  and  C_19
REMARK    2  A    between atoms: C_7  and  C_13
REMARK    3  A    between atoms: C_8  and  C_11
REMARK    4  A    between atoms: C_11  and  C_14
REMARK    5  A    between atoms: C_13  and  C_15
REMARK    6  A    between atoms: C_17  and  C_18
REMARK    7  A    between atoms: C_18  and  C_20
REMARK    8  A    between atoms: C_19  and  C_21
REMARK    9  A    between atoms: C_20  and  C_22
REMARK   10  A    between atoms: C_22  and  C_23
REMARK                            x       y       z     vdW  Elec       q    Type
REMARK                         _______ _______ _______ _____ _____    ______ ____
ROOT
ATOM      4  N   UNL     1      -7.062  -9.468  15.293  0.00  0.00    -0.316 NA
ATOM      7  C   UNL     1      -6.047 -10.448  17.885  0.00  0.00    +0.004 C 
ATOM      8  C   UNL     1      -5.123 -10.178  16.674  0.00  0.00    +0.012 C 
ATOM      9  C   UNL     1      -7.319  -9.594  17.747  0.00  0.00    +0.019 C 
ATOM     10  C   UNL     1      -5.877 -10.325  15.340  0.00  0.00    +0.085 C 
ATOM     12  C   UNL     1      -7.989  -9.762  16.384  0.00  0.00    +0.081 C 
ATOM     29  H   UNL     1      -7.538  -9.600  14.400  0.00  0.00    +0.122 HD
ENDROOT
BRANCH   8  11
ATOM     11  C   UNL     1      -3.862 -11.044  16.676  0.00  0.00    +0.064 C 
BRANCH  11  14
ATOM      2  O   UNL     1      -1.438 -10.049  14.207  0.00  0.00    -0.359 OA
ATOM      6  N   UNL     1      -1.950 -10.046  15.498  0.00  0.00    -0.083 NA
ATOM     14  C   UNL     1      -3.041 -10.815  15.439  0.00  0.00    +0.084 A 
ATOM     16  C   UNL     1      -3.265 -11.324  14.149  0.00  0.00    +0.071 A 
ATOM     17  C   UNL     1      -2.230 -10.813  13.412  0.00  0.00    +0.138 A 
BRANCH  17  18
ATOM     18  C   UNL     1      -1.831 -10.925  12.004  0.00  0.00    +0.077 C 
BRANCH  18  20
ATOM     20  C   UNL     1      -1.956  -9.592  11.232  0.00  0.00    +0.007 C 
BRANCH  20  22
ATOM     22  C   UNL     1      -3.289  -9.462  10.496  0.00  0.00    -0.003 C 
ATOM     23  C   UNL     1      -3.808 -10.815  10.038  0.00  0.00    +0.004 C 
ENDBRANCH  20  22
ENDBRANCH  18  20
ENDBRANCH  17  18
ENDBRANCH  11  14
ENDBRANCH   8  11
BRANCH   7  13
ATOM     13  C   UNL     1      -6.401 -11.926  18.082  0.00  0.00    +0.099 C 
BRANCH  13  15
ATOM      3  O   UNL     1      -6.773 -11.830  20.470  0.00  0.00    -0.276 OA
ATOM      5  N   UNL     1      -8.380 -12.805  19.103  0.00  0.00    -0.311 N 
ATOM     15  C   UNL     1      -7.177 -12.165  19.360  0.00  0.00    +0.214 C 
ATOM     30  H   UNL     1      -8.616 -13.058  18.148  0.00  0.00    +0.149 HD
BRANCH   5  19
ATOM     19  C   UNL     1      -9.322 -13.160  20.141  0.00  0.00    +0.139 C 
BRANCH  19  21
ATOM      1  F   UNL     1     -13.474  -9.386  20.602  0.00  0.00    -0.205 F 
ATOM     21  C   UNL     1     -10.428 -12.153  20.263  0.00  0.00    -0.030 A 
ATOM     24  C   UNL     1     -11.701 -12.562  20.663  0.00  0.00    +0.008 A 
ATOM     25  C   UNL     1     -10.186 -10.810  19.977  0.00  0.00    +0.008 A 
ATOM     26  C   UNL     1     -12.730 -11.627  20.777  0.00  0.00    +0.038 A 
ATOM     27  C   UNL     1     -11.215  -9.875  20.091  0.00  0.00    +0.038 A 
ATOM     28  C   UNL     1     -12.487 -10.284  20.491  0.00  0.00    +0.123 A 
ENDBRANCH  19  21
ENDBRANCH   5  19
ENDBRANCH  13  15
ENDBRANCH   7  13
TORSDOF 9
ENDMDL
