MODEL 1
REMARK VINA RESULT:      -5.6      0.000      0.000
REMARK  Name = 75536516
REMARK  10 active torsions:
REMARK  status: ('A' for Active; 'I' for Inactive)
REMARK    1  A    between atoms: O_2  and  C_8
REMARK    2  A    between atoms: N_4  and  C_7
REMARK    3  A    between atoms: N_4  and  C_9
REMARK    4  A    between atoms: N_6  and  C_14
REMARK    5  A    between atoms: C_10  and  C_14
REMARK    6  A    between atoms: C_17  and  C_18
REMARK    7  A    between atoms: C_17  and  C_20
REMARK    8  A    between atoms: C_17  and  C_21
REMARK    9  A    between atoms: C_17  and  C_22
REMARK   10  A    between atoms: C_18  and  C_19
REMARK                            x       y       z     vdW  Elec       q    Type
REMARK                         _______ _______ _______ _____ _____    ______ ____
ROOT
ATOM      1  O   UNL     1      -1.534 -11.299  15.016  0.00  0.00    -0.371 OA
ATOM      7  C   UNL     1      -3.724 -10.940  15.863  0.00  0.00    +0.111 C 
ATOM      8  C   UNL     1      -3.773 -10.938  14.347  0.00  0.00    +0.164 C 
ATOM     10  C   UNL     1      -2.486 -11.680  14.010  0.00  0.00    +0.165 C 
ATOM     11  C   UNL     1      -2.244 -10.702  16.116  0.00  0.00    +0.181 C 
ENDROOT
BRANCH   8   2
ATOM      2  O   UNL     1      -4.913 -11.603  13.836  0.00  0.00    -0.388 OA
ATOM     25  H   UNL     1      -5.181 -11.163  13.013  0.00  0.00    +0.210 HD
ENDBRANCH   8   2
BRANCH   7   4
ATOM      4  N   UNL     1      -4.572  -9.931  16.475  0.00  0.00    -0.306 NA
ATOM     23  H   UNL     1      -4.991  -9.343  15.756  0.00  0.00    +0.123 HD
BRANCH   4   9
ATOM      5  N   UNL     1      -7.431 -10.430  19.586  0.00  0.00    -0.316 NA
ATOM      9  C   UNL     1      -5.622 -10.546  17.284  0.00  0.00    +0.056 C 
ATOM     12  C   UNL     1      -6.891  -9.685  17.283  0.00  0.00    +0.034 C 
ATOM     13  C   UNL     1      -5.132 -10.760  18.719  0.00  0.00    +0.034 C 
ATOM     15  C   UNL     1      -7.946 -10.269  18.223  0.00  0.00    +0.082 C 
ATOM     16  C   UNL     1      -6.254 -11.302  19.604  0.00  0.00    +0.082 C 
ATOM     24  H   UNL     1      -8.159 -10.835  20.175  0.00  0.00    +0.122 HD
ENDBRANCH   4   9
ENDBRANCH   7   4
BRANCH  10  14
ATOM     14  C   UNL     1      -1.941 -11.343  12.633  0.00  0.00    +0.138 C 
BRANCH  14   6
ATOM      3  O   UNL     1      -3.354 -11.590  10.117  0.00  0.00    -0.276 OA
ATOM      6  N   UNL     1      -2.745 -10.337  11.978  0.00  0.00    -0.313 N 
ATOM     19  C   UNL     1      -3.386 -10.547  10.769  0.00  0.00    +0.214 C 
ATOM     26  H   UNL     1      -2.843  -9.440  12.443  0.00  0.00    +0.149 HD
BRANCH  19  18
ATOM     18  C   UNL     1      -4.161  -9.332  10.286  0.00  0.00    +0.102 C 
BRANCH  18  17
ATOM     17  C   UNL     1      -5.683  -9.386  10.559  0.00  0.00    -0.029 C 
ATOM     20  C   UNL     1      -6.227 -10.818  10.439  0.00  0.00    +0.011 C 
ATOM     21  C   UNL     1      -6.015  -8.833  11.955  0.00  0.00    +0.011 C 
ATOM     22  C   UNL     1      -6.387  -8.507   9.507  0.00  0.00    +0.011 C 
ENDBRANCH  18  17
ENDBRANCH  19  18
ENDBRANCH  14   6
ENDBRANCH  10  14
TORSDOF 7
ENDMDL
MODEL 2
REMARK VINA RESULT:      -5.5      2.101      3.610
REMARK  Name = 75536516
REMARK  10 active torsions:
REMARK  status: ('A' for Active; 'I' for Inactive)
REMARK    1  A    between atoms: O_2  and  C_8
REMARK    2  A    between atoms: N_4  and  C_7
REMARK    3  A    between atoms: N_4  and  C_9
REMARK    4  A    between atoms: N_6  and  C_14
REMARK    5  A    between atoms: C_10  and  C_14
REMARK    6  A    between atoms: C_17  and  C_18
REMARK    7  A    between atoms: C_17  and  C_20
REMARK    8  A    between atoms: C_17  and  C_21
REMARK    9  A    between atoms: C_17  and  C_22
REMARK   10  A    between atoms: C_18  and  C_19
REMARK                            x       y       z     vdW  Elec       q    Type
REMARK                         _______ _______ _______ _____ _____    ______ ____
ROOT
ATOM      1  O   UNL     1      -4.367 -12.015  17.559  0.00  0.00    -0.371 OA
ATOM      7  C   UNL     1      -6.363 -10.734  17.434  0.00  0.00    +0.111 C 
ATOM      8  C   UNL     1      -5.251  -9.989  16.721  0.00  0.00    +0.164 C 
ATOM     10  C   UNL     1      -4.272 -11.121  16.439  0.00  0.00    +0.165 C 
ATOM     11  C   UNL     1      -5.572 -11.713  18.286  0.00  0.00    +0.181 C 
ENDROOT
BRANCH   8   2
ATOM      2  O   UNL     1      -5.690  -9.363  15.530  0.00  0.00    -0.388 OA
ATOM     25  H   UNL     1      -5.002  -8.742  15.239  0.00  0.00    +0.210 HD
ENDBRANCH   8   2
BRANCH   7   4
ATOM      4  N   UNL     1      -7.232  -9.874  18.220  0.00  0.00    -0.306 NA
ATOM     23  H   UNL     1      -6.887  -8.915  18.199  0.00  0.00    +0.123 HD
BRANCH   4   9
ATOM      5  N   UNL     1     -11.382  -8.997  17.893  0.00  0.00    -0.316 NA
ATOM      9  C   UNL     1      -8.605  -9.915  17.722  0.00  0.00    +0.056 C 
ATOM     12  C   UNL     1      -9.044  -8.540  17.205  0.00  0.00    +0.034 C 
ATOM     13  C   UNL     1      -9.556 -10.392  18.824  0.00  0.00    +0.034 C 
ATOM     15  C   UNL     1     -10.517  -8.557  16.796  0.00  0.00    +0.082 C 
ATOM     16  C   UNL     1     -11.009 -10.338  18.352  0.00  0.00    +0.082 C 
ATOM     24  H   UNL     1     -12.351  -9.009  17.574  0.00  0.00    +0.122 HD
ENDBRANCH   4   9
ENDBRANCH   7   4
BRANCH  10  14
ATOM     14  C   UNL     1      -2.838 -10.648  16.279  0.00  0.00    +0.138 C 
BRANCH  14   6
ATOM      3  O   UNL     1      -2.124 -12.305  14.014  0.00  0.00    -0.276 OA
ATOM      6  N   UNL     1      -2.572 -10.216  14.926  0.00  0.00    -0.313 N 
ATOM     19  C   UNL     1      -2.235 -11.086  13.903  0.00  0.00    +0.214 C 
ATOM     26  H   UNL     1      -2.648  -9.222  14.728  0.00  0.00    +0.149 HD
BRANCH  19  18
ATOM     18  C   UNL     1      -1.997 -10.382  12.577  0.00  0.00    +0.102 C 
BRANCH  18  17
ATOM     17  C   UNL     1      -3.160 -10.503  11.563  0.00  0.00    -0.029 C 
ATOM     20  C   UNL     1      -3.012  -9.494  10.413  0.00  0.00    +0.011 C 
ATOM     21  C   UNL     1      -3.242 -11.925  10.982  0.00  0.00    +0.011 C 
ATOM     22  C   UNL     1      -4.475 -10.204  12.308  0.00  0.00    +0.011 C 
ENDBRANCH  18  17
ENDBRANCH  19  18
ENDBRANCH  14   6
ENDBRANCH  10  14
TORSDOF 7
ENDMDL
MODEL 3
REMARK VINA RESULT:      -5.5      4.780      7.800
REMARK  Name = 75536516
REMARK  10 active torsions:
REMARK  status: ('A' for Active; 'I' for Inactive)
REMARK    1  A    between atoms: O_2  and  C_8
REMARK    2  A    between atoms: N_4  and  C_7
REMARK    3  A    between atoms: N_4  and  C_9
REMARK    4  A    between atoms: N_6  and  C_14
REMARK    5  A    between atoms: C_10  and  C_14
REMARK    6  A    between atoms: C_17  and  C_18
REMARK    7  A    between atoms: C_17  and  C_20
REMARK    8  A    between atoms: C_17  and  C_21
REMARK    9  A    between atoms: C_17  and  C_22
REMARK   10  A    between atoms: C_18  and  C_19
REMARK                            x       y       z     vdW  Elec       q    Type
REMARK                         _______ _______ _______ _____ _____    ______ ____
ROOT
ATOM      1  O   UNL     1      -9.940 -12.715  18.315  0.00  0.00    -0.371 OA
ATOM      7  C   UNL     1      -8.447 -11.223  19.403  0.00  0.00    +0.111 C 
ATOM      8  C   UNL     1      -9.858 -10.677  19.510  0.00  0.00    +0.164 C 
ATOM     10  C   UNL     1     -10.680 -11.936  19.269  0.00  0.00    +0.165 C 
ATOM     11  C   UNL     1      -8.593 -12.212  18.258  0.00  0.00    +0.181 C 
ENDROOT
BRANCH   8   2
ATOM      2  O   UNL     1     -10.128 -10.106  20.777  0.00  0.00    -0.388 OA
ATOM     25  H   UNL     1      -9.321  -9.668  21.093  0.00  0.00    +0.210 HD
ENDBRANCH   8   2
BRANCH   7   4
ATOM      4  N   UNL     1      -7.445 -10.202  19.143  0.00  0.00    -0.306 NA
ATOM     23  H   UNL     1      -6.864 -10.064  19.970  0.00  0.00    +0.123 HD
BRANCH   4   9
ATOM      5  N   UNL     1      -4.345  -9.965  16.239  0.00  0.00    -0.316 NA
ATOM      9  C   UNL     1      -6.604 -10.567  18.005  0.00  0.00    +0.056 C 
ATOM     12  C   UNL     1      -5.149 -10.775  18.441  0.00  0.00    +0.034 C 
ATOM     13  C   UNL     1      -6.680  -9.487  16.921  0.00  0.00    +0.034 C 
ATOM     15  C   UNL     1      -4.251 -11.039  17.232  0.00  0.00    +0.082 C 
ATOM     16  C   UNL     1      -5.723  -9.801  15.771  0.00  0.00    +0.082 C 
ATOM     24  H   UNL     1      -3.745 -10.188  15.445  0.00  0.00    +0.122 HD
ENDBRANCH   4   9
ENDBRANCH   7   4
BRANCH  10  14
ATOM     14  C   UNL     1     -12.071 -11.652  18.732  0.00  0.00    +0.138 C 
BRANCH  14   6
ATOM      3  O   UNL     1     -12.150 -10.644  16.019  0.00  0.00    -0.276 OA
ATOM      6  N   UNL     1     -12.205 -10.276  18.313  0.00  0.00    -0.313 N 
ATOM     19  C   UNL     1     -12.233  -9.887  16.984  0.00  0.00    +0.214 C 
ATOM     26  H   UNL     1     -12.291  -9.571  19.039  0.00  0.00    +0.149 HD
BRANCH  19  18
ATOM     18  C   UNL     1     -12.373  -8.384  16.806  0.00  0.00    +0.102 C 
BRANCH  18  17
ATOM     17  C   UNL     1     -11.083  -7.665  16.344  0.00  0.00    -0.029 C 
ATOM     20  C   UNL     1      -9.928  -7.888  17.335  0.00  0.00    +0.011 C 
ATOM     21  C   UNL     1     -10.652  -8.144  14.948  0.00  0.00    +0.011 C 
ATOM     22  C   UNL     1     -11.378  -6.155  16.272  0.00  0.00    +0.011 C 
ENDBRANCH  18  17
ENDBRANCH  19  18
ENDBRANCH  14   6
ENDBRANCH  10  14
TORSDOF 7
ENDMDL
MODEL 4
REMARK VINA RESULT:      -5.4     27.101     29.180
REMARK  Name = 75536516
REMARK  10 active torsions:
REMARK  status: ('A' for Active; 'I' for Inactive)
REMARK    1  A    between atoms: O_2  and  C_8
REMARK    2  A    between atoms: N_4  and  C_7
REMARK    3  A    between atoms: N_4  and  C_9
REMARK    4  A    between atoms: N_6  and  C_14
REMARK    5  A    between atoms: C_10  and  C_14
REMARK    6  A    between atoms: C_17  and  C_18
REMARK    7  A    between atoms: C_17  and  C_20
REMARK    8  A    between atoms: C_17  and  C_21
REMARK    9  A    between atoms: C_17  and  C_22
REMARK   10  A    between atoms: C_18  and  C_19
REMARK                            x       y       z     vdW  Elec       q    Type
REMARK                         _______ _______ _______ _____ _____    ______ ____
ROOT
ATOM      1  O   UNL     1      16.645   5.599  18.537  0.00  0.00    -0.371 OA
ATOM      7  C   UNL     1      18.381   5.914  20.127  0.00  0.00    +0.111 C 
ATOM      8  C   UNL     1      17.308   6.963  20.351  0.00  0.00    +0.164 C 
ATOM     10  C   UNL     1      16.114   6.313  19.665  0.00  0.00    +0.165 C 
ATOM     11  C   UNL     1      18.067   5.460  18.711  0.00  0.00    +0.181 C 
ENDROOT
BRANCH   8   2
ATOM      2  O   UNL     1      17.060   7.205  21.723  0.00  0.00    -0.388 OA
ATOM     25  H   UNL     1      16.194   7.637  21.806  0.00  0.00    +0.210 HD
ENDBRANCH   8   2
BRANCH   7   4
ATOM      4  N   UNL     1      19.735   6.424  20.269  0.00  0.00    -0.306 NA
ATOM     23  H   UNL     1      19.713   7.427  20.453  0.00  0.00    +0.123 HD
BRANCH   4   9
ATOM      5  N   UNL     1      22.953   4.737  22.482  0.00  0.00    -0.316 NA
ATOM      9  C   UNL     1      20.445   5.740  21.347  0.00  0.00    +0.056 C 
ATOM     12  C   UNL     1      21.473   6.669  22.005  0.00  0.00    +0.034 C 
ATOM     13  C   UNL     1      21.136   4.482  20.814  0.00  0.00    +0.034 C 
ATOM     15  C   UNL     1      22.295   5.916  23.051  0.00  0.00    +0.082 C 
ATOM     16  C   UNL     1      21.972   3.814  21.906  0.00  0.00    +0.082 C 
ATOM     24  H   UNL     1      23.477   4.258  23.214  0.00  0.00    +0.122 HD
ENDBRANCH   4   9
ENDBRANCH   7   4
BRANCH  10  14
ATOM     14  C   UNL     1      15.073   7.314  19.196  0.00  0.00    +0.138 C 
BRANCH  14   6
ATOM      3  O   UNL     1      14.712   9.941  20.359  0.00  0.00    -0.276 OA
ATOM      6  N   UNL     1      14.174   7.682  20.266  0.00  0.00    -0.313 N 
ATOM     19  C   UNL     1      14.070   8.972  20.759  0.00  0.00    +0.214 C 
ATOM     26  H   UNL     1      13.590   6.951  20.660  0.00  0.00    +0.149 HD
BRANCH  19  18
ATOM     18  C   UNL     1      13.061   9.098  21.889  0.00  0.00    +0.102 C 
BRANCH  18  17
ATOM     17  C   UNL     1      11.689   9.674  21.468  0.00  0.00    -0.029 C 
ATOM     20  C   UNL     1      11.780  11.177  21.156  0.00  0.00    +0.011 C 
ATOM     21  C   UNL     1      11.130   8.935  20.241  0.00  0.00    +0.011 C 
ATOM     22  C   UNL     1      10.710   9.479  22.642  0.00  0.00    +0.011 C 
ENDBRANCH  18  17
ENDBRANCH  19  18
ENDBRANCH  14   6
ENDBRANCH  10  14
TORSDOF 7
ENDMDL
MODEL 5
REMARK VINA RESULT:      -5.4     15.267     17.699
REMARK  Name = 75536516
REMARK  10 active torsions:
REMARK  status: ('A' for Active; 'I' for Inactive)
REMARK    1  A    between atoms: O_2  and  C_8
REMARK    2  A    between atoms: N_4  and  C_7
REMARK    3  A    between atoms: N_4  and  C_9
REMARK    4  A    between atoms: N_6  and  C_14
REMARK    5  A    between atoms: C_10  and  C_14
REMARK    6  A    between atoms: C_17  and  C_18
REMARK    7  A    between atoms: C_17  and  C_20
REMARK    8  A    between atoms: C_17  and  C_21
REMARK    9  A    between atoms: C_17  and  C_22
REMARK   10  A    between atoms: C_18  and  C_19
REMARK                            x       y       z     vdW  Elec       q    Type
REMARK                         _______ _______ _______ _____ _____    ______ ____
ROOT
ATOM      1  O   UNL     1      -1.470 -15.601  -2.055  0.00  0.00    -0.371 OA
ATOM      7  C   UNL     1      -0.720 -14.297  -0.217  0.00  0.00    +0.111 C 
ATOM      8  C   UNL     1      -1.499 -13.409  -1.169  0.00  0.00    +0.164 C 
ATOM     10  C   UNL     1      -2.312 -14.443  -1.938  0.00  0.00    +0.165 C 
ATOM     11  C   UNL     1      -0.390 -15.481  -1.112  0.00  0.00    +0.181 C 
ENDROOT
BRANCH   8   2
ATOM      2  O   UNL     1      -2.328 -12.481  -0.496  0.00  0.00    -0.388 OA
ATOM     25  H   UNL     1      -3.035 -12.973  -0.047  0.00  0.00    +0.210 HD
ENDBRANCH   8   2
BRANCH   7   4
ATOM      4  N   UNL     1       0.463 -13.661   0.338  0.00  0.00    -0.306 NA
ATOM     23  H   UNL     1       0.236 -13.217   1.228  0.00  0.00    +0.123 HD
BRANCH   4   9
ATOM      5  N   UNL     1       4.078 -15.365   1.797  0.00  0.00    -0.316 NA
ATOM      9  C   UNL     1       1.540 -14.629   0.530  0.00  0.00    +0.056 C 
ATOM     12  C   UNL     1       1.623 -15.077   1.995  0.00  0.00    +0.034 C 
ATOM     13  C   UNL     1       2.878 -14.030   0.086  0.00  0.00    +0.034 C 
ATOM     15  C   UNL     1       2.823 -15.997   2.216  0.00  0.00    +0.082 C 
ATOM     16  C   UNL     1       4.030 -14.991   0.381  0.00  0.00    +0.082 C 
ATOM     24  H   UNL     1       4.848 -16.016   1.947  0.00  0.00    +0.122 HD
ENDBRANCH   4   9
ENDBRANCH   7   4
BRANCH  10  14
ATOM     14  C   UNL     1      -2.733 -13.971  -3.318  0.00  0.00    +0.138 C 
BRANCH  14   6
ATOM      3  O   UNL     1      -0.690 -14.241  -5.352  0.00  0.00    -0.276 OA
ATOM      6  N   UNL     1      -1.852 -12.940  -3.816  0.00  0.00    -0.313 N 
ATOM     19  C   UNL     1      -0.900 -13.164  -4.796  0.00  0.00    +0.214 C 
ATOM     26  H   UNL     1      -1.953 -12.008  -3.426  0.00  0.00    +0.149 HD
BRANCH  19  18
ATOM     18  C   UNL     1      -0.094 -11.922  -5.139  0.00  0.00    +0.102 C 
BRANCH  18  17
ATOM     17  C   UNL     1       1.356 -11.923  -4.601  0.00  0.00    -0.029 C 
ATOM     20  C   UNL     1       1.463 -12.683  -3.269  0.00  0.00    +0.011 C 
ATOM     21  C   UNL     1       2.324 -12.548  -5.620  0.00  0.00    +0.011 C 
ATOM     22  C   UNL     1       1.778 -10.460  -4.364  0.00  0.00    +0.011 C 
ENDBRANCH  18  17
ENDBRANCH  19  18
ENDBRANCH  14   6
ENDBRANCH  10  14
TORSDOF 7
ENDMDL
MODEL 6
REMARK VINA RESULT:      -5.3     19.522     20.823
REMARK  Name = 75536516
REMARK  10 active torsions:
REMARK  status: ('A' for Active; 'I' for Inactive)
REMARK    1  A    between atoms: O_2  and  C_8
REMARK    2  A    between atoms: N_4  and  C_7
REMARK    3  A    between atoms: N_4  and  C_9
REMARK    4  A    between atoms: N_6  and  C_14
REMARK    5  A    between atoms: C_10  and  C_14
REMARK    6  A    between atoms: C_17  and  C_18
REMARK    7  A    between atoms: C_17  and  C_20
REMARK    8  A    between atoms: C_17  and  C_21
REMARK    9  A    between atoms: C_17  and  C_22
REMARK   10  A    between atoms: C_18  and  C_19
REMARK                            x       y       z     vdW  Elec       q    Type
REMARK                         _______ _______ _______ _____ _____    ______ ____
ROOT
ATOM      1  O   UNL     1     -16.079   6.519  23.481  0.00  0.00    -0.371 OA
ATOM      7  C   UNL     1     -15.432   4.235  23.561  0.00  0.00    +0.111 C 
ATOM      8  C   UNL     1     -14.774   4.894  22.363  0.00  0.00    +0.164 C 
ATOM     10  C   UNL     1     -14.846   6.363  22.760  0.00  0.00    +0.165 C 
ATOM     11  C   UNL     1     -16.552   5.217  23.866  0.00  0.00    +0.181 C 
ENDROOT
BRANCH   8   2
ATOM      2  O   UNL     1     -13.440   4.466  22.169  0.00  0.00    -0.388 OA
ATOM     25  H   UNL     1     -13.396   3.968  21.336  0.00  0.00    +0.210 HD
ENDBRANCH   8   2
BRANCH   7   4
ATOM      4  N   UNL     1     -15.916   2.891  23.294  0.00  0.00    -0.306 NA
ATOM     23  H   UNL     1     -15.167   2.214  23.440  0.00  0.00    +0.123 HD
BRANCH   4   9
ATOM      5  N   UNL     1     -18.719   0.543  25.470  0.00  0.00    -0.316 NA
ATOM      9  C   UNL     1     -17.053   2.561  24.149  0.00  0.00    +0.056 C 
ATOM     12  C   UNL     1     -16.594   1.822  25.413  0.00  0.00    +0.034 C 
ATOM     13  C   UNL     1     -18.067   1.709  23.380  0.00  0.00    +0.034 C 
ATOM     15  C   UNL     1     -17.794   1.374  26.247  0.00  0.00    +0.082 C 
ATOM     16  C   UNL     1     -19.210   1.265  24.293  0.00  0.00    +0.082 C 
ATOM     24  H   UNL     1     -19.509   0.280  26.057  0.00  0.00    +0.122 HD
ENDBRANCH   4   9
ENDBRANCH   7   4
BRANCH  10  14
ATOM     14  C   UNL     1     -14.822   7.308  21.572  0.00  0.00    +0.138 C 
BRANCH  14   6
ATOM      3  O   UNL     1     -12.378   8.861  21.615  0.00  0.00    -0.276 OA
ATOM      6  N   UNL     1     -13.643   7.108  20.761  0.00  0.00    -0.313 N 
ATOM     19  C   UNL     1     -12.515   7.906  20.852  0.00  0.00    +0.214 C 
ATOM     26  H   UNL     1     -13.653   6.335  20.102  0.00  0.00    +0.149 HD
BRANCH  19  18
ATOM     18  C   UNL     1     -11.415   7.496  19.886  0.00  0.00    +0.102 C 
BRANCH  18  17
ATOM     17  C   UNL     1     -11.192   8.473  18.708  0.00  0.00    -0.029 C 
ATOM     20  C   UNL     1     -10.644   7.746  17.469  0.00  0.00    +0.011 C 
ATOM     21  C   UNL     1     -12.496   9.198  18.335  0.00  0.00    +0.011 C 
ATOM     22  C   UNL     1     -10.158   9.526  19.152  0.00  0.00    +0.011 C 
ENDBRANCH  18  17
ENDBRANCH  19  18
ENDBRANCH  14   6
ENDBRANCH  10  14
TORSDOF 7
ENDMDL
MODEL 7
REMARK VINA RESULT:      -5.2      2.732      4.392
REMARK  Name = 75536516
REMARK  10 active torsions:
REMARK  status: ('A' for Active; 'I' for Inactive)
REMARK    1  A    between atoms: O_2  and  C_8
REMARK    2  A    between atoms: N_4  and  C_7
REMARK    3  A    between atoms: N_4  and  C_9
REMARK    4  A    between atoms: N_6  and  C_14
REMARK    5  A    between atoms: C_10  and  C_14
REMARK    6  A    between atoms: C_17  and  C_18
REMARK    7  A    between atoms: C_17  and  C_20
REMARK    8  A    between atoms: C_17  and  C_21
REMARK    9  A    between atoms: C_17  and  C_22
REMARK   10  A    between atoms: C_18  and  C_19
REMARK                            x       y       z     vdW  Elec       q    Type
REMARK                         _______ _______ _______ _____ _____    ______ ____
ROOT
ATOM      1  O   UNL     1      -3.816 -10.500  13.776  0.00  0.00    -0.371 OA
ATOM      7  C   UNL     1      -3.232 -10.768  16.063  0.00  0.00    +0.111 C 
ATOM      8  C   UNL     1      -2.117 -11.326  15.199  0.00  0.00    +0.164 C 
ATOM     10  C   UNL     1      -2.387 -10.619  13.877  0.00  0.00    +0.165 C 
ATOM     11  C   UNL     1      -4.388 -10.731  15.076  0.00  0.00    +0.181 C 
ENDROOT
BRANCH   8   2
ATOM      2  O   UNL     1      -0.831 -11.023  15.704  0.00  0.00    -0.388 OA
ATOM     25  H   UNL     1      -0.540 -10.182  15.317  0.00  0.00    +0.210 HD
ENDBRANCH   8   2
BRANCH   7   4
ATOM      4  N   UNL     1      -3.518 -11.573  17.239  0.00  0.00    -0.306 NA
ATOM     23  H   UNL     1      -2.997 -11.219  18.041  0.00  0.00    +0.123 HD
BRANCH   4   9
ATOM      5  N   UNL     1      -7.137 -12.192  19.387  0.00  0.00    -0.316 NA
ATOM      9  C   UNL     1      -4.947 -11.576  17.540  0.00  0.00    +0.056 C 
ATOM     12  C   UNL     1      -5.252 -10.705  18.765  0.00  0.00    +0.034 C 
ATOM     13  C   UNL     1      -5.437 -13.008  17.777  0.00  0.00    +0.034 C 
ATOM     15  C   UNL     1      -6.729 -10.805  19.149  0.00  0.00    +0.082 C 
ATOM     16  C   UNL     1      -6.906 -13.019  18.200  0.00  0.00    +0.082 C 
ATOM     24  H   UNL     1      -8.129 -12.215  19.625  0.00  0.00    +0.122 HD
ENDBRANCH   4   9
ENDBRANCH   7   4
BRANCH  10  14
ATOM     14  C   UNL     1      -1.848 -11.370  12.673  0.00  0.00    +0.138 C 
BRANCH  14   6
ATOM      3  O   UNL     1      -3.292 -13.732  11.825  0.00  0.00    -0.276 OA
ATOM      6  N   UNL     1      -1.546 -12.745  12.998  0.00  0.00    -0.313 N 
ATOM     19  C   UNL     1      -2.299 -13.815  12.545  0.00  0.00    +0.214 C 
ATOM     26  H   UNL     1      -0.735 -12.921  13.583  0.00  0.00    +0.149 HD
BRANCH  19  18
ATOM     18  C   UNL     1      -1.781 -15.158  13.034  0.00  0.00    +0.102 C 
BRANCH  18  17
ATOM     17  C   UNL     1      -2.690 -15.862  14.069  0.00  0.00    -0.029 C 
ATOM     20  C   UNL     1      -3.687 -16.815  13.388  0.00  0.00    +0.011 C 
ATOM     21  C   UNL     1      -1.856 -16.650  15.093  0.00  0.00    +0.011 C 
ATOM     22  C   UNL     1      -3.487 -14.779  14.820  0.00  0.00    +0.011 C 
ENDBRANCH  18  17
ENDBRANCH  19  18
ENDBRANCH  14   6
ENDBRANCH  10  14
TORSDOF 7
ENDMDL
MODEL 8
REMARK VINA RESULT:      -5.2     19.899     22.060
REMARK  Name = 75536516
REMARK  10 active torsions:
REMARK  status: ('A' for Active; 'I' for Inactive)
REMARK    1  A    between atoms: O_2  and  C_8
REMARK    2  A    between atoms: N_4  and  C_7
REMARK    3  A    between atoms: N_4  and  C_9
REMARK    4  A    between atoms: N_6  and  C_14
REMARK    5  A    between atoms: C_10  and  C_14
REMARK    6  A    between atoms: C_17  and  C_18
REMARK    7  A    between atoms: C_17  and  C_20
REMARK    8  A    between atoms: C_17  and  C_21
REMARK    9  A    between atoms: C_17  and  C_22
REMARK   10  A    between atoms: C_18  and  C_19
REMARK                            x       y       z     vdW  Elec       q    Type
REMARK                         _______ _______ _______ _____ _____    ______ ____
ROOT
ATOM      1  O   UNL     1     -14.733   7.831  20.466  0.00  0.00    -0.371 OA
ATOM      7  C   UNL     1     -12.567   7.031  19.911  0.00  0.00    +0.111 C 
ATOM      8  C   UNL     1     -12.856   6.709  21.365  0.00  0.00    +0.164 C 
ATOM     10  C   UNL     1     -14.377   6.787  21.387  0.00  0.00    +0.165 C 
ATOM     11  C   UNL     1     -13.595   8.115  19.633  0.00  0.00    +0.181 C 
ENDROOT
BRANCH   8   2
ATOM      2  O   UNL     1     -12.389   5.428  21.744  0.00  0.00    -0.388 OA
ATOM     25  H   UNL     1     -13.114   4.956  22.184  0.00  0.00    +0.210 HD
ENDBRANCH   8   2
BRANCH   7   4
ATOM      4  N   UNL     1     -11.202   7.470  19.671  0.00  0.00    -0.306 NA
ATOM     23  H   UNL     1     -10.645   6.698  19.308  0.00  0.00    +0.123 HD
BRANCH   4   9
ATOM      5  N   UNL     1      -9.623  10.438  17.064  0.00  0.00    -0.316 NA
ATOM      9  C   UNL     1     -11.167   8.590  18.733  0.00  0.00    +0.056 C 
ATOM     12  C   UNL     1     -10.555   8.164  17.393  0.00  0.00    +0.034 C 
ATOM     13  C   UNL     1     -10.373   9.757  19.327  0.00  0.00    +0.034 C 
ATOM     15  C   UNL     1     -10.410   9.363  16.455  0.00  0.00    +0.082 C 
ATOM     16  C   UNL     1     -10.235  10.894  18.315  0.00  0.00    +0.082 C 
ATOM     24  H   UNL     1      -9.564  11.222  16.414  0.00  0.00    +0.122 HD
ENDBRANCH   4   9
ENDBRANCH   7   4
BRANCH  10  14
ATOM     14  C   UNL     1     -14.943   7.098  22.761  0.00  0.00    +0.138 C 
BRANCH  14   6
ATOM      3  O   UNL     1     -16.764   4.847  22.782  0.00  0.00    -0.276 OA
ATOM      6  N   UNL     1     -14.896   5.942  23.626  0.00  0.00    -0.313 N 
ATOM     19  C   UNL     1     -15.816   4.909  23.563  0.00  0.00    +0.214 C 
ATOM     26  H   UNL     1     -14.141   5.893  24.303  0.00  0.00    +0.149 HD
BRANCH  19  18
ATOM     18  C   UNL     1     -15.554   3.814  24.584  0.00  0.00    +0.102 C 
BRANCH  18  17
ATOM     17  C   UNL     1     -16.648   3.667  25.668  0.00  0.00    -0.029 C 
ATOM     20  C   UNL     1     -17.265   5.027  26.035  0.00  0.00    +0.011 C 
ATOM     21  C   UNL     1     -17.762   2.714  25.205  0.00  0.00    +0.011 C 
ATOM     22  C   UNL     1     -15.992   3.073  26.930  0.00  0.00    +0.011 C 
ENDBRANCH  18  17
ENDBRANCH  19  18
ENDBRANCH  14   6
ENDBRANCH  10  14
TORSDOF 7
ENDMDL
MODEL 9
REMARK VINA RESULT:      -5.2      1.896      2.388
REMARK  Name = 75536516
REMARK  10 active torsions:
REMARK  status: ('A' for Active; 'I' for Inactive)
REMARK    1  A    between atoms: O_2  and  C_8
REMARK    2  A    between atoms: N_4  and  C_7
REMARK    3  A    between atoms: N_4  and  C_9
REMARK    4  A    between atoms: N_6  and  C_14
REMARK    5  A    between atoms: C_10  and  C_14
REMARK    6  A    between atoms: C_17  and  C_18
REMARK    7  A    between atoms: C_17  and  C_20
REMARK    8  A    between atoms: C_17  and  C_21
REMARK    9  A    between atoms: C_17  and  C_22
REMARK   10  A    between atoms: C_18  and  C_19
REMARK                            x       y       z     vdW  Elec       q    Type
REMARK                         _______ _______ _______ _____ _____    ______ ____
ROOT
ATOM      1  O   UNL     1      -4.040 -14.327  14.303  0.00  0.00    -0.371 OA
ATOM      7  C   UNL     1      -4.679 -13.141  16.260  0.00  0.00    +0.111 C 
ATOM      8  C   UNL     1      -3.537 -12.405  15.586  0.00  0.00    +0.164 C 
ATOM     10  C   UNL     1      -3.626 -12.958  14.169  0.00  0.00    +0.165 C 
ATOM     11  C   UNL     1      -4.562 -14.520  15.630  0.00  0.00    +0.181 C 
ENDROOT
BRANCH   8   2
ATOM      2  O   UNL     1      -3.700 -11.000  15.615  0.00  0.00    -0.388 OA
ATOM     25  H   UNL     1      -3.365 -10.670  16.464  0.00  0.00    +0.210 HD
ENDBRANCH   8   2
BRANCH   7   4
ATOM      4  N   UNL     1      -4.579 -13.171  17.709  0.00  0.00    -0.306 NA
ATOM     23  H   UNL     1      -3.696 -12.759  18.008  0.00  0.00    +0.123 HD
BRANCH   4   9
ATOM      5  N   UNL     1      -7.314 -10.026  18.566  0.00  0.00    -0.316 NA
ATOM      9  C   UNL     1      -5.692 -12.455  18.329  0.00  0.00    +0.056 C 
ATOM     12  C   UNL     1      -6.749 -12.074  17.286  0.00  0.00    +0.034 C 
ATOM     13  C   UNL     1      -5.184 -11.202  19.047  0.00  0.00    +0.034 C 
ATOM     15  C   UNL     1      -7.853 -11.223  17.915  0.00  0.00    +0.082 C 
ATOM     16  C   UNL     1      -6.348 -10.385  19.608  0.00  0.00    +0.082 C 
ATOM     24  H   UNL     1      -8.079  -9.498  18.985  0.00  0.00    +0.122 HD
ENDBRANCH   4   9
ENDBRANCH   7   4
BRANCH  10  14
ATOM     14  C   UNL     1      -2.310 -12.890  13.414  0.00  0.00    +0.138 C 
BRANCH  14   6
ATOM      3  O   UNL     1      -1.966 -10.016  13.340  0.00  0.00    -0.276 OA
ATOM      6  N   UNL     1      -2.407 -12.026  12.261  0.00  0.00    -0.313 N 
ATOM     19  C   UNL     1      -2.226 -10.655  12.322  0.00  0.00    +0.214 C 
ATOM     26  H   UNL     1      -2.609 -12.460  11.365  0.00  0.00    +0.149 HD
BRANCH  19  18
ATOM     18  C   UNL     1      -2.388  -9.971  10.975  0.00  0.00    +0.102 C 
BRANCH  18  17
ATOM     17  C   UNL     1      -3.835  -9.959  10.426  0.00  0.00    -0.029 C 
ATOM     20  C   UNL     1      -4.177 -11.276   9.710  0.00  0.00    +0.011 C 
ATOM     21  C   UNL     1      -4.853  -9.716  11.553  0.00  0.00    +0.011 C 
ATOM     22  C   UNL     1      -3.950  -8.807   9.409  0.00  0.00    +0.011 C 
ENDBRANCH  18  17
ENDBRANCH  19  18
ENDBRANCH  14   6
ENDBRANCH  10  14
TORSDOF 7
ENDMDL
MODEL 10
REMARK VINA RESULT:      -5.2      1.861      6.582
REMARK  Name = 75536516
REMARK  10 active torsions:
REMARK  status: ('A' for Active; 'I' for Inactive)
REMARK    1  A    between atoms: O_2  and  C_8
REMARK    2  A    between atoms: N_4  and  C_7
REMARK    3  A    between atoms: N_4  and  C_9
REMARK    4  A    between atoms: N_6  and  C_14
REMARK    5  A    between atoms: C_10  and  C_14
REMARK    6  A    between atoms: C_17  and  C_18
REMARK    7  A    between atoms: C_17  and  C_20
REMARK    8  A    between atoms: C_17  and  C_21
REMARK    9  A    between atoms: C_17  and  C_22
REMARK   10  A    between atoms: C_18  and  C_19
REMARK                            x       y       z     vdW  Elec       q    Type
REMARK                         _______ _______ _______ _____ _____    ______ ____
ROOT
ATOM      1  O   UNL     1      -3.014 -12.888  12.470  0.00  0.00    -0.371 OA
ATOM      7  C   UNL     1      -2.363 -10.697  11.824  0.00  0.00    +0.111 C 
ATOM      8  C   UNL     1      -2.712 -10.694  13.300  0.00  0.00    +0.164 C 
ATOM     10  C   UNL     1      -2.576 -12.174  13.637  0.00  0.00    +0.165 C 
ATOM     11  C   UNL     1      -3.039 -11.976  11.357  0.00  0.00    +0.181 C 
ENDROOT
BRANCH   8   2
ATOM      2  O   UNL     1      -1.832  -9.896  14.068  0.00  0.00    -0.388 OA
ATOM     25  H   UNL     1      -1.285 -10.483  14.615  0.00  0.00    +0.210 HD
ENDBRANCH   8   2
BRANCH   7   4
ATOM      4  N   UNL     1      -2.830  -9.519  11.112  0.00  0.00    -0.306 NA
ATOM     23  H   UNL     1      -2.164  -9.264  10.383  0.00  0.00    +0.123 HD
BRANCH   4   9
ATOM      5  N   UNL     1      -6.543  -8.692   9.207  0.00  0.00    -0.316 NA
ATOM      9  C   UNL     1      -4.146  -9.748  10.521  0.00  0.00    +0.056 C 
ATOM     12  C   UNL     1      -4.159  -9.354   9.039  0.00  0.00    +0.034 C 
ATOM     13  C   UNL     1      -5.216  -8.961  11.285  0.00  0.00    +0.034 C 
ATOM     15  C   UNL     1      -5.566  -9.482   8.454  0.00  0.00    +0.082 C 
ATOM     16  C   UNL     1      -6.582  -9.105  10.613  0.00  0.00    +0.082 C 
ATOM     24  H   UNL     1      -7.467  -8.817   8.795  0.00  0.00    +0.122 HD
ENDBRANCH   4   9
ENDBRANCH   7   4
BRANCH  10  14
ATOM     14  C   UNL     1      -3.404 -12.595  14.838  0.00  0.00    +0.138 C 
BRANCH  14   6
ATOM      3  O   UNL     1      -3.609 -11.476  17.501  0.00  0.00    -0.276 OA
ATOM      6  N   UNL     1      -4.278 -11.532  15.276  0.00  0.00    -0.313 N 
ATOM     19  C   UNL     1      -4.307 -11.061  16.578  0.00  0.00    +0.214 C 
ATOM     26  H   UNL     1      -4.891 -11.113  14.583  0.00  0.00    +0.149 HD
BRANCH  19  18
ATOM     18  C   UNL     1      -5.319  -9.946  16.786  0.00  0.00    +0.102 C 
BRANCH  18  17
ATOM     17  C   UNL     1      -6.587 -10.362  17.569  0.00  0.00    -0.029 C 
ATOM     20  C   UNL     1      -7.101 -11.739  17.119  0.00  0.00    +0.011 C 
ATOM     21  C   UNL     1      -6.319 -10.391  19.083  0.00  0.00    +0.011 C 
ATOM     22  C   UNL     1      -7.685  -9.317  17.288  0.00  0.00    +0.011 C 
ENDBRANCH  18  17
ENDBRANCH  19  18
ENDBRANCH  14   6
ENDBRANCH  10  14
TORSDOF 7
ENDMDL
