MODEL 1
REMARK VINA RESULT:      -6.5      0.000      0.000
REMARK  Name = 11912245
REMARK  10 active torsions:
REMARK  status: ('A' for Active; 'I' for Inactive)
REMARK    1  A    between atoms: S_1  and  C_26
REMARK    2  A    between atoms: S_1  and  C_27
REMARK    3  A    between atoms: O_6  and  C_25
REMARK    4  A    between atoms: O_6  and  C_28
REMARK    5  A    between atoms: O_7  and  C_29
REMARK    6  A    between atoms: N_11  and  C_17
REMARK    7  A    between atoms: C_13  and  C_18
REMARK    8  A    between atoms: C_21  and  C_25
REMARK    9  A    between atoms: C_24  and  C_26
REMARK   10  A    between atoms: C_27  and  C_29
REMARK                            x       y       z     vdW  Elec       q    Type
REMARK                         _______ _______ _______ _____ _____    ______ ____
ROOT
ATOM      3  O   UNL     1      12.022   6.866  17.478  0.00  0.00    -0.273 OA
ATOM      5  O   UNL     1      11.199  10.046  23.413  0.00  0.00    -0.275 OA
ATOM      9  N   UNL     1      12.798   8.336  19.107  0.00  0.00    -0.285 N 
ATOM     10  N   UNL     1      12.240  10.016  21.338  0.00  0.00    -0.297 N 
ATOM     13  C   UNL     1      13.869   9.184  19.657  0.00  0.00    +0.179 C 
ATOM     14  C   UNL     1      13.338  10.388  20.439  0.00  0.00    +0.139 C 
ATOM     15  C   UNL     1      11.676   8.038  20.008  0.00  0.00    +0.127 C 
ATOM     16  C   UNL     1      11.149   9.295  20.687  0.00  0.00    +0.127 C 
ATOM     21  C   UNL     1      12.858   7.684  17.871  0.00  0.00    +0.242 C 
ATOM     24  C   UNL     1      12.157  10.335  22.692  0.00  0.00    +0.226 C 
ENDROOT
BRANCH  13  18
ATOM      2  O   UNL     1      14.250   7.701  21.491  0.00  0.00    -0.274 OA
ATOM     11  N   UNL     1      16.037   8.267  20.110  0.00  0.00    -0.302 N 
ATOM     18  C   UNL     1      14.716   8.297  20.523  0.00  0.00    +0.236 C 
ATOM     30  H   UNL     1      16.308   8.795  19.285  0.00  0.00    +0.150 HD
BRANCH  11  17
ATOM      4  O   UNL     1      17.700   9.589  21.829  0.00  0.00    -0.274 OA
ATOM     12  N   UNL     1      19.352   8.045  21.512  0.00  0.00    -0.314 N 
ATOM     17  C   UNL     1      17.057   7.509  20.787  0.00  0.00    +0.159 C 
ATOM     19  C   UNL     1      17.676   6.479  19.853  0.00  0.00    +0.033 C 
ATOM     20  C   UNL     1      18.862   5.820  20.537  0.00  0.00    +0.021 C 
ATOM     22  C   UNL     1      19.905   6.877  20.852  0.00  0.00    +0.104 C 
ATOM     23  C   UNL     1      18.054   8.495  21.386  0.00  0.00    +0.233 C 
ATOM     31  H   UNL     1      20.013   8.670  21.962  0.00  0.00    +0.149 HD
ENDBRANCH  11  17
ENDBRANCH  13  18
BRANCH  21  25
ATOM     25  C   UNL     1      14.022   8.033  16.978  0.00  0.00    +0.255 C 
BRANCH  25   6
ATOM      6  O   UNL     1      13.482   8.669  15.844  0.00  0.00    -0.374 OA
ATOM     28  C   UNL     1      14.054   9.958  15.629  0.00  0.00    +0.194 C 
ENDBRANCH  25   6
ENDBRANCH  21  25
BRANCH  24  26
ATOM     26  C   UNL     1      13.329  11.076  23.284  0.00  0.00    +0.165 C 
BRANCH  26   1
ATOM      1  S   UNL     1      12.809  12.772  23.585  0.00  0.00    -0.140 S 
BRANCH   1  27
ATOM     27  C   UNL     1      12.188  12.578  25.274  0.00  0.00    +0.189 C 
BRANCH  27  29
ATOM      8  O   UNL     1      10.333  13.864  26.117  0.00  0.00    -0.250 OA
ATOM     29  C   UNL     1      10.756  13.022  25.334  0.00  0.00    +0.315 C 
BRANCH  29   7
ATOM      7  O   UNL     1       9.975  12.402  24.414  0.00  0.00    -0.480 OA
ATOM     32  H   UNL     1      10.500  12.057  23.661  0.00  0.00    +0.295 HD
ENDBRANCH  29   7
ENDBRANCH  27  29
ENDBRANCH   1  27
ENDBRANCH  26   1
ENDBRANCH  24  26
TORSDOF 9
ENDMDL
MODEL 2
REMARK VINA RESULT:      -6.2     14.441     17.967
REMARK  Name = 11912245
REMARK  10 active torsions:
REMARK  status: ('A' for Active; 'I' for Inactive)
REMARK    1  A    between atoms: S_1  and  C_26
REMARK    2  A    between atoms: S_1  and  C_27
REMARK    3  A    between atoms: O_6  and  C_25
REMARK    4  A    between atoms: O_6  and  C_28
REMARK    5  A    between atoms: O_7  and  C_29
REMARK    6  A    between atoms: N_11  and  C_17
REMARK    7  A    between atoms: C_13  and  C_18
REMARK    8  A    between atoms: C_21  and  C_25
REMARK    9  A    between atoms: C_24  and  C_26
REMARK   10  A    between atoms: C_27  and  C_29
REMARK                            x       y       z     vdW  Elec       q    Type
REMARK                         _______ _______ _______ _____ _____    ______ ____
ROOT
ATOM      3  O   UNL     1       8.605   7.384   8.181  0.00  0.00    -0.273 OA
ATOM      5  O   UNL     1       9.550   7.160   1.467  0.00  0.00    -0.275 OA
ATOM      9  N   UNL     1       9.874   6.740   6.340  0.00  0.00    -0.285 N 
ATOM     10  N   UNL     1      10.026   6.232   3.542  0.00  0.00    -0.297 N 
ATOM     13  C   UNL     1      11.109   6.168   5.777  0.00  0.00    +0.179 C 
ATOM     14  C   UNL     1      10.884   5.453   4.442  0.00  0.00    +0.139 C 
ATOM     15  C   UNL     1       8.999   7.453   5.400  0.00  0.00    +0.127 C 
ATOM     16  C   UNL     1       8.756   6.645   4.133  0.00  0.00    +0.127 C 
ATOM     21  C   UNL     1       9.570   6.782   7.705  0.00  0.00    +0.242 C 
ATOM     24  C   UNL     1      10.312   6.541   2.214  0.00  0.00    +0.226 C 
ENDROOT
BRANCH  13  18
ATOM      2  O   UNL     1      11.769   8.461   5.905  0.00  0.00    -0.274 OA
ATOM     11  N   UNL     1      13.310   6.885   5.154  0.00  0.00    -0.302 N 
ATOM     18  C   UNL     1      12.080   7.304   5.634  0.00  0.00    +0.236 C 
ATOM     30  H   UNL     1      13.458   5.896   4.973  0.00  0.00    +0.150 HD
BRANCH  11  17
ATOM      4  O   UNL     1      14.821   6.490   2.911  0.00  0.00    -0.274 OA
ATOM     12  N   UNL     1      16.631   7.488   3.883  0.00  0.00    -0.314 N 
ATOM     17  C   UNL     1      14.407   7.784   4.906  0.00  0.00    +0.159 C 
ATOM     19  C   UNL     1      15.134   8.121   6.200  0.00  0.00    +0.033 C 
ATOM     20  C   UNL     1      16.385   8.925   5.886  0.00  0.00    +0.021 C 
ATOM     22  C   UNL     1      17.306   8.090   5.017  0.00  0.00    +0.104 C 
ATOM     23  C   UNL     1      15.291   7.160   3.832  0.00  0.00    +0.233 C 
ATOM     31  H   UNL     1      17.220   7.125   3.140  0.00  0.00    +0.149 HD
ENDBRANCH  11  17
ENDBRANCH  13  18
BRANCH  21  25
ATOM     25  C   UNL     1      10.493   6.024   8.628  0.00  0.00    +0.255 C 
BRANCH  25   6
ATOM      6  O   UNL     1       9.944   4.736   8.773  0.00  0.00    -0.374 OA
ATOM     28  C   UNL     1       9.328   4.556  10.047  0.00  0.00    +0.194 C 
ENDBRANCH  25   6
ENDBRANCH  21  25
BRANCH  24  26
ATOM     26  C   UNL     1      11.647   6.079   1.687  0.00  0.00    +0.165 C 
BRANCH  26   1
ATOM      1  S   UNL     1      11.381   4.538   0.797  0.00  0.00    -0.140 S 
BRANCH   1  27
ATOM     27  C   UNL     1      12.452   3.460   1.779  0.00  0.00    +0.189 C 
BRANCH  27  29
ATOM      8  O   UNL     1      14.139   3.587   0.062  0.00  0.00    -0.250 OA
ATOM     29  C   UNL     1      13.856   3.537   1.253  0.00  0.00    +0.315 C 
BRANCH  29   7
ATOM      7  O   UNL     1      14.785   3.562   2.241  0.00  0.00    -0.480 OA
ATOM     32  H   UNL     1      15.626   3.969   1.943  0.00  0.00    +0.295 HD
ENDBRANCH  29   7
ENDBRANCH  27  29
ENDBRANCH   1  27
ENDBRANCH  26   1
ENDBRANCH  24  26
TORSDOF 9
ENDMDL
MODEL 3
REMARK VINA RESULT:      -5.9      3.134      6.043
REMARK  Name = 11912245
REMARK  10 active torsions:
REMARK  status: ('A' for Active; 'I' for Inactive)
REMARK    1  A    between atoms: S_1  and  C_26
REMARK    2  A    between atoms: S_1  and  C_27
REMARK    3  A    between atoms: O_6  and  C_25
REMARK    4  A    between atoms: O_6  and  C_28
REMARK    5  A    between atoms: O_7  and  C_29
REMARK    6  A    between atoms: N_11  and  C_17
REMARK    7  A    between atoms: C_13  and  C_18
REMARK    8  A    between atoms: C_21  and  C_25
REMARK    9  A    between atoms: C_24  and  C_26
REMARK   10  A    between atoms: C_27  and  C_29
REMARK                            x       y       z     vdW  Elec       q    Type
REMARK                         _______ _______ _______ _____ _____    ______ ____
ROOT
ATOM      3  O   UNL     1      11.190  10.092  22.130  0.00  0.00    -0.273 OA
ATOM      5  O   UNL     1      15.408  13.308  17.902  0.00  0.00    -0.275 OA
ATOM      9  N   UNL     1      12.412  10.147  20.151  0.00  0.00    -0.285 N 
ATOM     10  N   UNL     1      13.783  11.673  18.174  0.00  0.00    -0.297 N 
ATOM     13  C   UNL     1      12.918   9.474  18.943  0.00  0.00    +0.179 C 
ATOM     14  C   UNL     1      13.120  10.430  17.764  0.00  0.00    +0.139 C 
ATOM     15  C   UNL     1      13.047  11.426  20.497  0.00  0.00    +0.127 C 
ATOM     16  C   UNL     1      13.139  12.355  19.295  0.00  0.00    +0.127 C 
ATOM     21  C   UNL     1      11.502   9.583  21.051  0.00  0.00    +0.242 C 
ATOM     24  C   UNL     1      14.899  12.238  17.562  0.00  0.00    +0.226 C 
ENDROOT
BRANCH  13  18
ATOM      2  O   UNL     1      15.273   9.409  19.339  0.00  0.00    -0.274 OA
ATOM     11  N   UNL     1      14.025   7.467  19.644  0.00  0.00    -0.302 N 
ATOM     18  C   UNL     1      14.204   8.804  19.332  0.00  0.00    +0.236 C 
ATOM     30  H   UNL     1      13.089   7.074  19.613  0.00  0.00    +0.150 HD
BRANCH  11  17
ATOM      4  O   UNL     1      14.836   7.485  22.254  0.00  0.00    -0.274 OA
ATOM     12  N   UNL     1      16.934   6.799  21.668  0.00  0.00    -0.314 N 
ATOM     17  C   UNL     1      15.106   6.596  20.026  0.00  0.00    +0.159 C 
ATOM     19  C   UNL     1      16.182   6.563  18.950  0.00  0.00    +0.033 C 
ATOM     20  C   UNL     1      17.383   5.780  19.454  0.00  0.00    +0.021 C 
ATOM     22  C   UNL     1      17.947   6.472  20.681  0.00  0.00    +0.104 C 
ATOM     23  C   UNL     1      15.602   7.038  21.398  0.00  0.00    +0.233 C 
ATOM     31  H   UNL     1      17.264   7.036  22.599  0.00  0.00    +0.149 HD
ENDBRANCH  11  17
ENDBRANCH  13  18
BRANCH  21  25
ATOM     25  C   UNL     1      10.869   8.276  20.643  0.00  0.00    +0.255 C 
BRANCH  25   6
ATOM      6  O   UNL     1      10.853   7.463  21.791  0.00  0.00    -0.374 OA
ATOM     28  C   UNL     1      11.286   6.132  21.512  0.00  0.00    +0.194 C 
ENDBRANCH  25   6
ENDBRANCH  21  25
BRANCH  24  26
ATOM     26  C   UNL     1      15.503  11.465  16.416  0.00  0.00    +0.165 C 
BRANCH  26   1
ATOM      1  S   UNL     1      16.017  12.652  15.166  0.00  0.00    -0.140 S 
BRANCH   1  27
ATOM     27  C   UNL     1      15.031  12.040  13.777  0.00  0.00    +0.189 C 
BRANCH  27  29
ATOM      8  O   UNL     1      12.855  11.060  14.113  0.00  0.00    -0.250 OA
ATOM     29  C   UNL     1      13.578  12.048  14.155  0.00  0.00    +0.315 C 
BRANCH  29   7
ATOM      7  O   UNL     1      13.150  13.268  14.567  0.00  0.00    -0.480 OA
ATOM     32  H   UNL     1      12.670  13.218  15.421  0.00  0.00    +0.295 HD
ENDBRANCH  29   7
ENDBRANCH  27  29
ENDBRANCH   1  27
ENDBRANCH  26   1
ENDBRANCH  24  26
TORSDOF 9
ENDMDL
MODEL 4
REMARK VINA RESULT:      -5.6     27.559     29.326
REMARK  Name = 11912245
REMARK  10 active torsions:
REMARK  status: ('A' for Active; 'I' for Inactive)
REMARK    1  A    between atoms: S_1  and  C_26
REMARK    2  A    between atoms: S_1  and  C_27
REMARK    3  A    between atoms: O_6  and  C_25
REMARK    4  A    between atoms: O_6  and  C_28
REMARK    5  A    between atoms: O_7  and  C_29
REMARK    6  A    between atoms: N_11  and  C_17
REMARK    7  A    between atoms: C_13  and  C_18
REMARK    8  A    between atoms: C_21  and  C_25
REMARK    9  A    between atoms: C_24  and  C_26
REMARK   10  A    between atoms: C_27  and  C_29
REMARK                            x       y       z     vdW  Elec       q    Type
REMARK                         _______ _______ _______ _____ _____    ______ ____
ROOT
ATOM      3  O   UNL     1      -1.326 -11.763  14.902  0.00  0.00    -0.273 OA
ATOM      5  O   UNL     1      -6.372 -10.171  19.147  0.00  0.00    -0.275 OA
ATOM      9  N   UNL     1      -3.597 -11.695  15.405  0.00  0.00    -0.285 N 
ATOM     10  N   UNL     1      -5.655 -11.471  17.362  0.00  0.00    -0.297 N 
ATOM     13  C   UNL     1      -5.002 -11.875  14.999  0.00  0.00    +0.179 C 
ATOM     14  C   UNL     1      -5.915 -12.273  16.162  0.00  0.00    +0.139 C 
ATOM     15  C   UNL     1      -3.370 -10.949  16.650  0.00  0.00    +0.127 C 
ATOM     16  C   UNL     1      -4.255 -11.455  17.781  0.00  0.00    +0.127 C 
ATOM     21  C   UNL     1      -2.494 -12.043  14.619  0.00  0.00    +0.242 C 
ATOM     24  C   UNL     1      -6.616 -10.802  18.115  0.00  0.00    +0.226 C 
ENDROOT
BRANCH  13  18
ATOM      2  O   UNL     1      -5.763  -9.612  15.060  0.00  0.00    -0.274 OA
ATOM     11  N   UNL     1      -5.442 -10.637  12.995  0.00  0.00    -0.302 N 
ATOM     18  C   UNL     1      -5.437 -10.580  14.378  0.00  0.00    +0.236 C 
ATOM     30  H   UNL     1      -5.141 -11.492  12.535  0.00  0.00    +0.150 HD
BRANCH  11  17
ATOM      4  O   UNL     1      -8.047 -10.514  12.178  0.00  0.00    -0.274 OA
ATOM     12  N   UNL     1      -7.471  -9.311  10.324  0.00  0.00    -0.314 N 
ATOM     17  C   UNL     1      -5.842  -9.533  12.162  0.00  0.00    +0.159 C 
ATOM     19  C   UNL     1      -4.762  -9.206  11.140  0.00  0.00    +0.033 C 
ATOM     20  C   UNL     1      -5.282  -8.160  10.167  0.00  0.00    +0.021 C 
ATOM     22  C   UNL     1      -6.488  -8.718   9.436  0.00  0.00    +0.104 C 
ATOM     23  C   UNL     1      -7.200  -9.870  11.556  0.00  0.00    +0.233 C 
ATOM     31  H   UNL     1      -8.394  -9.481   9.936  0.00  0.00    +0.149 HD
ENDBRANCH  11  17
ENDBRANCH  13  18
BRANCH  21  25
ATOM     25  C   UNL     1      -2.779 -12.819  13.357  0.00  0.00    +0.255 C 
BRANCH  25   6
ATOM      6  O   UNL     1      -2.711 -11.898  12.295  0.00  0.00    -0.374 OA
ATOM     28  C   UNL     1      -3.175 -12.458  11.068  0.00  0.00    +0.194 C 
ENDBRANCH  25   6
ENDBRANCH  21  25
BRANCH  24  26
ATOM     26  C   UNL     1      -8.035 -10.867  17.609  0.00  0.00    +0.165 C 
BRANCH  26   1
ATOM      1  S   UNL     1      -8.580  -9.183  17.287  0.00  0.00    -0.140 S 
BRANCH   1  27
ATOM     27  C   UNL     1     -10.044  -9.549  16.289  0.00  0.00    +0.189 C 
BRANCH  27  29
ATOM      8  O   UNL     1     -10.731  -8.849  14.087  0.00  0.00    -0.250 OA
ATOM     29  C   UNL     1      -9.827  -9.060  14.887  0.00  0.00    +0.315 C 
BRANCH  29   7
ATOM      7  O   UNL     1      -8.517  -8.858  14.598  0.00  0.00    -0.480 OA
ATOM     32  H   UNL     1      -7.983  -9.669  14.734  0.00  0.00    +0.295 HD
ENDBRANCH  29   7
ENDBRANCH  27  29
ENDBRANCH   1  27
ENDBRANCH  26   1
ENDBRANCH  24  26
TORSDOF 9
ENDMDL
MODEL 5
REMARK VINA RESULT:      -5.5     27.263     29.314
REMARK  Name = 11912245
REMARK  10 active torsions:
REMARK  status: ('A' for Active; 'I' for Inactive)
REMARK    1  A    between atoms: S_1  and  C_26
REMARK    2  A    between atoms: S_1  and  C_27
REMARK    3  A    between atoms: O_6  and  C_25
REMARK    4  A    between atoms: O_6  and  C_28
REMARK    5  A    between atoms: O_7  and  C_29
REMARK    6  A    between atoms: N_11  and  C_17
REMARK    7  A    between atoms: C_13  and  C_18
REMARK    8  A    between atoms: C_21  and  C_25
REMARK    9  A    between atoms: C_24  and  C_26
REMARK   10  A    between atoms: C_27  and  C_29
REMARK                            x       y       z     vdW  Elec       q    Type
REMARK                         _______ _______ _______ _____ _____    ______ ____
ROOT
ATOM      3  O   UNL     1      -0.883 -11.341  15.234  0.00  0.00    -0.273 OA
ATOM      5  O   UNL     1      -6.831  -9.960  18.189  0.00  0.00    -0.275 OA
ATOM      9  N   UNL     1      -3.200 -11.536  15.297  0.00  0.00    -0.285 N 
ATOM     10  N   UNL     1      -5.622 -11.362  16.786  0.00  0.00    -0.297 N 
ATOM     13  C   UNL     1      -4.464 -11.966  14.673  0.00  0.00    +0.179 C 
ATOM     14  C   UNL     1      -5.540 -12.339  15.696  0.00  0.00    +0.139 C 
ATOM     15  C   UNL     1      -3.317 -10.612  16.433  0.00  0.00    +0.127 C 
ATOM     16  C   UNL     1      -4.347 -11.091  17.446  0.00  0.00    +0.127 C 
ATOM     21  C   UNL     1      -1.928 -11.819  14.788  0.00  0.00    +0.242 C 
ATOM     24  C   UNL     1      -6.787 -10.746  17.239  0.00  0.00    +0.226 C 
ENDROOT
BRANCH  13  18
ATOM      2  O   UNL     1      -5.568  -9.894  14.229  0.00  0.00    -0.274 OA
ATOM     11  N   UNL     1      -4.522 -11.012  12.475  0.00  0.00    -0.302 N 
ATOM     18  C   UNL     1      -4.913 -10.836  13.792  0.00  0.00    +0.236 C 
ATOM     30  H   UNL     1      -3.971 -11.829  12.228  0.00  0.00    +0.150 HD
BRANCH  11  17
ATOM      4  O   UNL     1      -6.818 -11.423  11.050  0.00  0.00    -0.274 OA
ATOM     12  N   UNL     1      -5.961 -10.326   9.240  0.00  0.00    -0.314 N 
ATOM     17  C   UNL     1      -4.847 -10.080  11.426  0.00  0.00    +0.159 C 
ATOM     19  C   UNL     1      -3.599  -9.673  10.656  0.00  0.00    +0.033 C 
ATOM     20  C   UNL     1      -3.994  -8.834   9.453  0.00  0.00    +0.021 C 
ATOM     22  C   UNL     1      -4.878  -9.662   8.539  0.00  0.00    +0.104 C 
ATOM     23  C   UNL     1      -5.940 -10.705  10.566  0.00  0.00    +0.233 C 
ATOM     31  H   UNL     1      -6.719 -10.690   8.670  0.00  0.00    +0.149 HD
ENDBRANCH  11  17
ENDBRANCH  13  18
BRANCH  21  25
ATOM     25  C   UNL     1      -1.862 -12.783  13.629  0.00  0.00    +0.255 C 
BRANCH  25   6
ATOM      6  O   UNL     1      -1.804 -14.075  14.185  0.00  0.00    -0.374 OA
ATOM     28  C   UNL     1      -1.776 -15.089  13.182  0.00  0.00    +0.194 C 
ENDBRANCH  25   6
ENDBRANCH  21  25
BRANCH  24  26
ATOM     26  C   UNL     1      -8.057 -11.079  16.498  0.00  0.00    +0.165 C 
BRANCH  26   1
ATOM      1  S   UNL     1      -9.333  -9.944  17.061  0.00  0.00    -0.140 S 
BRANCH   1  27
ATOM     27  C   UNL     1     -10.208 -11.048  18.197  0.00  0.00    +0.189 C 
BRANCH  27  29
ATOM      8  O   UNL     1     -11.118 -10.067  20.201  0.00  0.00    -0.250 OA
ATOM     29  C   UNL     1     -10.144 -10.487  19.587  0.00  0.00    +0.315 C 
BRANCH  29   7
ATOM      7  O   UNL     1      -8.890 -10.509  20.105  0.00  0.00    -0.480 OA
ATOM     32  H   UNL     1      -8.882 -10.825  21.033  0.00  0.00    +0.295 HD
ENDBRANCH  29   7
ENDBRANCH  27  29
ENDBRANCH   1  27
ENDBRANCH  26   1
ENDBRANCH  24  26
TORSDOF 9
ENDMDL
MODEL 6
REMARK VINA RESULT:      -5.5     28.370     31.172
REMARK  Name = 11912245
REMARK  10 active torsions:
REMARK  status: ('A' for Active; 'I' for Inactive)
REMARK    1  A    between atoms: S_1  and  C_26
REMARK    2  A    between atoms: S_1  and  C_27
REMARK    3  A    between atoms: O_6  and  C_25
REMARK    4  A    between atoms: O_6  and  C_28
REMARK    5  A    between atoms: O_7  and  C_29
REMARK    6  A    between atoms: N_11  and  C_17
REMARK    7  A    between atoms: C_13  and  C_18
REMARK    8  A    between atoms: C_21  and  C_25
REMARK    9  A    between atoms: C_24  and  C_26
REMARK   10  A    between atoms: C_27  and  C_29
REMARK                            x       y       z     vdW  Elec       q    Type
REMARK                         _______ _______ _______ _____ _____    ______ ____
ROOT
ATOM      3  O   UNL     1     -18.406   2.661  20.842  0.00  0.00    -0.273 OA
ATOM      5  O   UNL     1     -16.392   0.636  26.995  0.00  0.00    -0.275 OA
ATOM      9  N   UNL     1     -17.823   3.153  23.040  0.00  0.00    -0.285 N 
ATOM     10  N   UNL     1     -17.448   2.264  25.720  0.00  0.00    -0.297 N 
ATOM     13  C   UNL     1     -17.526   4.140  24.092  0.00  0.00    +0.179 C 
ATOM     14  C   UNL     1     -17.887   3.646  25.496  0.00  0.00    +0.139 C 
ATOM     15  C   UNL     1     -17.437   1.764  23.323  0.00  0.00    +0.127 C 
ATOM     16  C   UNL     1     -17.901   1.319  24.702  0.00  0.00    +0.127 C 
ATOM     21  C   UNL     1     -18.292   3.474  21.762  0.00  0.00    +0.242 C 
ATOM     24  C   UNL     1     -16.708   1.814  26.811  0.00  0.00    +0.226 C 
ENDROOT
BRANCH  13  18
ATOM      2  O   UNL     1     -15.208   3.773  24.540  0.00  0.00    -0.274 OA
ATOM     11  N   UNL     1     -15.826   5.586  23.217  0.00  0.00    -0.302 N 
ATOM     18  C   UNL     1     -16.062   4.456  23.982  0.00  0.00    +0.236 C 
ATOM     30  H   UNL     1     -16.614   6.069  22.794  0.00  0.00    +0.150 HD
BRANCH  11  17
ATOM      4  O   UNL     1     -15.492   8.298  23.276  0.00  0.00    -0.274 OA
ATOM     12  N   UNL     1     -13.688   8.165  21.881  0.00  0.00    -0.314 N 
ATOM     17  C   UNL     1     -14.508   6.114  22.977  0.00  0.00    +0.159 C 
ATOM     19  C   UNL     1     -13.807   5.337  21.872  0.00  0.00    +0.033 C 
ATOM     20  C   UNL     1     -12.496   6.022  21.521  0.00  0.00    +0.021 C 
ATOM     22  C   UNL     1     -12.788   7.423  21.017  0.00  0.00    +0.104 C 
ATOM     23  C   UNL     1     -14.643   7.608  22.706  0.00  0.00    +0.233 C 
ATOM     31  H   UNL     1     -13.733   9.170  21.739  0.00  0.00    +0.149 HD
ENDBRANCH  11  17
ENDBRANCH  13  18
BRANCH  21  25
ATOM     25  C   UNL     1     -18.687   4.911  21.527  0.00  0.00    +0.255 C 
BRANCH  25   6
ATOM      6  O   UNL     1     -17.601   5.523  20.873  0.00  0.00    -0.374 OA
ATOM     28  C   UNL     1     -17.894   6.866  20.490  0.00  0.00    +0.194 C 
ENDBRANCH  25   6
ENDBRANCH  21  25
BRANCH  24  26
ATOM     26  C   UNL     1     -16.279   2.858  27.811  0.00  0.00    +0.165 C 
BRANCH  26   1
ATOM      1  S   UNL     1     -16.471   2.153  29.455  0.00  0.00    -0.140 S 
BRANCH   1  27
ATOM     27  C   UNL     1     -14.723   1.948  29.877  0.00  0.00    +0.189 C 
BRANCH  27  29
ATOM      8  O   UNL     1     -15.236  -0.405  29.961  0.00  0.00    -0.250 OA
ATOM     29  C   UNL     1     -14.395   0.485  29.947  0.00  0.00    +0.315 C 
BRANCH  29   7
ATOM      7  O   UNL     1     -13.059   0.247  29.978  0.00  0.00    -0.480 OA
ATOM     32  H   UNL     1     -12.859  -0.711  30.017  0.00  0.00    +0.295 HD
ENDBRANCH  29   7
ENDBRANCH  27  29
ENDBRANCH   1  27
ENDBRANCH  26   1
ENDBRANCH  24  26
TORSDOF 9
ENDMDL
MODEL 7
REMARK VINA RESULT:      -5.3     14.919     18.718
REMARK  Name = 11912245
REMARK  10 active torsions:
REMARK  status: ('A' for Active; 'I' for Inactive)
REMARK    1  A    between atoms: S_1  and  C_26
REMARK    2  A    between atoms: S_1  and  C_27
REMARK    3  A    between atoms: O_6  and  C_25
REMARK    4  A    between atoms: O_6  and  C_28
REMARK    5  A    between atoms: O_7  and  C_29
REMARK    6  A    between atoms: N_11  and  C_17
REMARK    7  A    between atoms: C_13  and  C_18
REMARK    8  A    between atoms: C_21  and  C_25
REMARK    9  A    between atoms: C_24  and  C_26
REMARK   10  A    between atoms: C_27  and  C_29
REMARK                            x       y       z     vdW  Elec       q    Type
REMARK                         _______ _______ _______ _____ _____    ______ ____
ROOT
ATOM      3  O   UNL     1       8.854  11.801   4.153  0.00  0.00    -0.273 OA
ATOM      5  O   UNL     1      13.295   7.254   1.782  0.00  0.00    -0.275 OA
ATOM      9  N   UNL     1       9.473   9.590   3.773  0.00  0.00    -0.285 N 
ATOM     10  N   UNL     1      11.096   7.721   2.363  0.00  0.00    -0.297 N 
ATOM     13  C   UNL     1       9.238   8.148   3.957  0.00  0.00    +0.179 C 
ATOM     14  C   UNL     1       9.756   7.303   2.790  0.00  0.00    +0.139 C 
ATOM     15  C   UNL     1      10.801   9.974   3.277  0.00  0.00    +0.127 C 
ATOM     16  C   UNL     1      11.213   9.147   2.067  0.00  0.00    +0.127 C 
ATOM     21  C   UNL     1       8.591  10.596   4.181  0.00  0.00    +0.242 C 
ATOM     24  C   UNL     1      12.191   6.879   2.185  0.00  0.00    +0.226 C 
ENDROOT
BRANCH  13  18
ATOM      2  O   UNL     1      10.675   8.524   5.827  0.00  0.00    -0.274 OA
ATOM     11  N   UNL     1       9.555   6.491   5.659  0.00  0.00    -0.302 N 
ATOM     18  C   UNL     1       9.902   7.766   5.248  0.00  0.00    +0.236 C 
ATOM     30  H   UNL     1       8.895   5.955   5.102  0.00  0.00    +0.150 HD
BRANCH  11  17
ATOM      4  O   UNL     1      10.122   3.818   5.601  0.00  0.00    -0.274 OA
ATOM     12  N   UNL     1       9.810   3.642   7.856  0.00  0.00    -0.314 N 
ATOM     17  C   UNL     1      10.075   5.880   6.855  0.00  0.00    +0.159 C 
ATOM     19  C   UNL     1       9.378   6.430   8.091  0.00  0.00    +0.033 C 
ATOM     20  C   UNL     1       9.819   5.645   9.316  0.00  0.00    +0.021 C 
ATOM     22  C   UNL     1       9.422   4.190   9.143  0.00  0.00    +0.104 C 
ATOM     23  C   UNL     1       9.968   4.367   6.693  0.00  0.00    +0.233 C 
ATOM     31  H   UNL     1       9.795   2.630   7.768  0.00  0.00    +0.149 HD
ENDBRANCH  11  17
ENDBRANCH  13  18
BRANCH  21  25
ATOM     25  C   UNL     1       7.236  10.150   4.672  0.00  0.00    +0.255 C 
BRANCH  25   6
ATOM      6  O   UNL     1       6.295  10.633   3.744  0.00  0.00    -0.374 OA
ATOM     28  C   UNL     1       5.195  11.279   4.383  0.00  0.00    +0.194 C 
ENDBRANCH  25   6
ENDBRANCH  21  25
BRANCH  24  26
ATOM     26  C   UNL     1      11.983   5.423   2.518  0.00  0.00    +0.165 C 
BRANCH  26   1
ATOM      1  S   UNL     1      12.065   4.492   0.981  0.00  0.00    -0.140 S 
BRANCH   1  27
ATOM     27  C   UNL     1      13.239   3.213   1.492  0.00  0.00    +0.189 C 
BRANCH  27  29
ATOM      8  O   UNL     1      14.995   4.624   0.637  0.00  0.00    -0.250 OA
ATOM     29  C   UNL     1      14.635   3.762   1.429  0.00  0.00    +0.315 C 
BRANCH  29   7
ATOM      7  O   UNL     1      15.458   3.211   2.356  0.00  0.00    -0.480 OA
ATOM     32  H   UNL     1      16.023   2.508   1.973  0.00  0.00    +0.295 HD
ENDBRANCH  29   7
ENDBRANCH  27  29
ENDBRANCH   1  27
ENDBRANCH  26   1
ENDBRANCH  24  26
TORSDOF 9
ENDMDL
MODEL 8
REMARK VINA RESULT:      -5.3     20.398     22.450
REMARK  Name = 11912245
REMARK  10 active torsions:
REMARK  status: ('A' for Active; 'I' for Inactive)
REMARK    1  A    between atoms: S_1  and  C_26
REMARK    2  A    between atoms: S_1  and  C_27
REMARK    3  A    between atoms: O_6  and  C_25
REMARK    4  A    between atoms: O_6  and  C_28
REMARK    5  A    between atoms: O_7  and  C_29
REMARK    6  A    between atoms: N_11  and  C_17
REMARK    7  A    between atoms: C_13  and  C_18
REMARK    8  A    between atoms: C_21  and  C_25
REMARK    9  A    between atoms: C_24  and  C_26
REMARK   10  A    between atoms: C_27  and  C_29
REMARK                            x       y       z     vdW  Elec       q    Type
REMARK                         _______ _______ _______ _____ _____    ______ ____
ROOT
ATOM      3  O   UNL     1       2.082  15.012  35.023  0.00  0.00    -0.273 OA
ATOM      5  O   UNL     1      -3.700  13.305  31.913  0.00  0.00    -0.275 OA
ATOM      9  N   UNL     1      -0.046  14.072  35.088  0.00  0.00    -0.285 N 
ATOM     10  N   UNL     1      -2.625  13.794  33.912  0.00  0.00    -0.297 N 
ATOM     13  C   UNL     1      -1.090  13.323  35.808  0.00  0.00    +0.179 C 
ATOM     14  C   UNL     1      -2.508  13.702  35.372  0.00  0.00    +0.139 C 
ATOM     15  C   UNL     1      -0.227  14.209  33.637  0.00  0.00    +0.127 C 
ATOM     16  C   UNL     1      -1.636  14.667  33.285  0.00  0.00    +0.127 C 
ATOM     21  C   UNL     1       1.153  14.511  35.661  0.00  0.00    +0.242 C 
ATOM     24  C   UNL     1      -3.600  13.173  33.135  0.00  0.00    +0.226 C 
ENDROOT
BRANCH  13  18
ATOM      2  O   UNL     1      -0.057  11.488  34.681  0.00  0.00    -0.274 OA
ATOM     11  N   UNL     1      -1.517  11.051  36.441  0.00  0.00    -0.302 N 
ATOM     18  C   UNL     1      -0.813  11.867  35.571  0.00  0.00    +0.236 C 
ATOM     30  H   UNL     1      -2.109  11.478  37.148  0.00  0.00    +0.150 HD
BRANCH  11  17
ATOM      4  O   UNL     1      -3.837   9.649  36.096  0.00  0.00    -0.274 OA
ATOM     12  N   UNL     1      -2.967   7.829  37.166  0.00  0.00    -0.314 N 
ATOM     17  C   UNL     1      -1.444   9.614  36.406  0.00  0.00    +0.159 C 
ATOM     19  C   UNL     1      -0.449   9.096  37.436  0.00  0.00    +0.033 C 
ATOM     20  C   UNL     1      -0.524   7.579  37.497  0.00  0.00    +0.021 C 
ATOM     22  C   UNL     1      -1.920   7.167  37.923  0.00  0.00    +0.104 C 
ATOM     23  C   UNL     1      -2.858   9.068  36.567  0.00  0.00    +0.233 C 
ATOM     31  H   UNL     1      -3.898   7.430  37.228  0.00  0.00    +0.149 HD
ENDBRANCH  11  17
ENDBRANCH  13  18
BRANCH  21  25
ATOM     25  C   UNL     1       1.284  14.359  37.156  0.00  0.00    +0.255 C 
BRANCH  25   6
ATOM      6  O   UNL     1       2.238  13.347  37.374  0.00  0.00    -0.374 OA
ATOM     28  C   UNL     1       3.251  13.753  38.292  0.00  0.00    +0.194 C 
ENDBRANCH  25   6
ENDBRANCH  21  25
BRANCH  24  26
ATOM     26  C   UNL     1      -4.579  12.286  33.864  0.00  0.00    +0.165 C 
BRANCH  26   1
ATOM      1  S   UNL     1      -6.082  13.236  34.134  0.00  0.00    -0.140 S 
BRANCH   1  27
ATOM     27  C   UNL     1      -7.180  12.351  33.000  0.00  0.00    +0.189 C 
BRANCH  27  29
ATOM      8  O   UNL     1      -7.677  14.009  31.323  0.00  0.00    -0.250 OA
ATOM     29  C   UNL     1      -7.099  12.975  31.638  0.00  0.00    +0.315 C 
BRANCH  29   7
ATOM      7  O   UNL     1      -6.300  12.281  30.789  0.00  0.00    -0.480 OA
ATOM     32  H   UNL     1      -6.126  11.372  31.112  0.00  0.00    +0.295 HD
ENDBRANCH  29   7
ENDBRANCH  27  29
ENDBRANCH   1  27
ENDBRANCH  26   1
ENDBRANCH  24  26
TORSDOF 9
ENDMDL
MODEL 9
REMARK VINA RESULT:      -5.2     14.563     17.400
REMARK  Name = 11912245
REMARK  10 active torsions:
REMARK  status: ('A' for Active; 'I' for Inactive)
REMARK    1  A    between atoms: S_1  and  C_26
REMARK    2  A    between atoms: S_1  and  C_27
REMARK    3  A    between atoms: O_6  and  C_25
REMARK    4  A    between atoms: O_6  and  C_28
REMARK    5  A    between atoms: O_7  and  C_29
REMARK    6  A    between atoms: N_11  and  C_17
REMARK    7  A    between atoms: C_13  and  C_18
REMARK    8  A    between atoms: C_21  and  C_25
REMARK    9  A    between atoms: C_24  and  C_26
REMARK   10  A    between atoms: C_27  and  C_29
REMARK                            x       y       z     vdW  Elec       q    Type
REMARK                         _______ _______ _______ _____ _____    ______ ____
ROOT
ATOM      3  O   UNL     1      18.425  10.214   4.019  0.00  0.00    -0.273 OA
ATOM      5  O   UNL     1      12.128   9.585   6.463  0.00  0.00    -0.275 OA
ATOM      9  N   UNL     1      16.628   8.878   4.651  0.00  0.00    -0.285 N 
ATOM     10  N   UNL     1      14.197   8.592   6.108  0.00  0.00    -0.297 N 
ATOM     13  C   UNL     1      15.982   7.557   4.724  0.00  0.00    +0.179 C 
ATOM     14  C   UNL     1      15.049   7.411   5.930  0.00  0.00    +0.139 C 
ATOM     15  C   UNL     1      15.764  10.039   4.905  0.00  0.00    +0.127 C 
ATOM     16  C   UNL     1      14.927   9.856   6.164  0.00  0.00    +0.127 C 
ATOM     21  C   UNL     1      17.937   9.098   4.211  0.00  0.00    +0.242 C 
ATOM     24  C   UNL     1      12.813   8.578   6.270  0.00  0.00    +0.226 C 
ENDROOT
BRANCH  13  18
ATOM      2  O   UNL     1      14.842   8.324   2.769  0.00  0.00    -0.274 OA
ATOM     11  N   UNL     1      15.059   6.033   3.120  0.00  0.00    -0.302 N 
ATOM     18  C   UNL     1      15.241   7.370   3.432  0.00  0.00    +0.236 C 
ATOM     30  H   UNL     1      15.442   5.325   3.740  0.00  0.00    +0.150 HD
BRANCH  11  17
ATOM      4  O   UNL     1      12.326   6.043   3.165  0.00  0.00    -0.274 OA
ATOM     12  N   UNL     1      12.236   4.377   1.605  0.00  0.00    -0.314 N 
ATOM     17  C   UNL     1      14.358   5.586   1.945  0.00  0.00    +0.159 C 
ATOM     19  C   UNL     1      15.053   4.382   1.325  0.00  0.00    +0.033 C 
ATOM     20  C   UNL     1      14.199   3.827   0.196  0.00  0.00    +0.021 C 
ATOM     22  C   UNL     1      12.863   3.379   0.758  0.00  0.00    +0.104 C 
ATOM     23  C   UNL     1      12.903   5.344   2.330  0.00  0.00    +0.233 C 
ATOM     31  H   UNL     1      11.250   4.246   1.813  0.00  0.00    +0.149 HD
ENDBRANCH  11  17
ENDBRANCH  13  18
BRANCH  21  25
ATOM     25  C   UNL     1      18.787   7.873   3.977  0.00  0.00    +0.255 C 
BRANCH  25   6
ATOM      6  O   UNL     1      19.730   7.833   5.020  0.00  0.00    -0.374 OA
ATOM     28  C   UNL     1      20.797   6.927   4.744  0.00  0.00    +0.194 C 
ENDBRANCH  25   6
ENDBRANCH  21  25
BRANCH  24  26
ATOM     26  C   UNL     1      12.140   7.230   6.195  0.00  0.00    +0.165 C 
BRANCH  26   1
ATOM      1  S   UNL     1      10.670   7.295   7.229  0.00  0.00    -0.140 S 
BRANCH   1  27
ATOM     27  C   UNL     1      10.067   5.609   6.964  0.00  0.00    +0.189 C 
BRANCH  27  29
ATOM      8  O   UNL     1       9.132   5.468   9.181  0.00  0.00    -0.250 OA
ATOM     29  C   UNL     1       9.803   4.959   8.291  0.00  0.00    +0.315 C 
BRANCH  29   7
ATOM      7  O   UNL     1      10.376   3.734   8.398  0.00  0.00    -0.480 OA
ATOM     32  H   UNL     1      11.022   3.567   7.680  0.00  0.00    +0.295 HD
ENDBRANCH  29   7
ENDBRANCH  27  29
ENDBRANCH   1  27
ENDBRANCH  26   1
ENDBRANCH  24  26
TORSDOF 9
ENDMDL
MODEL 10
REMARK VINA RESULT:      -5.2     13.990     17.864
REMARK  Name = 11912245
REMARK  10 active torsions:
REMARK  status: ('A' for Active; 'I' for Inactive)
REMARK    1  A    between atoms: S_1  and  C_26
REMARK    2  A    between atoms: S_1  and  C_27
REMARK    3  A    between atoms: O_6  and  C_25
REMARK    4  A    between atoms: O_6  and  C_28
REMARK    5  A    between atoms: O_7  and  C_29
REMARK    6  A    between atoms: N_11  and  C_17
REMARK    7  A    between atoms: C_13  and  C_18
REMARK    8  A    between atoms: C_21  and  C_25
REMARK    9  A    between atoms: C_24  and  C_26
REMARK   10  A    between atoms: C_27  and  C_29
REMARK                            x       y       z     vdW  Elec       q    Type
REMARK                         _______ _______ _______ _____ _____    ______ ____
ROOT
ATOM      3  O   UNL     1      14.636  10.404   1.826  0.00  0.00    -0.273 OA
ATOM      5  O   UNL     1      10.806   8.755   7.177  0.00  0.00    -0.275 OA
ATOM      9  N   UNL     1      13.964   8.857   3.429  0.00  0.00    -0.285 N 
ATOM     10  N   UNL     1      12.724   8.330   5.939  0.00  0.00    -0.297 N 
ATOM     13  C   UNL     1      13.984   7.487   3.970  0.00  0.00    +0.179 C 
ATOM     14  C   UNL     1      13.801   7.440   5.490  0.00  0.00    +0.139 C 
ATOM     15  C   UNL     1      12.919   9.747   3.951  0.00  0.00    +0.127 C 
ATOM     16  C   UNL     1      12.851   9.709   5.472  0.00  0.00    +0.127 C 
ATOM     21  C   UNL     1      14.756   9.301   2.365  0.00  0.00    +0.242 C 
ATOM     24  C   UNL     1      11.673   7.972   6.780  0.00  0.00    +0.226 C 
ENDROOT
BRANCH  13  18
ATOM      2  O   UNL     1      11.710   6.997   3.429  0.00  0.00    -0.274 OA
ATOM     11  N   UNL     1      13.398   5.726   2.455  0.00  0.00    -0.302 N 
ATOM     18  C   UNL     1      12.897   6.732   3.263  0.00  0.00    +0.236 C 
ATOM     30  H   UNL     1      14.405   5.603   2.387  0.00  0.00    +0.150 HD
BRANCH  11  17
ATOM      4  O   UNL     1      14.317   3.204   1.937  0.00  0.00    -0.274 OA
ATOM     12  N   UNL     1      13.044   3.065   0.046  0.00  0.00    -0.314 N 
ATOM     17  C   UNL     1      12.561   4.841   1.687  0.00  0.00    +0.159 C 
ATOM     19  C   UNL     1      11.875   5.593   0.554  0.00  0.00    +0.033 C 
ATOM     20  C   UNL     1      11.143   4.606  -0.340  0.00  0.00    +0.021 C 
ATOM     22  C   UNL     1      12.146   3.638  -0.939  0.00  0.00    +0.104 C 
ATOM     23  C   UNL     1      13.415   3.663   1.233  0.00  0.00    +0.233 C 
ATOM     31  H   UNL     1      13.569   2.243  -0.238  0.00  0.00    +0.149 HD
ENDBRANCH  11  17
ENDBRANCH  13  18
BRANCH  21  25
ATOM     25  C   UNL     1      15.823   8.354   1.874  0.00  0.00    +0.255 C 
BRANCH  25   6
ATOM      6  O   UNL     1      17.060   8.936   2.208  0.00  0.00    -0.374 OA
ATOM     28  C   UNL     1      17.608   8.383   3.403  0.00  0.00    +0.194 C 
ENDBRANCH  25   6
ENDBRANCH  21  25
BRANCH  24  26
ATOM     26  C   UNL     1      11.616   6.528   7.211  0.00  0.00    +0.165 C 
BRANCH  26   1
ATOM      1  S   UNL     1       9.938   5.941   6.941  0.00  0.00    -0.140 S 
BRANCH   1  27
ATOM     27  C   UNL     1       9.374   5.907   8.660  0.00  0.00    +0.189 C 
BRANCH  27  29
ATOM      8  O   UNL     1       9.905   4.497  10.541  0.00  0.00    -0.250 OA
ATOM     29  C   UNL     1       9.882   4.662   9.327  0.00  0.00    +0.315 C 
BRANCH  29   7
ATOM      7  O   UNL     1      10.303   3.726   8.440  0.00  0.00    -0.480 OA
ATOM     32  H   UNL     1      11.280   3.708   8.363  0.00  0.00    +0.295 HD
ENDBRANCH  29   7
ENDBRANCH  27  29
ENDBRANCH   1  27
ENDBRANCH  26   1
ENDBRANCH  24  26
TORSDOF 9
ENDMDL
