MODEL 1
REMARK VINA RESULT:      -6.7      0.000      0.000
REMARK  Name = 28959943
REMARK  11 active torsions:
REMARK  status: ('A' for Active; 'I' for Inactive)
REMARK    1  A    between atoms: O_3  and  C_22
REMARK    2  A    between atoms: N_6  and  C_16
REMARK    3  A    between atoms: N_7  and  C_24
REMARK    4  A    between atoms: N_8  and  C_31
REMARK    5  A    between atoms: N_8  and  C_35
REMARK    6  A    between atoms: N_8  and  C_36
REMARK    7  A    between atoms: C_9  and  C_13
REMARK    8  A    between atoms: C_10  and  C_15
REMARK    9  A    between atoms: C_13  and  C_16
REMARK   10  A    between atoms: C_15  and  C_22
REMARK   11  A    between atoms: C_19  and  C_23
REMARK                            x       y       z     vdW  Elec       q    Type
REMARK                         _______ _______ _______ _____ _____    ______ ____
ROOT
ATOM      2  O   UNL     1      -6.709 -11.811  20.449  0.00  0.00    -0.270 OA
ATOM      5  N   UNL     1      -8.530 -11.884  18.981  0.00  0.00    -0.297 N 
ATOM      9  C   UNL     1     -10.135 -10.715  17.487  0.00  0.00    +0.011 C 
ATOM     10  C   UNL     1     -11.214 -10.869  18.589  0.00  0.00    +0.006 C 
ATOM     11  C   UNL     1      -9.084 -11.832  17.621  0.00  0.00    +0.112 C 
ATOM     12  C   UNL     1     -10.582 -10.967  19.989  0.00  0.00    +0.023 C 
ATOM     14  C   UNL     1      -9.521 -12.062  20.040  0.00  0.00    +0.108 C 
ATOM     19  C   UNL     1      -7.177 -11.774  19.312  0.00  0.00    +0.247 C 
ENDROOT
BRANCH  19  23
ATOM     23  C   UNL     1      -6.212 -11.595  18.221  0.00  0.00    +0.037 A 
ATOM     25  C   UNL     1      -5.895 -10.313  17.774  0.00  0.00    +0.015 A 
ATOM     26  C   UNL     1      -5.614 -12.708  17.632  0.00  0.00    +0.015 A 
ATOM     29  C   UNL     1      -4.978 -10.143  16.736  0.00  0.00    +0.024 A 
ATOM     30  C   UNL     1      -4.696 -12.539  16.594  0.00  0.00    +0.024 A 
ATOM     31  C   UNL     1      -4.378 -11.256  16.147  0.00  0.00    +0.029 A 
BRANCH  31   8
ATOM      8  N   UNL     1      -3.450 -11.086  15.098  0.00  0.00    -0.336 N 
ATOM     35  C   UNL     1      -3.907 -10.794  13.755  0.00  0.00    +0.129 C 
ATOM     36  C   UNL     1      -2.027 -11.207  15.350  0.00  0.00    +0.129 C 
ENDBRANCH  31   8
ENDBRANCH  19  23
BRANCH   9  13
ATOM     13  C   UNL     1      -9.453  -9.341  17.472  0.00  0.00    +0.020 C 
BRANCH  13  16
ATOM     16  C   UNL     1      -9.299  -8.825  16.049  0.00  0.00    +0.085 C 
BRANCH  16   6
ATOM      6  N   UNL     1     -10.486  -8.065  15.663  0.00  0.00    -0.299 NA
ATOM      7  N   UNL     1     -11.992  -6.173  14.144  0.00  0.00    -0.327 N 
ATOM     17  C   UNL     1     -10.254  -6.626  15.831  0.00  0.00    +0.103 C 
ATOM     18  C   UNL     1     -10.854  -8.354  14.272  0.00  0.00    +0.103 C 
ATOM     20  C   UNL     1     -11.509  -5.822  15.485  0.00  0.00    +0.120 C 
ATOM     21  C   UNL     1     -12.130  -7.607  13.874  0.00  0.00    +0.120 C 
BRANCH   7  24
ATOM      1  F   UNL     1     -15.274  -2.565  11.540  0.00  0.00    -0.205 F 
ATOM     24  C   UNL     1     -12.824  -5.260  13.484  0.00  0.00    +0.030 A 
ATOM     27  C   UNL     1     -14.205  -5.327  13.654  0.00  0.00    +0.026 A 
ATOM     28  C   UNL     1     -12.268  -4.282  12.658  0.00  0.00    +0.026 A 
ATOM     32  C   UNL     1     -15.034  -4.417  12.997  0.00  0.00    +0.040 A 
ATOM     33  C   UNL     1     -13.096  -3.373  12.001  0.00  0.00    +0.040 A 
ATOM     34  C   UNL     1     -14.479  -3.440  12.171  0.00  0.00    +0.124 A 
ENDBRANCH   7  24
ENDBRANCH  16   6
ENDBRANCH  13  16
ENDBRANCH   9  13
BRANCH  10  15
ATOM     15  C   UNL     1     -12.273  -9.769  18.553  0.00  0.00    +0.124 C 
BRANCH  15  22
ATOM      4  O   UNL     1     -13.546 -10.868  16.788  0.00  0.00    -0.251 OA
ATOM     22  C   UNL     1     -13.117  -9.851  17.310  0.00  0.00    +0.305 C 
BRANCH  22   3
ATOM      3  O   UNL     1     -13.346  -8.601  16.830  0.00  0.00    -0.481 OA
ATOM     37  H   UNL     1     -12.581  -8.261  16.319  0.00  0.00    +0.295 HD
ENDBRANCH  22   3
ENDBRANCH  15  22
ENDBRANCH  10  15
TORSDOF 9
ENDMDL
MODEL 2
REMARK VINA RESULT:      -6.7      4.670      7.675
REMARK  Name = 28959943
REMARK  11 active torsions:
REMARK  status: ('A' for Active; 'I' for Inactive)
REMARK    1  A    between atoms: O_3  and  C_22
REMARK    2  A    between atoms: N_6  and  C_16
REMARK    3  A    between atoms: N_7  and  C_24
REMARK    4  A    between atoms: N_8  and  C_31
REMARK    5  A    between atoms: N_8  and  C_35
REMARK    6  A    between atoms: N_8  and  C_36
REMARK    7  A    between atoms: C_9  and  C_13
REMARK    8  A    between atoms: C_10  and  C_15
REMARK    9  A    between atoms: C_13  and  C_16
REMARK   10  A    between atoms: C_15  and  C_22
REMARK   11  A    between atoms: C_19  and  C_23
REMARK                            x       y       z     vdW  Elec       q    Type
REMARK                         _______ _______ _______ _____ _____    ______ ____
ROOT
ATOM      2  O   UNL     1      -1.353  -9.903  12.521  0.00  0.00    -0.270 OA
ATOM      5  N   UNL     1      -2.685 -11.244  13.901  0.00  0.00    -0.297 N 
ATOM      9  C   UNL     1      -4.659 -11.505  15.388  0.00  0.00    +0.011 C 
ATOM     10  C   UNL     1      -3.699 -11.472  16.605  0.00  0.00    +0.006 C 
ATOM     11  C   UNL     1      -3.911 -12.016  14.143  0.00  0.00    +0.112 C 
ATOM     12  C   UNL     1      -2.410 -10.694  16.287  0.00  0.00    +0.023 C 
ATOM     14  C   UNL     1      -1.744 -11.221  15.020  0.00  0.00    +0.108 C 
ATOM     19  C   UNL     1      -2.376 -10.555  12.726  0.00  0.00    +0.247 C 
ENDROOT
BRANCH  19  23
ATOM     23  C   UNL     1      -3.345 -10.599  11.625  0.00  0.00    +0.037 A 
ATOM     25  C   UNL     1      -3.332 -11.667  10.727  0.00  0.00    +0.015 A 
ATOM     26  C   UNL     1      -4.277  -9.573  11.475  0.00  0.00    +0.015 A 
ATOM     29  C   UNL     1      -4.254 -11.709   9.681  0.00  0.00    +0.024 A 
ATOM     30  C   UNL     1      -5.198  -9.614  10.429  0.00  0.00    +0.024 A 
ATOM     31  C   UNL     1      -5.186 -10.683   9.532  0.00  0.00    +0.029 A 
BRANCH  31   8
ATOM      8  N   UNL     1      -6.118 -10.725   8.473  0.00  0.00    -0.336 N 
ATOM     35  C   UNL     1      -5.911  -9.928   7.281  0.00  0.00    +0.129 C 
ATOM     36  C   UNL     1      -7.299 -11.560   8.568  0.00  0.00    +0.129 C 
ENDBRANCH  31   8
ENDBRANCH  19  23
BRANCH   9  13
ATOM     13  C   UNL     1      -5.331 -10.158  15.090  0.00  0.00    +0.020 C 
BRANCH  13  16
ATOM     16  C   UNL     1      -6.591 -10.352  14.259  0.00  0.00    +0.085 C 
BRANCH  16   6
ATOM      6  N   UNL     1      -7.761  -9.914  15.018  0.00  0.00    -0.299 NA
ATOM      7  N   UNL     1      -9.686 -10.006  17.126  0.00  0.00    -0.327 N 
ATOM     17  C   UNL     1      -8.783 -10.967  15.044  0.00  0.00    +0.103 C 
ATOM     18  C   UNL     1      -7.379  -9.554  16.389  0.00  0.00    +0.103 C 
ATOM     20  C   UNL     1     -10.036 -10.500  15.788  0.00  0.00    +0.120 C 
ATOM     21  C   UNL     1      -8.586  -9.039  17.179  0.00  0.00    +0.120 C 
BRANCH   7  24
ATOM      1  F   UNL     1     -13.671  -9.838  20.955  0.00  0.00    -0.205 F 
ATOM     24  C   UNL     1     -10.695  -9.963  18.096  0.00  0.00    +0.030 A 
ATOM     27  C   UNL     1     -11.989  -9.589  17.738  0.00  0.00    +0.026 A 
ATOM     28  C   UNL     1     -10.404 -10.296  19.419  0.00  0.00    +0.026 A 
ATOM     32  C   UNL     1     -12.995  -9.546  18.704  0.00  0.00    +0.040 A 
ATOM     33  C   UNL     1     -11.410 -10.253  20.385  0.00  0.00    +0.040 A 
ATOM     34  C   UNL     1     -12.705  -9.878  20.027  0.00  0.00    +0.124 A 
ENDBRANCH   7  24
ENDBRANCH  16   6
ENDBRANCH  13  16
ENDBRANCH   9  13
BRANCH  10  15
ATOM     15  C   UNL     1      -4.354 -10.933  17.874  0.00  0.00    +0.124 C 
BRANCH  15  22
ATOM      4  O   UNL     1      -3.333 -12.172  19.708  0.00  0.00    -0.251 OA
ATOM     22  C   UNL     1      -4.296 -11.931  18.997  0.00  0.00    +0.305 C 
BRANCH  22   3
ATOM      3  O   UNL     1      -5.498 -12.552  19.120  0.00  0.00    -0.481 OA
ATOM     37  H   UNL     1      -5.399 -13.523  19.220  0.00  0.00    +0.295 HD
ENDBRANCH  22   3
ENDBRANCH  15  22
ENDBRANCH  10  15
TORSDOF 9
ENDMDL
MODEL 3
REMARK VINA RESULT:      -6.5      4.462      7.671
REMARK  Name = 28959943
REMARK  11 active torsions:
REMARK  status: ('A' for Active; 'I' for Inactive)
REMARK    1  A    between atoms: O_3  and  C_22
REMARK    2  A    between atoms: N_6  and  C_16
REMARK    3  A    between atoms: N_7  and  C_24
REMARK    4  A    between atoms: N_8  and  C_31
REMARK    5  A    between atoms: N_8  and  C_35
REMARK    6  A    between atoms: N_8  and  C_36
REMARK    7  A    between atoms: C_9  and  C_13
REMARK    8  A    between atoms: C_10  and  C_15
REMARK    9  A    between atoms: C_13  and  C_16
REMARK   10  A    between atoms: C_15  and  C_22
REMARK   11  A    between atoms: C_19  and  C_23
REMARK                            x       y       z     vdW  Elec       q    Type
REMARK                         _______ _______ _______ _____ _____    ______ ____
ROOT
ATOM      2  O   UNL     1      -8.770 -11.772  17.918  0.00  0.00    -0.270 OA
ATOM      5  N   UNL     1      -6.820 -10.609  17.351  0.00  0.00    -0.297 N 
ATOM      9  C   UNL     1      -5.086 -10.006  15.676  0.00  0.00    +0.011 C 
ATOM     10  C   UNL     1      -4.114 -10.982  16.388  0.00  0.00    +0.006 C 
ATOM     11  C   UNL     1      -6.142  -9.495  16.673  0.00  0.00    +0.112 C 
ATOM     12  C   UNL     1      -4.873 -12.101  17.122  0.00  0.00    +0.023 C 
ATOM     14  C   UNL     1      -5.932 -11.528  18.060  0.00  0.00    +0.108 C 
ATOM     19  C   UNL     1      -8.198 -10.839  17.357  0.00  0.00    +0.247 C 
ENDROOT
BRANCH  19  23
ATOM     23  C   UNL     1      -9.058  -9.895  16.634  0.00  0.00    +0.037 A 
ATOM     25  C   UNL     1      -9.411 -10.147  15.308  0.00  0.00    +0.015 A 
ATOM     26  C   UNL     1      -9.520  -8.744  17.272  0.00  0.00    +0.015 A 
ATOM     29  C   UNL     1     -10.228  -9.250  14.621  0.00  0.00    +0.024 A 
ATOM     30  C   UNL     1     -10.338  -7.846  16.585  0.00  0.00    +0.024 A 
ATOM     31  C   UNL     1     -10.692  -8.099  15.260  0.00  0.00    +0.029 A 
BRANCH  31   8
ATOM      8  N   UNL     1     -11.518  -7.191  14.565  0.00  0.00    -0.336 N 
ATOM     35  C   UNL     1     -12.206  -7.601  13.357  0.00  0.00    +0.129 C 
ATOM     36  C   UNL     1     -11.685  -5.834  15.047  0.00  0.00    +0.129 C 
ENDBRANCH  31   8
ENDBRANCH  19  23
BRANCH   9  13
ATOM     13  C   UNL     1      -5.768 -10.602  14.438  0.00  0.00    +0.020 C 
BRANCH  13  16
ATOM     16  C   UNL     1      -4.897 -10.431  13.202  0.00  0.00    +0.085 C 
BRANCH  16   6
ATOM      6  N   UNL     1      -5.568  -9.563  12.236  0.00  0.00    -0.299 NA
ATOM      7  N   UNL     1      -6.695  -8.852   9.710  0.00  0.00    -0.327 N 
ATOM     17  C   UNL     1      -4.699  -9.308  11.081  0.00  0.00    +0.103 C 
ATOM     18  C   UNL     1      -6.829 -10.166  11.790  0.00  0.00    +0.103 C 
ATOM     20  C   UNL     1      -5.367  -8.353  10.089  0.00  0.00    +0.120 C 
ATOM     21  C   UNL     1      -7.570  -9.240  10.821  0.00  0.00    +0.120 C 
BRANCH   7  24
ATOM      1  F   UNL     1      -8.910  -7.008   4.992  0.00  0.00    -0.205 F 
ATOM     24  C   UNL     1      -7.257  -8.386   8.515  0.00  0.00    +0.030 A 
ATOM     27  C   UNL     1      -8.060  -7.247   8.521  0.00  0.00    +0.026 A 
ATOM     28  C   UNL     1      -7.011  -9.061   7.319  0.00  0.00    +0.026 A 
ATOM     32  C   UNL     1      -8.619  -6.781   7.331  0.00  0.00    +0.040 A 
ATOM     33  C   UNL     1      -7.570  -8.595   6.129  0.00  0.00    +0.040 A 
ATOM     34  C   UNL     1      -8.374  -7.455   6.135  0.00  0.00    +0.124 A 
ENDBRANCH   7  24
ENDBRANCH  16   6
ENDBRANCH  13  16
ENDBRANCH   9  13
BRANCH  10  15
ATOM     15  C   UNL     1      -3.059 -11.570  15.453  0.00  0.00    +0.124 C 
BRANCH  15  22
ATOM      4  O   UNL     1      -1.435  -9.990  14.556  0.00  0.00    -0.251 OA
ATOM     22  C   UNL     1      -1.803 -10.744  15.443  0.00  0.00    +0.305 C 
BRANCH  22   3
ATOM      3  O   UNL     1      -1.107 -10.956  16.591  0.00  0.00    -0.481 OA
ATOM     37  H   UNL     1      -1.658 -10.796  17.386  0.00  0.00    +0.295 HD
ENDBRANCH  22   3
ENDBRANCH  15  22
ENDBRANCH  10  15
TORSDOF 9
ENDMDL
MODEL 4
REMARK VINA RESULT:      -6.4      4.728      8.820
REMARK  Name = 28959943
REMARK  11 active torsions:
REMARK  status: ('A' for Active; 'I' for Inactive)
REMARK    1  A    between atoms: O_3  and  C_22
REMARK    2  A    between atoms: N_6  and  C_16
REMARK    3  A    between atoms: N_7  and  C_24
REMARK    4  A    between atoms: N_8  and  C_31
REMARK    5  A    between atoms: N_8  and  C_35
REMARK    6  A    between atoms: N_8  and  C_36
REMARK    7  A    between atoms: C_9  and  C_13
REMARK    8  A    between atoms: C_10  and  C_15
REMARK    9  A    between atoms: C_13  and  C_16
REMARK   10  A    between atoms: C_15  and  C_22
REMARK   11  A    between atoms: C_19  and  C_23
REMARK                            x       y       z     vdW  Elec       q    Type
REMARK                         _______ _______ _______ _____ _____    ______ ____
ROOT
ATOM      2  O   UNL     1      -8.897 -11.023  18.674  0.00  0.00    -0.270 OA
ATOM      5  N   UNL     1      -6.990 -10.078  17.701  0.00  0.00    -0.297 N 
ATOM      9  C   UNL     1      -5.405  -9.916  15.794  0.00  0.00    +0.011 C 
ATOM     10  C   UNL     1      -4.387 -10.744  16.619  0.00  0.00    +0.006 C 
ATOM     11  C   UNL     1      -6.359  -9.164  16.739  0.00  0.00    +0.112 C 
ATOM     12  C   UNL     1      -5.093 -11.650  17.643  0.00  0.00    +0.023 C 
ATOM     14  C   UNL     1      -6.055 -10.849  18.518  0.00  0.00    +0.108 C 
ATOM     19  C   UNL     1      -8.365 -10.255  17.874  0.00  0.00    +0.247 C 
ENDROOT
BRANCH  19  23
ATOM     23  C   UNL     1      -9.273  -9.463  17.036  0.00  0.00    +0.037 A 
ATOM     25  C   UNL     1      -9.685  -8.199  17.455  0.00  0.00    +0.015 A 
ATOM     26  C   UNL     1      -9.725  -9.978  15.821  0.00  0.00    +0.015 A 
ATOM     29  C   UNL     1     -10.549  -7.447  16.658  0.00  0.00    +0.024 A 
ATOM     30  C   UNL     1     -10.588  -9.226  15.024  0.00  0.00    +0.024 A 
ATOM     31  C   UNL     1     -11.000  -7.961  15.443  0.00  0.00    +0.029 A 
BRANCH  31   8
ATOM      8  N   UNL     1     -11.874  -7.201  14.636  0.00  0.00    -0.336 N 
ATOM     35  C   UNL     1     -12.626  -7.833  13.571  0.00  0.00    +0.129 C 
ATOM     36  C   UNL     1     -12.024  -5.776  14.858  0.00  0.00    +0.129 C 
ENDBRANCH  31   8
ENDBRANCH  19  23
BRANCH   9  13
ATOM     13  C   UNL     1      -6.205 -10.746  14.780  0.00  0.00    +0.020 C 
BRANCH  13  16
ATOM     16  C   UNL     1      -6.736  -9.866  13.657  0.00  0.00    +0.085 C 
BRANCH  16   6
ATOM      6  N   UNL     1      -5.961 -10.094  12.438  0.00  0.00    -0.299 NA
ATOM      7  N   UNL     1      -5.563 -10.706   9.677  0.00  0.00    -0.327 N 
ATOM     17  C   UNL     1      -6.168 -11.460  11.944  0.00  0.00    +0.103 C 
ATOM     18  C   UNL     1      -6.335  -9.125  11.402  0.00  0.00    +0.103 C 
ATOM     20  C   UNL     1      -5.318 -11.730  10.700  0.00  0.00    +0.120 C 
ATOM     21  C   UNL     1      -5.490  -9.316  10.139  0.00  0.00    +0.120 C 
BRANCH   7  24
ATOM      1  F   UNL     1      -4.306 -11.920   4.432  0.00  0.00    -0.205 F 
ATOM     24  C   UNL     1      -5.244 -11.013   8.349  0.00  0.00    +0.030 A 
ATOM     27  C   UNL     1      -4.391 -12.078   8.066  0.00  0.00    +0.026 A 
ATOM     28  C   UNL     1      -5.782 -10.253   7.309  0.00  0.00    +0.026 A 
ATOM     32  C   UNL     1      -4.074 -12.385   6.743  0.00  0.00    +0.040 A 
ATOM     33  C   UNL     1      -5.463 -10.560   5.986  0.00  0.00    +0.040 A 
ATOM     34  C   UNL     1      -4.610 -11.626   5.703  0.00  0.00    +0.124 A 
ENDBRANCH   7  24
ENDBRANCH  16   6
ENDBRANCH  13  16
ENDBRANCH   9  13
BRANCH  10  15
ATOM     15  C   UNL     1      -3.429 -11.559  15.752  0.00  0.00    +0.124 C 
BRANCH  15  22
ATOM      4  O   UNL     1      -1.684 -10.277  14.634  0.00  0.00    -0.251 OA
ATOM     22  C   UNL     1      -2.094 -10.882  15.612  0.00  0.00    +0.305 C 
BRANCH  22   3
ATOM      3  O   UNL     1      -1.380 -11.038  16.758  0.00  0.00    -0.481 OA
ATOM     37  H   UNL     1      -1.842 -10.651  17.531  0.00  0.00    +0.295 HD
ENDBRANCH  22   3
ENDBRANCH  15  22
ENDBRANCH  10  15
TORSDOF 9
ENDMDL
MODEL 5
REMARK VINA RESULT:      -6.2     17.728     21.693
REMARK  Name = 28959943
REMARK  11 active torsions:
REMARK  status: ('A' for Active; 'I' for Inactive)
REMARK    1  A    between atoms: O_3  and  C_22
REMARK    2  A    between atoms: N_6  and  C_16
REMARK    3  A    between atoms: N_7  and  C_24
REMARK    4  A    between atoms: N_8  and  C_31
REMARK    5  A    between atoms: N_8  and  C_35
REMARK    6  A    between atoms: N_8  and  C_36
REMARK    7  A    between atoms: C_9  and  C_13
REMARK    8  A    between atoms: C_10  and  C_15
REMARK    9  A    between atoms: C_13  and  C_16
REMARK   10  A    between atoms: C_15  and  C_22
REMARK   11  A    between atoms: C_19  and  C_23
REMARK                            x       y       z     vdW  Elec       q    Type
REMARK                         _______ _______ _______ _____ _____    ______ ____
ROOT
ATOM      2  O   UNL     1      -9.690   9.158  17.909  0.00  0.00    -0.270 OA
ATOM      5  N   UNL     1     -11.812   8.429  18.573  0.00  0.00    -0.297 N 
ATOM      9  C   UNL     1     -13.632   8.364  20.264  0.00  0.00    +0.011 C 
ATOM     10  C   UNL     1     -13.191   6.923  20.626  0.00  0.00    +0.006 C 
ATOM     11  C   UNL     1     -13.240   8.683  18.810  0.00  0.00    +0.112 C 
ATOM     12  C   UNL     1     -11.702   6.692  20.317  0.00  0.00    +0.023 C 
ATOM     14  C   UNL     1     -11.373   7.068  18.874  0.00  0.00    +0.108 C 
ATOM     19  C   UNL     1     -10.887   9.365  18.103  0.00  0.00    +0.247 C 
ENDROOT
BRANCH  19  23
ATOM     23  C   UNL     1     -11.365  10.721  17.812  0.00  0.00    +0.037 A 
ATOM     25  C   UNL     1     -11.871  11.026  16.548  0.00  0.00    +0.015 A 
ATOM     26  C   UNL     1     -11.311  11.706  18.798  0.00  0.00    +0.015 A 
ATOM     29  C   UNL     1     -12.325  12.316  16.271  0.00  0.00    +0.024 A 
ATOM     30  C   UNL     1     -11.765  12.995  18.521  0.00  0.00    +0.024 A 
ATOM     31  C   UNL     1     -12.272  13.300  17.258  0.00  0.00    +0.029 A 
BRANCH  31   8
ATOM      8  N   UNL     1     -12.731  14.604  16.978  0.00  0.00    -0.336 N 
ATOM     35  C   UNL     1     -14.092  14.987  17.294  0.00  0.00    +0.129 C 
ATOM     36  C   UNL     1     -11.848  15.577  16.363  0.00  0.00    +0.129 C 
ENDBRANCH  31   8
ENDBRANCH  19  23
BRANCH   9  13
ATOM     13  C   UNL     1     -13.083   9.439  21.211  0.00  0.00    +0.020 C 
BRANCH  13  16
ATOM     16  C   UNL     1     -14.175  10.421  21.609  0.00  0.00    +0.085 C 
BRANCH  16   6
ATOM      6  N   UNL     1     -13.899  10.958  22.941  0.00  0.00    -0.299 NA
ATOM      7  N   UNL     1     -12.698  11.018  25.531  0.00  0.00    -0.327 N 
ATOM     17  C   UNL     1     -14.322  10.009  23.977  0.00  0.00    +0.103 C 
ATOM     18  C   UNL     1     -12.470  11.256  23.090  0.00  0.00    +0.103 C 
ATOM     20  C   UNL     1     -14.092  10.583  25.377  0.00  0.00    +0.120 C 
ATOM     21  C   UNL     1     -12.176  11.873  24.461  0.00  0.00    +0.120 C 
BRANCH   7  24
ATOM      1  F   UNL     1     -10.681  11.511  30.656  0.00  0.00    -0.205 F 
ATOM     24  C   UNL     1     -12.188  11.143  26.829  0.00  0.00    +0.030 A 
ATOM     27  C   UNL     1     -11.721  10.017  27.506  0.00  0.00    +0.026 A 
ATOM     28  C   UNL     1     -12.146  12.395  27.445  0.00  0.00    +0.026 A 
ATOM     32  C   UNL     1     -11.212  10.141  28.798  0.00  0.00    +0.040 A 
ATOM     33  C   UNL     1     -11.637  12.518  28.738  0.00  0.00    +0.040 A 
ATOM     34  C   UNL     1     -11.170  11.391  29.414  0.00  0.00    +0.124 A 
ENDBRANCH   7  24
ENDBRANCH  16   6
ENDBRANCH  13  16
ENDBRANCH   9  13
BRANCH  10  15
ATOM     15  C   UNL     1     -13.504   6.543  22.072  0.00  0.00    +0.124 C 
BRANCH  15  22
ATOM      4  O   UNL     1     -14.630   4.393  21.854  0.00  0.00    -0.251 OA
ATOM     22  C   UNL     1     -13.678   5.058  22.232  0.00  0.00    +0.305 C 
BRANCH  22   3
ATOM      3  O   UNL     1     -12.600   4.537  22.873  0.00  0.00    -0.481 OA
ATOM     37  H   UNL     1     -12.269   3.726  22.431  0.00  0.00    +0.295 HD
ENDBRANCH  22   3
ENDBRANCH  15  22
ENDBRANCH  10  15
TORSDOF 9
ENDMDL
MODEL 6
REMARK VINA RESULT:      -6.0     21.386     25.102
REMARK  Name = 28959943
REMARK  11 active torsions:
REMARK  status: ('A' for Active; 'I' for Inactive)
REMARK    1  A    between atoms: O_3  and  C_22
REMARK    2  A    between atoms: N_6  and  C_16
REMARK    3  A    between atoms: N_7  and  C_24
REMARK    4  A    between atoms: N_8  and  C_31
REMARK    5  A    between atoms: N_8  and  C_35
REMARK    6  A    between atoms: N_8  and  C_36
REMARK    7  A    between atoms: C_9  and  C_13
REMARK    8  A    between atoms: C_10  and  C_15
REMARK    9  A    between atoms: C_13  and  C_16
REMARK   10  A    between atoms: C_15  and  C_22
REMARK   11  A    between atoms: C_19  and  C_23
REMARK                            x       y       z     vdW  Elec       q    Type
REMARK                         _______ _______ _______ _____ _____    ______ ____
ROOT
ATOM      2  O   UNL     1      -2.355  12.879   8.271  0.00  0.00    -0.270 OA
ATOM      5  N   UNL     1      -2.193  10.699   7.434  0.00  0.00    -0.297 N 
ATOM      9  C   UNL     1      -2.083   9.141   5.502  0.00  0.00    +0.011 C 
ATOM     10  C   UNL     1      -3.562   8.763   5.772  0.00  0.00    +0.006 C 
ATOM     11  C   UNL     1      -1.418   9.621   6.805  0.00  0.00    +0.112 C 
ATOM     12  C   UNL     1      -4.318   9.905   6.474  0.00  0.00    +0.023 C 
ATOM     14  C   UNL     1      -3.584  10.363   7.731  0.00  0.00    +0.108 C 
ATOM     19  C   UNL     1      -1.709  11.972   7.749  0.00  0.00    +0.247 C 
ENDROOT
BRANCH  19  23
ATOM     23  C   UNL     1      -0.307  12.274   7.435  0.00  0.00    +0.037 A 
ATOM     25  C   UNL     1       0.061  12.599   6.130  0.00  0.00    +0.015 A 
ATOM     26  C   UNL     1       0.656  12.233   8.443  0.00  0.00    +0.015 A 
ATOM     29  C   UNL     1       1.393  12.886   5.832  0.00  0.00    +0.024 A 
ATOM     30  C   UNL     1       1.988  12.520   8.145  0.00  0.00    +0.024 A 
ATOM     31  C   UNL     1       2.357  12.846   6.840  0.00  0.00    +0.029 A 
BRANCH  31   8
ATOM      8  N   UNL     1       3.704  13.136   6.540  0.00  0.00    -0.336 N 
ATOM     35  C   UNL     1       4.354  12.512   5.405  0.00  0.00    +0.129 C 
ATOM     36  C   UNL     1       4.459  14.057   7.367  0.00  0.00    +0.129 C 
ENDBRANCH  31   8
ENDBRANCH  19  23
BRANCH   9  13
ATOM     13  C   UNL     1      -1.899  10.186   4.394  0.00  0.00    +0.020 C 
BRANCH  13  16
ATOM     16  C   UNL     1      -0.836   9.743   3.399  0.00  0.00    +0.085 C 
BRANCH  16   6
ATOM      6  N   UNL     1      -1.436   9.557   2.079  0.00  0.00    -0.299 NA
ATOM      7  N   UNL     1      -2.387  10.364  -0.490  0.00  0.00    -0.327 N 
ATOM     17  C   UNL     1      -2.669  10.345   1.958  0.00  0.00    +0.103 C 
ATOM     18  C   UNL     1      -0.491   9.942   1.025  0.00  0.00    +0.103 C 
ATOM     20  C   UNL     1      -3.338  10.115   0.601  0.00  0.00    +0.120 C 
ATOM     21  C   UNL     1      -1.087   9.699  -0.364  0.00  0.00    +0.120 C 
BRANCH   7  24
ATOM      1  F   UNL     1      -4.425  11.472  -5.509  0.00  0.00    -0.205 F 
ATOM     24  C   UNL     1      -2.903  10.644  -1.761  0.00  0.00    +0.030 A 
ATOM     27  C   UNL     1      -4.269  10.511  -2.003  0.00  0.00    +0.026 A 
ATOM     28  C   UNL     1      -2.049  11.057  -2.785  0.00  0.00    +0.026 A 
ATOM     32  C   UNL     1      -4.784  10.791  -3.269  0.00  0.00    +0.040 A 
ATOM     33  C   UNL     1      -2.564  11.336  -4.051  0.00  0.00    +0.040 A 
ATOM     34  C   UNL     1      -3.931  11.203  -4.293  0.00  0.00    +0.124 A 
ENDBRANCH   7  24
ENDBRANCH  16   6
ENDBRANCH  13  16
ENDBRANCH   9  13
BRANCH  10  15
ATOM     15  C   UNL     1      -4.308   8.317   4.516  0.00  0.00    +0.124 C 
BRANCH  15  22
ATOM      4  O   UNL     1      -6.311   6.934   4.632  0.00  0.00    -0.251 OA
ATOM     22  C   UNL     1      -5.103   7.064   4.758  0.00  0.00    +0.305 C 
BRANCH  22   3
ATOM      3  O   UNL     1      -4.273   6.063   5.148  0.00  0.00    -0.481 OA
ATOM     37  H   UNL     1      -4.610   5.599   5.943  0.00  0.00    +0.295 HD
ENDBRANCH  22   3
ENDBRANCH  15  22
ENDBRANCH  10  15
TORSDOF 9
ENDMDL
MODEL 7
REMARK VINA RESULT:      -5.8     32.267     34.818
REMARK  Name = 28959943
REMARK  11 active torsions:
REMARK  status: ('A' for Active; 'I' for Inactive)
REMARK    1  A    between atoms: O_3  and  C_22
REMARK    2  A    between atoms: N_6  and  C_16
REMARK    3  A    between atoms: N_7  and  C_24
REMARK    4  A    between atoms: N_8  and  C_31
REMARK    5  A    between atoms: N_8  and  C_35
REMARK    6  A    between atoms: N_8  and  C_36
REMARK    7  A    between atoms: C_9  and  C_13
REMARK    8  A    between atoms: C_10  and  C_15
REMARK    9  A    between atoms: C_13  and  C_16
REMARK   10  A    between atoms: C_15  and  C_22
REMARK   11  A    between atoms: C_19  and  C_23
REMARK                            x       y       z     vdW  Elec       q    Type
REMARK                         _______ _______ _______ _____ _____    ______ ____
ROOT
ATOM      2  O   UNL     1      13.876  -8.815  -5.022  0.00  0.00    -0.270 OA
ATOM      5  N   UNL     1      15.171  -6.879  -5.252  0.00  0.00    -0.297 N 
ATOM      9  C   UNL     1      16.981  -5.392  -4.423  0.00  0.00    +0.011 C 
ATOM     10  C   UNL     1      15.892  -4.418  -3.906  0.00  0.00    +0.006 C 
ATOM     11  C   UNL     1      16.433  -6.214  -5.604  0.00  0.00    +0.112 C 
ATOM     12  C   UNL     1      14.577  -5.154  -3.596  0.00  0.00    +0.023 C 
ATOM     14  C   UNL     1      14.113  -5.983  -4.791  0.00  0.00    +0.108 C 
ATOM     19  C   UNL     1      14.929  -8.253  -5.321  0.00  0.00    +0.247 C 
ENDROOT
BRANCH  19  23
ATOM     23  C   UNL     1      16.016  -9.123  -5.788  0.00  0.00    +0.037 A 
ATOM     25  C   UNL     1      16.013  -9.599  -7.098  0.00  0.00    +0.015 A 
ATOM     26  C   UNL     1      17.049  -9.473  -4.919  0.00  0.00    +0.015 A 
ATOM     29  C   UNL     1      17.046 -10.426  -7.542  0.00  0.00    +0.024 A 
ATOM     30  C   UNL     1      18.082 -10.300  -5.363  0.00  0.00    +0.024 A 
ATOM     31  C   UNL     1      18.080 -10.775  -6.674  0.00  0.00    +0.029 A 
BRANCH  31   8
ATOM      8  N   UNL     1      19.125 -11.611  -7.122  0.00  0.00    -0.336 N 
ATOM     35  C   UNL     1      20.495 -11.345  -6.734  0.00  0.00    +0.129 C 
ATOM     36  C   UNL     1      18.841 -12.743  -7.982  0.00  0.00    +0.129 C 
ENDBRANCH  31   8
ENDBRANCH  19  23
BRANCH   9  13
ATOM     13  C   UNL     1      17.547  -6.324  -3.344  0.00  0.00    +0.020 C 
BRANCH  13  16
ATOM     16  C   UNL     1      18.912  -5.845  -2.872  0.00  0.00    +0.085 C 
BRANCH  16   6
ATOM      6  N   UNL     1      19.090  -6.167  -1.457  0.00  0.00    -0.299 NA
ATOM      7  N   UNL     1      20.565  -6.704   0.929  0.00  0.00    -0.327 N 
ATOM     17  C   UNL     1      19.820  -7.431  -1.304  0.00  0.00    +0.103 C 
ATOM     18  C   UNL     1      19.811  -5.088  -0.770  0.00  0.00    +0.103 C 
ATOM     20  C   UNL     1      19.964  -7.809   0.171  0.00  0.00    +0.120 C 
ATOM     21  C   UNL     1      19.954  -5.387   0.725  0.00  0.00    +0.120 C 
BRANCH   7  24
ATOM      1  F   UNL     1      22.989  -7.883   5.757  0.00  0.00    -0.205 F 
ATOM     24  C   UNL     1      21.178  -7.003   2.152  0.00  0.00    +0.030 A 
ATOM     27  C   UNL     1      20.892  -8.203   2.800  0.00  0.00    +0.026 A 
ATOM     28  C   UNL     1      22.077  -6.098   2.720  0.00  0.00    +0.026 A 
ATOM     32  C   UNL     1      21.504  -8.501   4.018  0.00  0.00    +0.040 A 
ATOM     33  C   UNL     1      22.687  -6.396   3.938  0.00  0.00    +0.040 A 
ATOM     34  C   UNL     1      22.401  -7.597   4.587  0.00  0.00    +0.124 A 
ENDBRANCH   7  24
ENDBRANCH  16   6
ENDBRANCH  13  16
ENDBRANCH   9  13
BRANCH  10  15
ATOM     15  C   UNL     1      16.344  -3.595  -2.701  0.00  0.00    +0.124 C 
BRANCH  15  22
ATOM      4  O   UNL     1      17.339  -1.982  -4.234  0.00  0.00    -0.251 OA
ATOM     22  C   UNL     1      17.228  -2.450  -3.111  0.00  0.00    +0.305 C 
BRANCH  22   3
ATOM      3  O   UNL     1      17.910  -1.988  -2.031  0.00  0.00    -0.481 OA
ATOM     37  H   UNL     1      18.030  -2.685  -1.351  0.00  0.00    +0.295 HD
ENDBRANCH  22   3
ENDBRANCH  15  22
ENDBRANCH  10  15
TORSDOF 9
ENDMDL
MODEL 8
REMARK VINA RESULT:      -5.8     28.648     32.173
REMARK  Name = 28959943
REMARK  11 active torsions:
REMARK  status: ('A' for Active; 'I' for Inactive)
REMARK    1  A    between atoms: O_3  and  C_22
REMARK    2  A    between atoms: N_6  and  C_16
REMARK    3  A    between atoms: N_7  and  C_24
REMARK    4  A    between atoms: N_8  and  C_31
REMARK    5  A    between atoms: N_8  and  C_35
REMARK    6  A    between atoms: N_8  and  C_36
REMARK    7  A    between atoms: C_9  and  C_13
REMARK    8  A    between atoms: C_10  and  C_15
REMARK    9  A    between atoms: C_13  and  C_16
REMARK   10  A    between atoms: C_15  and  C_22
REMARK   11  A    between atoms: C_19  and  C_23
REMARK                            x       y       z     vdW  Elec       q    Type
REMARK                         _______ _______ _______ _____ _____    ______ ____
ROOT
ATOM      2  O   UNL     1      16.295  11.133   5.941  0.00  0.00    -0.270 OA
ATOM      5  N   UNL     1      15.131   9.120   6.209  0.00  0.00    -0.297 N 
ATOM      9  C   UNL     1      13.834   7.239   5.231  0.00  0.00    +0.011 C 
ATOM     10  C   UNL     1      12.544   7.884   5.798  0.00  0.00    +0.006 C 
ATOM     11  C   UNL     1      15.048   7.659   6.080  0.00  0.00    +0.112 C 
ATOM     12  C   UNL     1      12.697   9.407   5.960  0.00  0.00    +0.023 C 
ATOM     14  C   UNL     1      13.941   9.754   6.772  0.00  0.00    +0.108 C 
ATOM     19  C   UNL     1      16.223   9.909   5.840  0.00  0.00    +0.247 C 
ENDROOT
BRANCH  19  23
ATOM     23  C   UNL     1      17.401   9.237   5.277  0.00  0.00    +0.037 A 
ATOM     25  C   UNL     1      17.494   9.030   3.901  0.00  0.00    +0.015 A 
ATOM     26  C   UNL     1      18.424   8.803   6.120  0.00  0.00    +0.015 A 
ATOM     29  C   UNL     1      18.613   8.390   3.367  0.00  0.00    +0.024 A 
ATOM     30  C   UNL     1      19.543   8.164   5.585  0.00  0.00    +0.024 A 
ATOM     31  C   UNL     1      19.637   7.958   4.209  0.00  0.00    +0.029 A 
BRANCH  31   8
ATOM      8  N   UNL     1      20.769   7.312   3.669  0.00  0.00    -0.336 N 
ATOM     35  C   UNL     1      21.056   7.396   2.251  0.00  0.00    +0.129 C 
ATOM     36  C   UNL     1      21.656   6.548   4.525  0.00  0.00    +0.129 C 
ENDBRANCH  31   8
ENDBRANCH  19  23
BRANCH   9  13
ATOM     13  C   UNL     1      14.087   7.553   3.750  0.00  0.00    +0.020 C 
BRANCH  13  16
ATOM     16  C   UNL     1      15.005   6.513   3.124  0.00  0.00    +0.085 C 
BRANCH  16   6
ATOM      6  N   UNL     1      14.502   6.136   1.804  0.00  0.00    -0.299 NA
ATOM      7  N   UNL     1      12.845   4.734  -0.053  0.00  0.00    -0.327 N 
ATOM     17  C   UNL     1      14.702   4.701   1.566  0.00  0.00    +0.103 C 
ATOM     18  C   UNL     1      13.078   6.469   1.681  0.00  0.00    +0.103 C 
ATOM     20  C   UNL     1      14.232   4.304   0.166  0.00  0.00    +0.120 C 
ATOM     21  C   UNL     1      12.553   6.131   0.283  0.00  0.00    +0.120 C 
BRANCH   7  24
ATOM      1  F   UNL     1       9.934   2.201  -4.012  0.00  0.00    -0.205 F 
ATOM     24  C   UNL     1      12.108   4.093  -1.055  0.00  0.00    +0.030 A 
ATOM     27  C   UNL     1      10.986   4.715  -1.601  0.00  0.00    +0.026 A 
ATOM     28  C   UNL     1      12.496   2.831  -1.507  0.00  0.00    +0.026 A 
ATOM     32  C   UNL     1      10.252   4.076  -2.601  0.00  0.00    +0.040 A 
ATOM     33  C   UNL     1      11.761   2.192  -2.506  0.00  0.00    +0.040 A 
ATOM     34  C   UNL     1      10.639   2.815  -3.052  0.00  0.00    +0.124 A 
ENDBRANCH   7  24
ENDBRANCH  16   6
ENDBRANCH  13  16
ENDBRANCH   9  13
BRANCH  10  15
ATOM     15  C   UNL     1      11.296   7.552   4.982  0.00  0.00    +0.124 C 
BRANCH  15  22
ATOM      4  O   UNL     1      10.577   5.368   4.176  0.00  0.00    -0.251 OA
ATOM     22  C   UNL     1      10.934   6.097   5.088  0.00  0.00    +0.305 C 
BRANCH  22   3
ATOM      3  O   UNL     1      11.062   5.686   6.377  0.00  0.00    -0.481 OA
ATOM     37  H   UNL     1      11.402   6.401   6.956  0.00  0.00    +0.295 HD
ENDBRANCH  22   3
ENDBRANCH  15  22
ENDBRANCH  10  15
TORSDOF 9
ENDMDL
MODEL 9
REMARK VINA RESULT:      -5.8     29.954     34.786
REMARK  Name = 28959943
REMARK  11 active torsions:
REMARK  status: ('A' for Active; 'I' for Inactive)
REMARK    1  A    between atoms: O_3  and  C_22
REMARK    2  A    between atoms: N_6  and  C_16
REMARK    3  A    between atoms: N_7  and  C_24
REMARK    4  A    between atoms: N_8  and  C_31
REMARK    5  A    between atoms: N_8  and  C_35
REMARK    6  A    between atoms: N_8  and  C_36
REMARK    7  A    between atoms: C_9  and  C_13
REMARK    8  A    between atoms: C_10  and  C_15
REMARK    9  A    between atoms: C_13  and  C_16
REMARK   10  A    between atoms: C_15  and  C_22
REMARK   11  A    between atoms: C_19  and  C_23
REMARK                            x       y       z     vdW  Elec       q    Type
REMARK                         _______ _______ _______ _____ _____    ______ ____
ROOT
ATOM      2  O   UNL     1      15.481  11.897  23.761  0.00  0.00    -0.270 OA
ATOM      5  N   UNL     1      17.025  11.476  22.054  0.00  0.00    -0.297 N 
ATOM      9  C   UNL     1      18.763  10.019  21.038  0.00  0.00    +0.011 C 
ATOM     10  C   UNL     1      19.839  11.005  21.558  0.00  0.00    +0.006 C 
ATOM     11  C   UNL     1      17.427  10.757  20.836  0.00  0.00    +0.112 C 
ATOM     12  C   UNL     1      19.353  11.767  22.804  0.00  0.00    +0.023 C 
ATOM     14  C   UNL     1      18.006  12.438  22.551  0.00  0.00    +0.108 C 
ATOM     19  C   UNL     1      15.820  11.302  22.739  0.00  0.00    +0.247 C 
ENDROOT
BRANCH  19  23
ATOM     23  C   UNL     1      14.859  10.327  22.211  0.00  0.00    +0.037 A 
ATOM     25  C   UNL     1      15.055   8.964  22.434  0.00  0.00    +0.015 A 
ATOM     26  C   UNL     1      13.752  10.764  21.484  0.00  0.00    +0.015 A 
ATOM     29  C   UNL     1      14.142   8.037  21.931  0.00  0.00    +0.024 A 
ATOM     30  C   UNL     1      12.839   9.836  20.981  0.00  0.00    +0.024 A 
ATOM     31  C   UNL     1      13.034   8.474  21.205  0.00  0.00    +0.029 A 
BRANCH  31   8
ATOM      8  N   UNL     1      12.110   7.536  20.696  0.00  0.00    -0.336 N 
ATOM     35  C   UNL     1      10.836   7.330  21.354  0.00  0.00    +0.129 C 
ATOM     36  C   UNL     1      12.427   6.762  19.512  0.00  0.00    +0.129 C 
ENDBRANCH  31   8
ENDBRANCH  19  23
BRANCH   9  13
ATOM     13  C   UNL     1      18.561   8.789  21.933  0.00  0.00    +0.020 C 
BRANCH  13  16
ATOM     16  C   UNL     1      18.438   7.523  21.098  0.00  0.00    +0.085 C 
BRANCH  16   6
ATOM      6  N   UNL     1      19.688   6.767  21.152  0.00  0.00    -0.299 NA
ATOM      7  N   UNL     1      21.359   4.530  21.753  0.00  0.00    -0.327 N 
ATOM     17  C   UNL     1      20.044   6.460  22.542  0.00  0.00    +0.103 C 
ATOM     18  C   UNL     1      19.572   5.525  20.379  0.00  0.00    +0.103 C 
ATOM     20  C   UNL     1      21.381   5.718  22.616  0.00  0.00    +0.120 C 
ATOM     21  C   UNL     1      20.894   4.751  20.381  0.00  0.00    +0.120 C 
BRANCH   7  24
ATOM      1  F   UNL     1      24.987   0.492  22.802  0.00  0.00    -0.205 F 
ATOM     24  C   UNL     1      22.277   3.507  22.019  0.00  0.00    +0.030 A 
ATOM     27  C   UNL     1      22.949   2.884  20.968  0.00  0.00    +0.026 A 
ATOM     28  C   UNL     1      22.520   3.113  23.335  0.00  0.00    +0.026 A 
ATOM     32  C   UNL     1      23.864   1.866  21.232  0.00  0.00    +0.040 A 
ATOM     33  C   UNL     1      23.436   2.094  23.599  0.00  0.00    +0.040 A 
ATOM     34  C   UNL     1      24.108   1.471  22.547  0.00  0.00    +0.124 A 
ENDBRANCH   7  24
ENDBRANCH  16   6
ENDBRANCH  13  16
ENDBRANCH   9  13
BRANCH  10  15
ATOM     15  C   UNL     1      21.187  10.339  21.827  0.00  0.00    +0.124 C 
BRANCH  15  22
ATOM      4  O   UNL     1      22.370  10.740  19.735  0.00  0.00    -0.251 OA
ATOM     22  C   UNL     1      21.888   9.968  20.550  0.00  0.00    +0.305 C 
BRANCH  22   3
ATOM      3  O   UNL     1      21.917   8.617  20.418  0.00  0.00    -0.481 OA
ATOM     37  H   UNL     1      22.834   8.268  20.433  0.00  0.00    +0.295 HD
ENDBRANCH  22   3
ENDBRANCH  15  22
ENDBRANCH  10  15
TORSDOF 9
ENDMDL
MODEL 10
REMARK VINA RESULT:      -5.7     30.101     33.423
REMARK  Name = 28959943
REMARK  11 active torsions:
REMARK  status: ('A' for Active; 'I' for Inactive)
REMARK    1  A    between atoms: O_3  and  C_22
REMARK    2  A    between atoms: N_6  and  C_16
REMARK    3  A    between atoms: N_7  and  C_24
REMARK    4  A    between atoms: N_8  and  C_31
REMARK    5  A    between atoms: N_8  and  C_35
REMARK    6  A    between atoms: N_8  and  C_36
REMARK    7  A    between atoms: C_9  and  C_13
REMARK    8  A    between atoms: C_10  and  C_15
REMARK    9  A    between atoms: C_13  and  C_16
REMARK   10  A    between atoms: C_15  and  C_22
REMARK   11  A    between atoms: C_19  and  C_23
REMARK                            x       y       z     vdW  Elec       q    Type
REMARK                         _______ _______ _______ _____ _____    ______ ____
ROOT
ATOM      2  O   UNL     1      15.736  14.831  19.649  0.00  0.00    -0.270 OA
ATOM      5  N   UNL     1      14.262  13.220  18.807  0.00  0.00    -0.297 N 
ATOM      9  C   UNL     1      13.720  10.843  18.327  0.00  0.00    +0.011 C 
ATOM     10  C   UNL     1      14.036  11.113  16.834  0.00  0.00    +0.006 C 
ATOM     11  C   UNL     1      13.279  12.148  19.015  0.00  0.00    +0.112 C 
ATOM     12  C   UNL     1      15.032  12.274  16.667  0.00  0.00    +0.023 C 
ATOM     14  C   UNL     1      14.556  13.520  17.408  0.00  0.00    +0.108 C 
ATOM     19  C   UNL     1      14.909  13.936  19.817  0.00  0.00    +0.247 C 
ENDROOT
BRANCH  19  23
ATOM     23  C   UNL     1      14.588  13.606  21.211  0.00  0.00    +0.037 A 
ATOM     25  C   UNL     1      13.526  14.244  21.852  0.00  0.00    +0.015 A 
ATOM     26  C   UNL     1      15.347  12.657  21.895  0.00  0.00    +0.015 A 
ATOM     29  C   UNL     1      13.222  13.931  23.177  0.00  0.00    +0.024 A 
ATOM     30  C   UNL     1      15.043  12.344  23.220  0.00  0.00    +0.024 A 
ATOM     31  C   UNL     1      13.980  12.980  23.860  0.00  0.00    +0.029 A 
BRANCH  31   8
ATOM      8  N   UNL     1      13.673  12.663  25.200  0.00  0.00    -0.336 N 
ATOM     35  C   UNL     1      14.433  11.654  25.909  0.00  0.00    +0.129 C 
ATOM     36  C   UNL     1      12.587  13.339  25.884  0.00  0.00    +0.129 C 
ENDBRANCH  31   8
ENDBRANCH  19  23
BRANCH   9  13
ATOM     13  C   UNL     1      14.878  10.199  19.101  0.00  0.00    +0.020 C 
BRANCH  13  16
ATOM     16  C   UNL     1      14.369   9.481  20.343  0.00  0.00    +0.085 C 
BRANCH  16   6
ATOM      6  N   UNL     1      15.464   8.754  20.981  0.00  0.00    -0.299 NA
ATOM      7  N   UNL     1      17.896   7.258  21.077  0.00  0.00    -0.327 N 
ATOM     17  C   UNL     1      15.499   7.362  20.517  0.00  0.00    +0.103 C 
ATOM     18  C   UNL     1      16.749   9.406  20.701  0.00  0.00    +0.103 C 
ATOM     20  C   UNL     1      16.605   6.573  21.220  0.00  0.00    +0.120 C 
ATOM     21  C   UNL     1      17.898   8.686  21.411  0.00  0.00    +0.120 C 
BRANCH   7  24
ATOM      1  F   UNL     1      22.507   4.282  21.744  0.00  0.00    -0.205 F 
ATOM     24  C   UNL     1      19.063   6.504  21.246  0.00  0.00    +0.030 A 
ATOM     27  C   UNL     1      19.446   5.585  20.270  0.00  0.00    +0.026 A 
ATOM     28  C   UNL     1      19.843   6.674  22.390  0.00  0.00    +0.026 A 
ATOM     32  C   UNL     1      20.610   4.834  20.438  0.00  0.00    +0.040 A 
ATOM     33  C   UNL     1      21.007   5.923  22.558  0.00  0.00    +0.040 A 
ATOM     34  C   UNL     1      21.390   5.003  21.582  0.00  0.00    +0.124 A 
ENDBRANCH   7  24
ENDBRANCH  16   6
ENDBRANCH  13  16
ENDBRANCH   9  13
BRANCH  10  15
ATOM     15  C   UNL     1      14.526   9.873  16.089  0.00  0.00    +0.124 C 
BRANCH  15  22
ATOM      4  O   UNL     1      13.547   7.751  16.782  0.00  0.00    -0.251 OA
ATOM     22  C   UNL     1      13.503   8.771  16.111  0.00  0.00    +0.305 C 
BRANCH  22   3
ATOM      3  O   UNL     1      12.490   9.069  15.257  0.00  0.00    -0.481 OA
ATOM     37  H   UNL     1      12.432   8.424  14.520  0.00  0.00    +0.295 HD
ENDBRANCH  22   3
ENDBRANCH  15  22
ENDBRANCH  10  15
TORSDOF 9
ENDMDL
