MODEL 1
REMARK VINA RESULT:      -7.6      0.000      0.000
REMARK  Name = 40780432
REMARK  7 active torsions:
REMARK  status: ('A' for Active; 'I' for Inactive)
REMARK    1  A    between atoms: N_1  and  C_6
REMARK    2  A    between atoms: N_1  and  C_12
REMARK    3  A    between atoms: N_2  and  C_15
REMARK    4  A    between atoms: C_4  and  C_7
REMARK    5  A    between atoms: C_10  and  C_13
REMARK    6  A    between atoms: C_11  and  C_14
REMARK    7  A    between atoms: C_12  and  C_16
REMARK                            x       y       z     vdW  Elec       q    Type
REMARK                         _______ _______ _______ _____ _____    ______ ____
ROOT
ATOM      4  C   UNL     1      12.467   9.400  20.414  0.00  0.00    +0.047 C 
ATOM      5  C   UNL     1      13.319   8.682  21.478  0.00  0.00    +0.035 C 
ATOM      6  C   UNL     1      12.813   7.231  21.525  0.00  0.00    +0.078 C 
ATOM      8  C   UNL     1      11.241   8.537  20.353  0.00  0.00    -0.021 C 
ATOM      9  C   UNL     1      11.436   7.356  20.951  0.00  0.00    -0.012 C 
ENDROOT
BRANCH   4   7
ATOM      2  N   UNL     1      11.532  12.713  21.667  0.00  0.00    -0.236 N 
ATOM      3  N   UNL     1      12.223  13.131  20.591  0.00  0.00    -0.171 NA
ATOM      7  C   UNL     1      12.203  10.852  20.740  0.00  0.00    +0.003 A 
ATOM     10  C   UNL     1      11.490  11.356  21.801  0.00  0.00    +0.046 A 
ATOM     11  C   UNL     1      12.630  11.989  20.030  0.00  0.00    +0.064 A 
ATOM     13  C   UNL     1      10.789  10.673  22.907  0.00  0.00    +0.066 C 
ATOM     14  C   UNL     1      13.438  12.036  18.799  0.00  0.00    +0.068 C 
BRANCH   2  15
ATOM     15  C   UNL     1      10.942  13.649  22.516  0.00  0.00    +0.066 A 
ATOM     17  C   UNL     1      11.572  14.001  23.711  0.00  0.00    +0.028 A 
ATOM     18  C   UNL     1       9.724  14.234  22.172  0.00  0.00    +0.028 A 
ATOM     21  C   UNL     1      10.983  14.938  24.559  0.00  0.00    +0.002 A 
ATOM     22  C   UNL     1       9.135  15.171  23.021  0.00  0.00    +0.002 A 
ATOM     25  C   UNL     1       9.765  15.523  24.215  0.00  0.00    +0.000 A 
ENDBRANCH   2  15
ENDBRANCH   4   7
BRANCH   6   1
ATOM      1  N   UNL     1      13.643   6.335  20.727  0.00  0.00    -0.306 NA
ATOM     27  H   UNL     1      13.042   5.722  20.176  0.00  0.00    +0.123 HD
BRANCH   1  12
ATOM     12  C   UNL     1      14.506   7.087  19.826  0.00  0.00    +0.116 C 
BRANCH  12  16
ATOM     16  C   UNL     1      15.952   6.697  19.980  0.00  0.00    -0.034 A 
ATOM     19  C   UNL     1      16.640   7.017  21.150  0.00  0.00    +0.005 A 
ATOM     20  C   UNL     1      16.604   6.017  18.952  0.00  0.00    +0.005 A 
ATOM     23  C   UNL     1      17.979   6.656  21.294  0.00  0.00    +0.000 A 
ATOM     24  C   UNL     1      17.944   5.655  19.095  0.00  0.00    +0.000 A 
ATOM     26  C   UNL     1      18.631   5.975  20.266  0.00  0.00    +0.000 A 
ENDBRANCH  12  16
ENDBRANCH   1  12
ENDBRANCH   6   1
TORSDOF 5
ENDMDL
MODEL 2
REMARK VINA RESULT:      -7.3      1.471      2.318
REMARK  Name = 40780432
REMARK  7 active torsions:
REMARK  status: ('A' for Active; 'I' for Inactive)
REMARK    1  A    between atoms: N_1  and  C_6
REMARK    2  A    between atoms: N_1  and  C_12
REMARK    3  A    between atoms: N_2  and  C_15
REMARK    4  A    between atoms: C_4  and  C_7
REMARK    5  A    between atoms: C_10  and  C_13
REMARK    6  A    between atoms: C_11  and  C_14
REMARK    7  A    between atoms: C_12  and  C_16
REMARK                            x       y       z     vdW  Elec       q    Type
REMARK                         _______ _______ _______ _____ _____    ______ ____
ROOT
ATOM      4  C   UNL     1      12.944   9.227  20.365  0.00  0.00    +0.047 C 
ATOM      5  C   UNL     1      13.955   8.224  20.955  0.00  0.00    +0.035 C 
ATOM      6  C   UNL     1      14.092   7.095  19.919  0.00  0.00    +0.078 C 
ATOM      8  C   UNL     1      12.190   8.377  19.383  0.00  0.00    -0.021 C 
ATOM      9  C   UNL     1      12.822   7.224  19.138  0.00  0.00    -0.012 C 
ENDROOT
BRANCH   4   7
ATOM      2  N   UNL     1      11.145  11.334  22.762  0.00  0.00    -0.236 N 
ATOM      3  N   UNL     1      10.520  10.180  23.054  0.00  0.00    -0.171 NA
ATOM      7  C   UNL     1      12.084   9.894  21.414  0.00  0.00    +0.003 A 
ATOM     10  C   UNL     1      12.092  11.217  21.787  0.00  0.00    +0.046 A 
ATOM     11  C   UNL     1      11.098   9.304  22.226  0.00  0.00    +0.064 A 
ATOM     13  C   UNL     1      12.903  12.353  21.304  0.00  0.00    +0.066 C 
ATOM     14  C   UNL     1      10.667   7.895  22.247  0.00  0.00    +0.068 C 
BRANCH   2  15
ATOM     15  C   UNL     1      10.798  12.499  23.444  0.00  0.00    +0.066 A 
ATOM     17  C   UNL     1      10.953  12.569  24.829  0.00  0.00    +0.028 A 
ATOM     18  C   UNL     1      10.297  13.596  22.744  0.00  0.00    +0.028 A 
ATOM     21  C   UNL     1      10.608  13.735  25.512  0.00  0.00    +0.002 A 
ATOM     22  C   UNL     1       9.951  14.763  23.426  0.00  0.00    +0.002 A 
ATOM     25  C   UNL     1      10.107  14.832  24.811  0.00  0.00    +0.000 A 
ENDBRANCH   2  15
ENDBRANCH   4   7
BRANCH   6   1
ATOM      1  N   UNL     1      15.263   7.273  19.067  0.00  0.00    -0.306 NA
ATOM     27  H   UNL     1      15.728   8.147  19.314  0.00  0.00    +0.123 HD
BRANCH   1  12
ATOM     12  C   UNL     1      16.202   6.172  19.232  0.00  0.00    +0.116 C 
BRANCH  12  16
ATOM     16  C   UNL     1      17.437   6.598  19.981  0.00  0.00    -0.034 A 
ATOM     19  C   UNL     1      17.456   7.815  20.662  0.00  0.00    +0.005 A 
ATOM     20  C   UNL     1      18.563   5.774  19.995  0.00  0.00    +0.005 A 
ATOM     23  C   UNL     1      18.599   8.209  21.356  0.00  0.00    +0.000 A 
ATOM     24  C   UNL     1      19.707   6.168  20.690  0.00  0.00    +0.000 A 
ATOM     26  C   UNL     1      19.725   7.386  21.370  0.00  0.00    +0.000 A 
ENDBRANCH  12  16
ENDBRANCH   1  12
ENDBRANCH   6   1
TORSDOF 5
ENDMDL
MODEL 3
REMARK VINA RESULT:      -6.9      3.054      8.530
REMARK  Name = 40780432
REMARK  7 active torsions:
REMARK  status: ('A' for Active; 'I' for Inactive)
REMARK    1  A    between atoms: N_1  and  C_6
REMARK    2  A    between atoms: N_1  and  C_12
REMARK    3  A    between atoms: N_2  and  C_15
REMARK    4  A    between atoms: C_4  and  C_7
REMARK    5  A    between atoms: C_10  and  C_13
REMARK    6  A    between atoms: C_11  and  C_14
REMARK    7  A    between atoms: C_12  and  C_16
REMARK                            x       y       z     vdW  Elec       q    Type
REMARK                         _______ _______ _______ _____ _____    ______ ____
ROOT
ATOM      4  C   UNL     1      15.292   8.408  20.068  0.00  0.00    +0.047 C 
ATOM      5  C   UNL     1      15.138   9.460  18.952  0.00  0.00    +0.035 C 
ATOM      6  C   UNL     1      14.148   8.866  17.936  0.00  0.00    +0.078 C 
ATOM      8  C   UNL     1      14.871   7.145  19.373  0.00  0.00    -0.021 C 
ATOM      9  C   UNL     1      14.243   7.399  18.220  0.00  0.00    -0.012 C 
ENDROOT
BRANCH   4   7
ATOM      2  N   UNL     1      18.716   7.810  21.224  0.00  0.00    -0.236 N 
ATOM      3  N   UNL     1      18.525   8.976  21.867  0.00  0.00    -0.171 NA
ATOM      7  C   UNL     1      16.680   8.369  20.664  0.00  0.00    +0.003 A 
ATOM     10  C   UNL     1      17.641   7.403  20.491  0.00  0.00    +0.046 A 
ATOM     11  C   UNL     1      17.279   9.312  21.520  0.00  0.00    +0.064 A 
ATOM     13  C   UNL     1      17.624   6.154  19.702  0.00  0.00    +0.066 C 
ATOM     14  C   UNL     1      16.696  10.563  22.038  0.00  0.00    +0.068 C 
BRANCH   2  15
ATOM     15  C   UNL     1      19.933   7.142  21.352  0.00  0.00    +0.066 A 
ATOM     17  C   UNL     1      20.975   7.413  20.464  0.00  0.00    +0.028 A 
ATOM     18  C   UNL     1      20.112   6.204  22.369  0.00  0.00    +0.028 A 
ATOM     21  C   UNL     1      22.192   6.747  20.592  0.00  0.00    +0.002 A 
ATOM     22  C   UNL     1      21.330   5.536  22.497  0.00  0.00    +0.002 A 
ATOM     25  C   UNL     1      22.371   5.809  21.609  0.00  0.00    +0.000 A 
ENDBRANCH   2  15
ENDBRANCH   4   7
BRANCH   6   1
ATOM      1  N   UNL     1      12.791   9.361  18.141  0.00  0.00    -0.306 NA
ATOM     27  H   UNL     1      12.398   9.645  17.243  0.00  0.00    +0.123 HD
BRANCH   1  12
ATOM     12  C   UNL     1      11.942   8.330  18.724  0.00  0.00    +0.116 C 
BRANCH  12  16
ATOM     16  C   UNL     1      11.538   8.669  20.134  0.00  0.00    -0.034 A 
ATOM     19  C   UNL     1      11.786   9.944  20.644  0.00  0.00    +0.005 A 
ATOM     20  C   UNL     1      10.918   7.708  20.932  0.00  0.00    +0.005 A 
ATOM     23  C   UNL     1      11.412  10.259  21.950  0.00  0.00    +0.000 A 
ATOM     24  C   UNL     1      10.543   8.023  22.239  0.00  0.00    +0.000 A 
ATOM     26  C   UNL     1      10.791   9.298  22.748  0.00  0.00    +0.000 A 
ENDBRANCH  12  16
ENDBRANCH   1  12
ENDBRANCH   6   1
TORSDOF 5
ENDMDL
MODEL 4
REMARK VINA RESULT:      -6.8     26.698     29.330
REMARK  Name = 40780432
REMARK  7 active torsions:
REMARK  status: ('A' for Active; 'I' for Inactive)
REMARK    1  A    between atoms: N_1  and  C_6
REMARK    2  A    between atoms: N_1  and  C_12
REMARK    3  A    between atoms: N_2  and  C_15
REMARK    4  A    between atoms: C_4  and  C_7
REMARK    5  A    between atoms: C_10  and  C_13
REMARK    6  A    between atoms: C_11  and  C_14
REMARK    7  A    between atoms: C_12  and  C_16
REMARK                            x       y       z     vdW  Elec       q    Type
REMARK                         _______ _______ _______ _____ _____    ______ ____
ROOT
ATOM      4  C   UNL     1      -3.138 -11.260  12.621  0.00  0.00    +0.047 C 
ATOM      5  C   UNL     1      -4.072 -10.952  13.807  0.00  0.00    +0.035 C 
ATOM      6  C   UNL     1      -4.173 -12.252  14.623  0.00  0.00    +0.078 C 
ATOM      8  C   UNL     1      -3.234 -12.755  12.521  0.00  0.00    -0.021 C 
ATOM      9  C   UNL     1      -3.790 -13.290  13.614  0.00  0.00    -0.012 C 
ENDROOT
BRANCH   4   7
ATOM      2  N   UNL     1      -4.542  -9.757   9.590  0.00  0.00    -0.236 N 
ATOM      3  N   UNL     1      -3.371  -9.097   9.575  0.00  0.00    -0.171 NA
ATOM      7  C   UNL     1      -3.510 -10.517  11.359  0.00  0.00    +0.003 A 
ATOM     10  C   UNL     1      -4.675 -10.621  10.637  0.00  0.00    +0.046 A 
ATOM     11  C   UNL     1      -2.745  -9.565  10.659  0.00  0.00    +0.064 A 
ATOM     13  C   UNL     1      -5.877 -11.451  10.856  0.00  0.00    +0.066 C 
ATOM     14  C   UNL     1      -1.399  -9.066  10.990  0.00  0.00    +0.068 C 
BRANCH   2  15
ATOM     15  C   UNL     1      -5.481  -9.522   8.585  0.00  0.00    +0.066 A 
ATOM     17  C   UNL     1      -6.566  -8.679   8.827  0.00  0.00    +0.028 A 
ATOM     18  C   UNL     1      -5.335 -10.129   7.338  0.00  0.00    +0.028 A 
ATOM     21  C   UNL     1      -7.503  -8.443   7.823  0.00  0.00    +0.002 A 
ATOM     22  C   UNL     1      -6.273  -9.893   6.333  0.00  0.00    +0.002 A 
ATOM     25  C   UNL     1      -7.357  -9.049   6.576  0.00  0.00    +0.000 A 
ENDBRANCH   2  15
ENDBRANCH   4   7
BRANCH   6   1
ATOM      1  N   UNL     1      -3.263 -12.255  15.763  0.00  0.00    -0.306 NA
ATOM     27  H   UNL     1      -2.311 -12.412  15.432  0.00  0.00    +0.123 HD
BRANCH   1  12
ATOM     12  C   UNL     1      -3.314 -10.985  16.475  0.00  0.00    +0.116 C 
BRANCH  12  16
ATOM     16  C   UNL     1      -4.442 -10.947  17.472  0.00  0.00    -0.034 A 
ATOM     19  C   UNL     1      -4.306 -11.586  18.704  0.00  0.00    +0.005 A 
ATOM     20  C   UNL     1      -5.622 -10.271  17.163  0.00  0.00    +0.005 A 
ATOM     23  C   UNL     1      -5.350 -11.551  19.628  0.00  0.00    +0.000 A 
ATOM     24  C   UNL     1      -6.667 -10.235  18.088  0.00  0.00    +0.000 A 
ATOM     26  C   UNL     1      -6.531 -10.875  19.319  0.00  0.00    +0.000 A 
ENDBRANCH  12  16
ENDBRANCH   1  12
ENDBRANCH   6   1
TORSDOF 5
ENDMDL
MODEL 5
REMARK VINA RESULT:      -6.8     28.604     31.280
REMARK  Name = 40780432
REMARK  7 active torsions:
REMARK  status: ('A' for Active; 'I' for Inactive)
REMARK    1  A    between atoms: N_1  and  C_6
REMARK    2  A    between atoms: N_1  and  C_12
REMARK    3  A    between atoms: N_2  and  C_15
REMARK    4  A    between atoms: C_4  and  C_7
REMARK    5  A    between atoms: C_10  and  C_13
REMARK    6  A    between atoms: C_11  and  C_14
REMARK    7  A    between atoms: C_12  and  C_16
REMARK                            x       y       z     vdW  Elec       q    Type
REMARK                         _______ _______ _______ _____ _____    ______ ____
ROOT
ATOM      4  C   UNL     1     -11.066  -8.607  17.242  0.00  0.00    +0.047 C 
ATOM      5  C   UNL     1     -10.439  -7.258  16.839  0.00  0.00    +0.035 C 
ATOM      6  C   UNL     1     -11.093  -6.863  15.503  0.00  0.00    +0.078 C 
ATOM      8  C   UNL     1     -11.559  -9.134  15.925  0.00  0.00    -0.021 C 
ATOM      9  C   UNL     1     -11.580  -8.181  14.986  0.00  0.00    -0.012 C 
ENDROOT
BRANCH   4   7
ATOM      2  N   UNL     1      -8.368 -10.708  18.558  0.00  0.00    -0.236 N 
ATOM      3  N   UNL     1      -9.248 -10.925  19.551  0.00  0.00    -0.171 NA
ATOM      7  C   UNL     1     -10.104  -9.519  17.967  0.00  0.00    +0.003 A 
ATOM     10  C   UNL     1      -8.832  -9.873  17.584  0.00  0.00    +0.046 A 
ATOM     11  C   UNL     1     -10.306 -10.196  19.184  0.00  0.00    +0.064 A 
ATOM     13  C   UNL     1      -8.039  -9.492  16.398  0.00  0.00    +0.066 C 
ATOM     14  C   UNL     1     -11.503 -10.176  20.043  0.00  0.00    +0.068 C 
BRANCH   2  15
ATOM     15  C   UNL     1      -7.116 -11.321  18.597  0.00  0.00    +0.066 A 
ATOM     17  C   UNL     1      -6.882 -12.475  17.849  0.00  0.00    +0.028 A 
ATOM     18  C   UNL     1      -6.098 -10.780  19.381  0.00  0.00    +0.028 A 
ATOM     21  C   UNL     1      -5.630 -13.088  17.885  0.00  0.00    +0.002 A 
ATOM     22  C   UNL     1      -4.845 -11.394  19.419  0.00  0.00    +0.002 A 
ATOM     25  C   UNL     1      -4.612 -12.547  18.670  0.00  0.00    +0.000 A 
ENDBRANCH   2  15
ENDBRANCH   4   7
BRANCH   6   1
ATOM      1  N   UNL     1     -12.194  -5.925  15.689  0.00  0.00    -0.306 NA
ATOM     27  H   UNL     1     -11.859  -4.976  15.522  0.00  0.00    +0.123 HD
BRANCH   1  12
ATOM     12  C   UNL     1     -13.285  -6.211  14.768  0.00  0.00    +0.116 C 
BRANCH  12  16
ATOM     16  C   UNL     1     -13.422  -5.144  13.714  0.00  0.00    -0.034 A 
ATOM     19  C   UNL     1     -12.284  -4.594  13.125  0.00  0.00    +0.005 A 
ATOM     20  C   UNL     1     -14.688  -4.705  13.326  0.00  0.00    +0.005 A 
ATOM     23  C   UNL     1     -12.410  -3.606  12.149  0.00  0.00    +0.000 A 
ATOM     24  C   UNL     1     -14.815  -3.717  12.349  0.00  0.00    +0.000 A 
ATOM     26  C   UNL     1     -13.676  -3.168  11.761  0.00  0.00    +0.000 A 
ENDBRANCH  12  16
ENDBRANCH   1  12
ENDBRANCH   6   1
TORSDOF 5
ENDMDL
MODEL 6
REMARK VINA RESULT:      -6.8     27.172     29.420
REMARK  Name = 40780432
REMARK  7 active torsions:
REMARK  status: ('A' for Active; 'I' for Inactive)
REMARK    1  A    between atoms: N_1  and  C_6
REMARK    2  A    between atoms: N_1  and  C_12
REMARK    3  A    between atoms: N_2  and  C_15
REMARK    4  A    between atoms: C_4  and  C_7
REMARK    5  A    between atoms: C_10  and  C_13
REMARK    6  A    between atoms: C_11  and  C_14
REMARK    7  A    between atoms: C_12  and  C_16
REMARK                            x       y       z     vdW  Elec       q    Type
REMARK                         _______ _______ _______ _____ _____    ______ ____
ROOT
ATOM      4  C   UNL     1      -4.937 -11.216  16.196  0.00  0.00    +0.047 C 
ATOM      5  C   UNL     1      -3.596 -10.540  16.539  0.00  0.00    +0.035 C 
ATOM      6  C   UNL     1      -2.573 -11.073  15.520  0.00  0.00    +0.078 C 
ATOM      8  C   UNL     1      -4.494 -12.435  15.440  0.00  0.00    -0.021 C 
ATOM      9  C   UNL     1      -3.212 -12.349  15.068  0.00  0.00    -0.012 C 
ENDROOT
BRANCH   4   7
ATOM      2  N   UNL     1      -7.459 -11.793  18.789  0.00  0.00    -0.236 N 
ATOM      3  N   UNL     1      -6.379 -12.044  19.549  0.00  0.00    -0.171 NA
ATOM      7  C   UNL     1      -5.790 -11.500  17.410  0.00  0.00    +0.003 A 
ATOM     10  C   UNL     1      -7.161 -11.462  17.500  0.00  0.00    +0.046 A 
ATOM     11  C   UNL     1      -5.362 -11.864  18.701  0.00  0.00    +0.064 A 
ATOM     13  C   UNL     1      -8.188 -11.147  16.486  0.00  0.00    +0.066 C 
ATOM     14  C   UNL     1      -3.981 -12.055  19.175  0.00  0.00    +0.068 C 
BRANCH   2  15
ATOM     15  C   UNL     1      -8.733 -11.884  19.348  0.00  0.00    +0.066 A 
ATOM     17  C   UNL     1      -9.254 -13.130  19.700  0.00  0.00    +0.028 A 
ATOM     18  C   UNL     1      -9.488 -10.730  19.557  0.00  0.00    +0.028 A 
ATOM     21  C   UNL     1     -10.527 -13.220  20.261  0.00  0.00    +0.002 A 
ATOM     22  C   UNL     1     -10.763 -10.820  20.117  0.00  0.00    +0.002 A 
ATOM     25  C   UNL     1     -11.282 -12.066  20.469  0.00  0.00    +0.000 A 
ENDBRANCH   2  15
ENDBRANCH   4   7
BRANCH   6   1
ATOM      1  N   UNL     1      -2.379 -10.150  14.407  0.00  0.00    -0.306 NA
ATOM     27  H   UNL     1      -1.518  -9.623  14.553  0.00  0.00    +0.123 HD
BRANCH   1  12
ATOM     12  C   UNL     1      -2.285 -10.870  13.143  0.00  0.00    +0.116 C 
BRANCH  12  16
ATOM     16  C   UNL     1      -3.147 -10.246  12.078  0.00  0.00    -0.034 A 
ATOM     19  C   UNL     1      -2.569  -9.772  10.901  0.00  0.00    +0.005 A 
ATOM     20  C   UNL     1      -4.525 -10.142  12.268  0.00  0.00    +0.005 A 
ATOM     23  C   UNL     1      -3.366  -9.195   9.914  0.00  0.00    +0.000 A 
ATOM     24  C   UNL     1      -5.324  -9.565  11.281  0.00  0.00    +0.000 A 
ATOM     26  C   UNL     1      -4.744  -9.091  10.104  0.00  0.00    +0.000 A 
ENDBRANCH  12  16
ENDBRANCH   1  12
ENDBRANCH   6   1
TORSDOF 5
ENDMDL
MODEL 7
REMARK VINA RESULT:      -6.8     26.943     29.654
REMARK  Name = 40780432
REMARK  7 active torsions:
REMARK  status: ('A' for Active; 'I' for Inactive)
REMARK    1  A    between atoms: N_1  and  C_6
REMARK    2  A    between atoms: N_1  and  C_12
REMARK    3  A    between atoms: N_2  and  C_15
REMARK    4  A    between atoms: C_4  and  C_7
REMARK    5  A    between atoms: C_10  and  C_13
REMARK    6  A    between atoms: C_11  and  C_14
REMARK    7  A    between atoms: C_12  and  C_16
REMARK                            x       y       z     vdW  Elec       q    Type
REMARK                         _______ _______ _______ _____ _____    ______ ____
ROOT
ATOM      4  C   UNL     1      -5.154 -11.186  16.043  0.00  0.00    +0.047 C 
ATOM      5  C   UNL     1      -5.045 -12.671  16.441  0.00  0.00    +0.035 C 
ATOM      6  C   UNL     1      -4.909 -12.696  17.973  0.00  0.00    +0.078 C 
ATOM      8  C   UNL     1      -4.531 -10.495  17.221  0.00  0.00    -0.021 C 
ATOM      9  C   UNL     1      -4.407 -11.317  18.270  0.00  0.00    -0.012 C 
ENDROOT
BRANCH   4   7
ATOM      2  N   UNL     1      -4.132 -10.421  12.610  0.00  0.00    -0.236 N 
ATOM      3  N   UNL     1      -2.900 -10.457  13.145  0.00  0.00    -0.171 NA
ATOM      7  C   UNL     1      -4.508 -10.875  14.713  0.00  0.00    +0.003 A 
ATOM     10  C   UNL     1      -5.131 -10.666  13.507  0.00  0.00    +0.046 A 
ATOM     11  C   UNL     1      -3.136 -10.735  14.431  0.00  0.00    +0.064 A 
ATOM     13  C   UNL     1      -6.562 -10.676  13.143  0.00  0.00    +0.066 C 
ATOM     14  C   UNL     1      -2.003 -10.856  15.365  0.00  0.00    +0.068 C 
BRANCH   2  15
ATOM     15  C   UNL     1      -4.287 -10.153  11.250  0.00  0.00    +0.066 A 
ATOM     17  C   UNL     1      -4.189 -11.188  10.319  0.00  0.00    +0.028 A 
ATOM     18  C   UNL     1      -4.542  -8.852  10.819  0.00  0.00    +0.028 A 
ATOM     21  C   UNL     1      -4.346 -10.921   8.960  0.00  0.00    +0.002 A 
ATOM     22  C   UNL     1      -4.698  -8.584   9.459  0.00  0.00    +0.002 A 
ATOM     25  C   UNL     1      -4.600  -9.620   8.529  0.00  0.00    +0.000 A 
ENDBRANCH   2  15
ENDBRANCH   4   7
BRANCH   6   1
ATOM      1  N   UNL     1      -6.186 -12.951  18.632  0.00  0.00    -0.306 NA
ATOM     27  H   UNL     1      -6.109 -13.797  19.197  0.00  0.00    +0.123 HD
BRANCH   1  12
ATOM     12  C   UNL     1      -6.560 -11.838  19.494  0.00  0.00    +0.116 C 
BRANCH  12  16
ATOM     16  C   UNL     1      -7.916 -11.288  19.142  0.00  0.00    -0.034 A 
ATOM     19  C   UNL     1      -9.054 -11.770  19.788  0.00  0.00    +0.005 A 
ATOM     20  C   UNL     1      -8.035 -10.296  18.168  0.00  0.00    +0.005 A 
ATOM     23  C   UNL     1     -10.311 -11.261  19.463  0.00  0.00    +0.000 A 
ATOM     24  C   UNL     1      -9.293  -9.786  17.842  0.00  0.00    +0.000 A 
ATOM     26  C   UNL     1     -10.430 -10.269  18.489  0.00  0.00    +0.000 A 
ENDBRANCH  12  16
ENDBRANCH   1  12
ENDBRANCH   6   1
TORSDOF 5
ENDMDL
MODEL 8
REMARK VINA RESULT:      -6.8     27.484     29.058
REMARK  Name = 40780432
REMARK  7 active torsions:
REMARK  status: ('A' for Active; 'I' for Inactive)
REMARK    1  A    between atoms: N_1  and  C_6
REMARK    2  A    between atoms: N_1  and  C_12
REMARK    3  A    between atoms: N_2  and  C_15
REMARK    4  A    between atoms: C_4  and  C_7
REMARK    5  A    between atoms: C_10  and  C_13
REMARK    6  A    between atoms: C_11  and  C_14
REMARK    7  A    between atoms: C_12  and  C_16
REMARK                            x       y       z     vdW  Elec       q    Type
REMARK                         _______ _______ _______ _____ _____    ______ ____
ROOT
ATOM      4  C   UNL     1      -4.518 -11.591  14.535  0.00  0.00    +0.047 C 
ATOM      5  C   UNL     1      -3.168 -10.849  14.558  0.00  0.00    +0.035 C 
ATOM      6  C   UNL     1      -2.108 -11.872  14.117  0.00  0.00    +0.078 C 
ATOM      8  C   UNL     1      -4.093 -13.027  14.644  0.00  0.00    -0.021 C 
ATOM      9  C   UNL     1      -2.784 -13.176  14.408  0.00  0.00    -0.012 C 
ENDROOT
BRANCH   4   7
ATOM      2  N   UNL     1      -7.206 -10.384  16.711  0.00  0.00    -0.236 N 
ATOM      3  N   UNL     1      -6.300 -10.613  17.678  0.00  0.00    -0.171 NA
ATOM      7  C   UNL     1      -5.471 -11.131  15.613  0.00  0.00    +0.003 A 
ATOM     10  C   UNL     1      -6.759 -10.677  15.456  0.00  0.00    +0.046 A 
ATOM     11  C   UNL     1      -5.243 -11.070  17.000  0.00  0.00    +0.064 A 
ATOM     13  C   UNL     1      -7.582 -10.505  14.242  0.00  0.00    +0.066 C 
ATOM     14  C   UNL     1      -4.019 -11.441  17.732  0.00  0.00    +0.068 C 
BRANCH   2  15
ATOM     15  C   UNL     1      -8.466  -9.889  17.048  0.00  0.00    +0.066 A 
ATOM     17  C   UNL     1      -8.710  -8.516  17.002  0.00  0.00    +0.028 A 
ATOM     18  C   UNL     1      -9.481 -10.765  17.429  0.00  0.00    +0.028 A 
ATOM     21  C   UNL     1      -9.969  -8.020  17.336  0.00  0.00    +0.002 A 
ATOM     22  C   UNL     1     -10.742 -10.269  17.765  0.00  0.00    +0.002 A 
ATOM     25  C   UNL     1     -10.985  -8.896  17.717  0.00  0.00    +0.000 A 
ENDBRANCH   2  15
ENDBRANCH   4   7
BRANCH   6   1
ATOM      1  N   UNL     1      -1.781 -11.746  12.701  0.00  0.00    -0.306 NA
ATOM     27  H   UNL     1      -2.349 -12.404  12.166  0.00  0.00    +0.123 HD
BRANCH   1  12
ATOM     12  C   UNL     1      -2.043 -10.396  12.222  0.00  0.00    +0.116 C 
BRANCH  12  16
ATOM     16  C   UNL     1      -2.926 -10.395  11.003  0.00  0.00    -0.034 A 
ATOM     19  C   UNL     1      -3.490 -11.587  10.549  0.00  0.00    +0.005 A 
ATOM     20  C   UNL     1      -3.181  -9.202  10.327  0.00  0.00    +0.005 A 
ATOM     23  C   UNL     1      -4.309 -11.587   9.420  0.00  0.00    +0.000 A 
ATOM     24  C   UNL     1      -4.000  -9.201   9.197  0.00  0.00    +0.000 A 
ATOM     26  C   UNL     1      -4.563 -10.394   8.744  0.00  0.00    +0.000 A 
ENDBRANCH  12  16
ENDBRANCH   1  12
ENDBRANCH   6   1
TORSDOF 5
ENDMDL
MODEL 9
REMARK VINA RESULT:      -6.7      4.164      7.369
REMARK  Name = 40780432
REMARK  7 active torsions:
REMARK  status: ('A' for Active; 'I' for Inactive)
REMARK    1  A    between atoms: N_1  and  C_6
REMARK    2  A    between atoms: N_1  and  C_12
REMARK    3  A    between atoms: N_2  and  C_15
REMARK    4  A    between atoms: C_4  and  C_7
REMARK    5  A    between atoms: C_10  and  C_13
REMARK    6  A    between atoms: C_11  and  C_14
REMARK    7  A    between atoms: C_12  and  C_16
REMARK                            x       y       z     vdW  Elec       q    Type
REMARK                         _______ _______ _______ _____ _____    ______ ____
ROOT
ATOM      4  C   UNL     1      18.461   6.988  21.232  0.00  0.00    +0.047 C 
ATOM      5  C   UNL     1      19.533   6.161  20.496  0.00  0.00    +0.035 C 
ATOM      6  C   UNL     1      20.864   6.906  20.698  0.00  0.00    +0.078 C 
ATOM      8  C   UNL     1      19.098   8.346  21.299  0.00  0.00    -0.021 C 
ATOM      9  C   UNL     1      20.405   8.296  21.016  0.00  0.00    -0.012 C 
ENDROOT
BRANCH   4   7
ATOM      2  N   UNL     1      15.021   7.276  20.007  0.00  0.00    -0.236 N 
ATOM      3  N   UNL     1      15.465   6.433  19.058  0.00  0.00    -0.171 NA
ATOM      7  C   UNL     1      17.112   6.955  20.552  0.00  0.00    +0.003 A 
ATOM     10  C   UNL     1      15.968   7.619  20.927  0.00  0.00    +0.046 A 
ATOM     11  C   UNL     1      16.743   6.242  19.397  0.00  0.00    +0.064 A 
ATOM     13  C   UNL     1      15.707   8.533  22.057  0.00  0.00    +0.066 C 
ATOM     14  C   UNL     1      17.585   5.356  18.573  0.00  0.00    +0.068 C 
BRANCH   2  15
ATOM     15  C   UNL     1      13.696   7.709  19.981  0.00  0.00    +0.066 A 
ATOM     17  C   UNL     1      13.336   8.805  19.195  0.00  0.00    +0.028 A 
ATOM     18  C   UNL     1      12.730   7.049  20.739  0.00  0.00    +0.028 A 
ATOM     21  C   UNL     1      12.011   9.238  19.167  0.00  0.00    +0.002 A 
ATOM     22  C   UNL     1      11.404   7.482  20.712  0.00  0.00    +0.002 A 
ATOM     25  C   UNL     1      11.045   8.577  19.925  0.00  0.00    +0.000 A 
ENDBRANCH   2  15
ENDBRANCH   4   7
BRANCH   6   1
ATOM      1  N   UNL     1      21.646   6.341  21.792  0.00  0.00    -0.306 NA
ATOM     27  H   UNL     1      21.343   6.758  22.673  0.00  0.00    +0.123 HD
BRANCH   1  12
ATOM     12  C   UNL     1      21.471   4.897  21.867  0.00  0.00    +0.116 C 
BRANCH  12  16
ATOM     16  C   UNL     1      22.621   4.159  21.234  0.00  0.00    -0.034 A 
ATOM     19  C   UNL     1      22.739   2.779  21.395  0.00  0.00    +0.005 A 
ATOM     20  C   UNL     1      23.569   4.857  20.485  0.00  0.00    +0.005 A 
ATOM     23  C   UNL     1      23.803   2.095  20.808  0.00  0.00    +0.000 A 
ATOM     24  C   UNL     1      24.635   4.173  19.898  0.00  0.00    +0.000 A 
ATOM     26  C   UNL     1      24.751   2.793  20.060  0.00  0.00    +0.000 A 
ENDBRANCH  12  16
ENDBRANCH   1  12
ENDBRANCH   6   1
TORSDOF 5
ENDMDL
MODEL 10
REMARK VINA RESULT:      -6.6     28.111     30.350
REMARK  Name = 40780432
REMARK  7 active torsions:
REMARK  status: ('A' for Active; 'I' for Inactive)
REMARK    1  A    between atoms: N_1  and  C_6
REMARK    2  A    between atoms: N_1  and  C_12
REMARK    3  A    between atoms: N_2  and  C_15
REMARK    4  A    between atoms: C_4  and  C_7
REMARK    5  A    between atoms: C_10  and  C_13
REMARK    6  A    between atoms: C_11  and  C_14
REMARK    7  A    between atoms: C_12  and  C_16
REMARK                            x       y       z     vdW  Elec       q    Type
REMARK                         _______ _______ _______ _____ _____    ______ ____
ROOT
ATOM      4  C   UNL     1     -10.783  -8.930  15.587  0.00  0.00    +0.047 C 
ATOM      5  C   UNL     1      -9.570  -8.182  16.174  0.00  0.00    +0.035 C 
ATOM      6  C   UNL     1      -9.545  -8.516  17.675  0.00  0.00    +0.078 C 
ATOM      8  C   UNL     1     -11.640  -9.146  16.801  0.00  0.00    -0.021 C 
ATOM      9  C   UNL     1     -10.962  -8.927  17.933  0.00  0.00    -0.012 C 
ENDROOT
BRANCH   4   7
ATOM      2  N   UNL     1     -12.463  -6.677  13.238  0.00  0.00    -0.236 N 
ATOM      3  N   UNL     1     -12.331  -7.721  12.401  0.00  0.00    -0.171 NA
ATOM      7  C   UNL     1     -11.458  -8.182  14.461  0.00  0.00    +0.003 A 
ATOM     10  C   UNL     1     -11.957  -6.903  14.484  0.00  0.00    +0.046 A 
ATOM     11  C   UNL     1     -11.716  -8.637  13.154  0.00  0.00    +0.064 A 
ATOM     13  C   UNL     1     -11.990  -5.898  15.566  0.00  0.00    +0.066 C 
ATOM     14  C   UNL     1     -11.389  -9.951  12.573  0.00  0.00    +0.068 C 
BRANCH   2  15
ATOM     15  C   UNL     1     -13.078  -5.507  12.792  0.00  0.00    +0.066 A 
ATOM     17  C   UNL     1     -12.323  -4.525  12.150  0.00  0.00    +0.028 A 
ATOM     18  C   UNL     1     -14.445  -5.319  12.986  0.00  0.00    +0.028 A 
ATOM     21  C   UNL     1     -12.937  -3.356  11.702  0.00  0.00    +0.002 A 
ATOM     22  C   UNL     1     -15.060  -4.148  12.539  0.00  0.00    +0.002 A 
ATOM     25  C   UNL     1     -14.304  -3.167  11.896  0.00  0.00    +0.000 A 
ENDBRANCH   2  15
ENDBRANCH   4   7
BRANCH   6   1
ATOM      1  N   UNL     1      -8.613  -9.596  17.981  0.00  0.00    -0.306 NA
ATOM     27  H   UNL     1      -9.065 -10.492  17.795  0.00  0.00    +0.123 HD
BRANCH   1  12
ATOM     12  C   UNL     1      -7.411  -9.494  17.165  0.00  0.00    +0.116 C 
BRANCH  12  16
ATOM     16  C   UNL     1      -6.270 -10.284  17.748  0.00  0.00    -0.034 A 
ATOM     19  C   UNL     1      -6.397 -10.867  19.009  0.00  0.00    +0.005 A 
ATOM     20  C   UNL     1      -5.085 -10.434  17.027  0.00  0.00    +0.005 A 
ATOM     23  C   UNL     1      -5.340 -11.599  19.550  0.00  0.00    +0.000 A 
ATOM     24  C   UNL     1      -4.027 -11.167  17.568  0.00  0.00    +0.000 A 
ATOM     26  C   UNL     1      -4.156 -11.749  18.829  0.00  0.00    +0.000 A 
ENDBRANCH  12  16
ENDBRANCH   1  12
ENDBRANCH   6   1
TORSDOF 5
ENDMDL
