MODEL 1
REMARK VINA RESULT:      -6.6      0.000      0.000
REMARK  Name = 7143826
REMARK  7 active torsions:
REMARK  status: ('A' for Active; 'I' for Inactive)
REMARK    1  A    between atoms: S_1  and  C_27
REMARK    2  A    between atoms: S_1  and  C_28
REMARK    3  A    between atoms: C_13  and  C_15
REMARK    4  A    between atoms: C_15  and  C_19
REMARK    5  A    between atoms: C_15  and  C_20
REMARK    6  A    between atoms: C_15  and  C_21
REMARK    7  A    between atoms: C_17  and  C_22
REMARK                            x       y       z     vdW  Elec       q    Type
REMARK                         _______ _______ _______ _____ _____    ______ ____
ROOT
ATOM      2  O   UNL     1      13.275   5.989  -2.458  0.00  0.00    -0.275 OA
ATOM      3  O   UNL     1      12.156   7.850   2.429  0.00  0.00    -0.267 OA
ATOM      4  N   UNL     1      13.609   4.340  -0.856  0.00  0.00    -0.300 N 
ATOM      5  N   UNL     1      12.718   5.644   1.920  0.00  0.00    -0.311 N 
ATOM      6  C   UNL     1      15.045   4.972   1.087  0.00  0.00    +0.027 C 
ATOM      7  C   UNL     1      13.305   3.258   1.364  0.00  0.00    +0.054 C 
ATOM      8  C   UNL     1      14.738   3.629   1.738  0.00  0.00    +0.018 C 
ATOM      9  C   UNL     1      14.907   4.876  -0.442  0.00  0.00    +0.113 C 
ATOM     10  C   UNL     1      13.193   3.110  -0.167  0.00  0.00    +0.117 C 
ATOM     11  C   UNL     1      14.115   6.036   1.683  0.00  0.00    +0.130 C 
ATOM     12  C   UNL     1      12.323   4.306   1.852  0.00  0.00    +0.027 A 
ATOM     13  C   UNL     1      12.908   4.956  -1.893  0.00  0.00    +0.221 C 
ATOM     14  C   UNL     1      11.072   3.956   2.189  0.00  0.00    +0.022 A 
ATOM     16  C   UNL     1      11.835   6.664   2.323  0.00  0.00    +0.259 A 
ATOM     17  C   UNL     1      10.429   6.247   2.659  0.00  0.00    +0.047 A 
ATOM     18  C   UNL     1      10.112   4.944   2.593  0.00  0.00    +0.015 A 
ENDROOT
BRANCH  17  22
ATOM     22  C   UNL     1       9.410   7.237   3.047  0.00  0.00    -0.013 A 
ATOM     23  C   UNL     1       8.842   8.069   2.082  0.00  0.00    +0.010 A 
ATOM     24  C   UNL     1       9.013   7.344   4.380  0.00  0.00    +0.010 A 
ATOM     25  C   UNL     1       7.877   9.008   2.450  0.00  0.00    +0.015 A 
ATOM     26  C   UNL     1       8.048   8.283   4.748  0.00  0.00    +0.015 A 
ATOM     27  C   UNL     1       7.481   9.114   3.783  0.00  0.00    +0.008 A 
BRANCH  27   1
ATOM      1  S   UNL     1       6.250  10.313   4.253  0.00  0.00    -0.129 S 
ATOM     28  C   UNL     1       5.123  10.264   2.831  0.00  0.00    +0.090 C 
ENDBRANCH  27   1
ENDBRANCH  17  22
BRANCH  13  15
ATOM     15  C   UNL     1      11.621   4.298  -2.323  0.00  0.00    +0.039 C 
ATOM     19  C   UNL     1      11.270   4.820  -3.716  0.00  0.00    +0.020 C 
ATOM     20  C   UNL     1      10.523   4.662  -1.322  0.00  0.00    +0.020 C 
ATOM     21  C   UNL     1      11.829   2.783  -2.355  0.00  0.00    +0.020 C 
ENDBRANCH  13  15
TORSDOF 3
ENDMDL
MODEL 2
REMARK VINA RESULT:      -6.4     25.458     28.434
REMARK  Name = 7143826
REMARK  7 active torsions:
REMARK  status: ('A' for Active; 'I' for Inactive)
REMARK    1  A    between atoms: S_1  and  C_27
REMARK    2  A    between atoms: S_1  and  C_28
REMARK    3  A    between atoms: C_13  and  C_15
REMARK    4  A    between atoms: C_15  and  C_19
REMARK    5  A    between atoms: C_15  and  C_20
REMARK    6  A    between atoms: C_15  and  C_21
REMARK    7  A    between atoms: C_17  and  C_22
REMARK                            x       y       z     vdW  Elec       q    Type
REMARK                         _______ _______ _______ _____ _____    ______ ____
ROOT
ATOM      2  O   UNL     1     -16.640  -5.709  10.043  0.00  0.00    -0.275 OA
ATOM      3  O   UNL     1     -11.615  -7.537  10.022  0.00  0.00    -0.267 OA
ATOM      4  N   UNL     1     -15.286  -4.402  11.404  0.00  0.00    -0.300 N 
ATOM      5  N   UNL     1     -12.339  -5.591  11.085  0.00  0.00    -0.311 N 
ATOM      6  C   UNL     1     -13.922  -5.630  13.098  0.00  0.00    +0.027 C 
ATOM      7  C   UNL     1     -13.121  -3.480  12.214  0.00  0.00    +0.054 C 
ATOM      8  C   UNL     1     -13.240  -4.322  13.483  0.00  0.00    +0.018 C 
ATOM      9  C   UNL     1     -15.318  -5.360  12.512  0.00  0.00    +0.113 C 
ATOM     10  C   UNL     1     -14.529  -3.169  11.667  0.00  0.00    +0.117 C 
ATOM     11  C   UNL     1     -13.021  -6.387  12.116  0.00  0.00    +0.130 C 
ATOM     12  C   UNL     1     -12.306  -4.197  11.156  0.00  0.00    +0.027 A 
ATOM     13  C   UNL     1     -16.012  -4.667  10.243  0.00  0.00    +0.221 C 
ATOM     14  C   UNL     1     -11.577  -3.496  10.273  0.00  0.00    +0.022 A 
ATOM     16  C   UNL     1     -11.637  -6.307  10.095  0.00  0.00    +0.259 A 
ATOM     17  C   UNL     1     -10.860  -5.492   9.097  0.00  0.00    +0.047 A 
ATOM     18  C   UNL     1     -10.850  -4.156   9.226  0.00  0.00    +0.015 A 
ENDROOT
BRANCH  17  22
ATOM     22  C   UNL     1     -10.128  -6.134   7.993  0.00  0.00    -0.013 A 
ATOM     23  C   UNL     1     -10.811  -6.547   6.848  0.00  0.00    +0.010 A 
ATOM     24  C   UNL     1      -8.749  -6.331   8.090  0.00  0.00    +0.010 A 
ATOM     25  C   UNL     1     -10.116  -7.156   5.802  0.00  0.00    +0.015 A 
ATOM     26  C   UNL     1      -8.056  -6.939   7.044  0.00  0.00    +0.015 A 
ATOM     27  C   UNL     1      -8.739  -7.352   5.900  0.00  0.00    +0.008 A 
BRANCH  27   1
ATOM      1  S   UNL     1      -7.852  -8.130   4.565  0.00  0.00    -0.129 S 
ATOM     28  C   UNL     1      -6.709  -9.216   5.463  0.00  0.00    +0.090 C 
ENDBRANCH  27   1
ENDBRANCH  17  22
BRANCH  13  15
ATOM     15  C   UNL     1     -16.002  -3.596   9.181  0.00  0.00    +0.039 C 
ATOM     19  C   UNL     1     -17.133  -3.900   8.199  0.00  0.00    +0.020 C 
ATOM     20  C   UNL     1     -14.650  -3.624   8.467  0.00  0.00    +0.020 C 
ATOM     21  C   UNL     1     -16.223  -2.238   9.849  0.00  0.00    +0.020 C 
ENDBRANCH  13  15
TORSDOF 3
ENDMDL
MODEL 3
REMARK VINA RESULT:      -6.3     27.772     30.166
REMARK  Name = 7143826
REMARK  7 active torsions:
REMARK  status: ('A' for Active; 'I' for Inactive)
REMARK    1  A    between atoms: S_1  and  C_27
REMARK    2  A    between atoms: S_1  and  C_28
REMARK    3  A    between atoms: C_13  and  C_15
REMARK    4  A    between atoms: C_15  and  C_19
REMARK    5  A    between atoms: C_15  and  C_20
REMARK    6  A    between atoms: C_15  and  C_21
REMARK    7  A    between atoms: C_17  and  C_22
REMARK                            x       y       z     vdW  Elec       q    Type
REMARK                         _______ _______ _______ _____ _____    ______ ____
ROOT
ATOM      2  O   UNL     1     -14.559  11.577  16.117  0.00  0.00    -0.275 OA
ATOM      3  O   UNL     1     -12.898   9.752  20.861  0.00  0.00    -0.267 OA
ATOM      4  N   UNL     1     -12.278  11.140  16.075  0.00  0.00    -0.300 N 
ATOM      5  N   UNL     1     -11.582   9.917  18.942  0.00  0.00    -0.311 N 
ATOM      6  C   UNL     1     -10.930  12.168  17.909  0.00  0.00    +0.027 C 
ATOM      7  C   UNL     1     -10.170  10.077  16.863  0.00  0.00    +0.054 C 
ATOM      8  C   UNL     1      -9.698  11.423  17.408  0.00  0.00    +0.018 C 
ATOM      9  C   UNL     1     -11.933  12.385  16.764  0.00  0.00    +0.113 C 
ATOM     10  C   UNL     1     -11.132  10.308  15.680  0.00  0.00    +0.117 C 
ATOM     11  C   UNL     1     -11.545  11.381  19.072  0.00  0.00    +0.130 C 
ATOM     12  C   UNL     1     -10.864   9.264  17.938  0.00  0.00    +0.027 A 
ATOM     13  C   UNL     1     -13.611  10.864  15.775  0.00  0.00    +0.221 C 
ATOM     14  C   UNL     1     -10.815   7.923  17.910  0.00  0.00    +0.022 A 
ATOM     16  C   UNL     1     -12.283   9.212  19.940  0.00  0.00    +0.259 A 
ATOM     17  C   UNL     1     -12.240   7.709  19.861  0.00  0.00    +0.047 A 
ATOM     18  C   UNL     1     -11.518   7.137  18.884  0.00  0.00    +0.015 A 
ENDROOT
BRANCH  17  22
ATOM     22  C   UNL     1     -12.975   6.873  20.825  0.00  0.00    -0.013 A 
ATOM     23  C   UNL     1     -14.350   7.040  20.988  0.00  0.00    +0.010 A 
ATOM     24  C   UNL     1     -12.295   5.913  21.576  0.00  0.00    +0.010 A 
ATOM     25  C   UNL     1     -15.046   6.247  21.902  0.00  0.00    +0.015 A 
ATOM     26  C   UNL     1     -12.992   5.120  22.489  0.00  0.00    +0.015 A 
ATOM     27  C   UNL     1     -14.367   5.288  22.652  0.00  0.00    +0.008 A 
BRANCH  27   1
ATOM      1  S   UNL     1     -15.255   4.277  23.819  0.00  0.00    -0.129 S 
ATOM     28  C   UNL     1     -16.648   5.353  24.257  0.00  0.00    +0.090 C 
ENDBRANCH  27   1
ENDBRANCH  17  22
BRANCH  13  15
ATOM     15  C   UNL     1     -13.881   9.606  14.988  0.00  0.00    +0.039 C 
ATOM     19  C   UNL     1     -15.282   9.720  14.387  0.00  0.00    +0.020 C 
ATOM     20  C   UNL     1     -13.799   8.407  15.934  0.00  0.00    +0.020 C 
ATOM     21  C   UNL     1     -12.833   9.483  13.882  0.00  0.00    +0.020 C 
ENDBRANCH  13  15
TORSDOF 3
ENDMDL
MODEL 4
REMARK VINA RESULT:      -6.1      5.119      8.121
REMARK  Name = 7143826
REMARK  7 active torsions:
REMARK  status: ('A' for Active; 'I' for Inactive)
REMARK    1  A    between atoms: S_1  and  C_27
REMARK    2  A    between atoms: S_1  and  C_28
REMARK    3  A    between atoms: C_13  and  C_15
REMARK    4  A    between atoms: C_15  and  C_19
REMARK    5  A    between atoms: C_15  and  C_20
REMARK    6  A    between atoms: C_15  and  C_21
REMARK    7  A    between atoms: C_17  and  C_22
REMARK                            x       y       z     vdW  Elec       q    Type
REMARK                         _______ _______ _______ _____ _____    ______ ____
ROOT
ATOM      2  O   UNL     1      10.456   4.765   3.717  0.00  0.00    -0.275 OA
ATOM      3  O   UNL     1      13.895   6.764   7.291  0.00  0.00    -0.267 OA
ATOM      4  N   UNL     1       9.386   6.255   5.141  0.00  0.00    -0.300 N 
ATOM      5  N   UNL     1      11.669   7.419   7.046  0.00  0.00    -0.311 N 
ATOM      6  C   UNL     1       9.708   5.862   7.586  0.00  0.00    +0.027 C 
ATOM      7  C   UNL     1       9.272   8.138   6.764  0.00  0.00    +0.054 C 
ATOM      8  C   UNL     1       8.949   7.150   7.883  0.00  0.00    +0.018 C 
ATOM      9  C   UNL     1       9.277   5.281   6.229  0.00  0.00    +0.113 C 
ATOM     10  C   UNL     1       8.785   7.569   5.417  0.00  0.00    +0.117 C 
ATOM     11  C   UNL     1      11.213   6.152   7.636  0.00  0.00    +0.130 C 
ATOM     12  C   UNL     1      10.761   8.419   6.694  0.00  0.00    +0.027 A 
ATOM     13  C   UNL     1       9.956   5.873   3.927  0.00  0.00    +0.221 C 
ATOM     14  C   UNL     1      11.205   9.613   6.271  0.00  0.00    +0.022 A 
ATOM     16  C   UNL     1      13.062   7.609   6.958  0.00  0.00    +0.259 A 
ATOM     17  C   UNL     1      13.529   8.945   6.444  0.00  0.00    +0.047 A 
ATOM     18  C   UNL     1      12.610   9.874   6.139  0.00  0.00    +0.015 A 
ENDROOT
BRANCH  17  22
ATOM     22  C   UNL     1      14.962   9.236   6.267  0.00  0.00    -0.013 A 
ATOM     23  C   UNL     1      15.475  10.475   6.652  0.00  0.00    +0.010 A 
ATOM     24  C   UNL     1      15.807   8.273   5.715  0.00  0.00    +0.010 A 
ATOM     25  C   UNL     1      16.833  10.751   6.484  0.00  0.00    +0.015 A 
ATOM     26  C   UNL     1      17.165   8.549   5.548  0.00  0.00    +0.015 A 
ATOM     27  C   UNL     1      17.677   9.788   5.932  0.00  0.00    +0.008 A 
BRANCH  27   1
ATOM      1  S   UNL     1      19.410  10.140   5.717  0.00  0.00    -0.129 S 
ATOM     28  C   UNL     1      20.140   9.294   7.147  0.00  0.00    +0.090 C 
ENDBRANCH  27   1
ENDBRANCH  17  22
BRANCH  13  15
ATOM     15  C   UNL     1       9.955   6.902   2.825  0.00  0.00    +0.039 C 
ATOM     19  C   UNL     1      10.071   6.163   1.492  0.00  0.00    +0.020 C 
ATOM     20  C   UNL     1      11.148   7.838   3.024  0.00  0.00    +0.020 C 
ATOM     21  C   UNL     1       8.646   7.690   2.888  0.00  0.00    +0.020 C 
ENDBRANCH  13  15
TORSDOF 3
ENDMDL
MODEL 5
REMARK VINA RESULT:      -6.1     24.431     26.169
REMARK  Name = 7143826
REMARK  7 active torsions:
REMARK  status: ('A' for Active; 'I' for Inactive)
REMARK    1  A    between atoms: S_1  and  C_27
REMARK    2  A    between atoms: S_1  and  C_28
REMARK    3  A    between atoms: C_13  and  C_15
REMARK    4  A    between atoms: C_15  and  C_19
REMARK    5  A    between atoms: C_15  and  C_20
REMARK    6  A    between atoms: C_15  and  C_21
REMARK    7  A    between atoms: C_17  and  C_22
REMARK                            x       y       z     vdW  Elec       q    Type
REMARK                         _______ _______ _______ _____ _____    ______ ____
ROOT
ATOM      2  O   UNL     1      -5.690 -13.328  15.228  0.00  0.00    -0.275 OA
ATOM      3  O   UNL     1      -4.693 -13.085   9.979  0.00  0.00    -0.267 OA
ATOM      4  N   UNL     1      -3.437 -12.919  14.838  0.00  0.00    -0.300 N 
ATOM      5  N   UNL     1      -3.143 -12.656  11.669  0.00  0.00    -0.311 N 
ATOM      6  C   UNL     1      -2.296 -14.478  13.256  0.00  0.00    +0.027 C 
ATOM      7  C   UNL     1      -1.479 -12.172  13.497  0.00  0.00    +0.054 C 
ATOM      8  C   UNL     1      -1.036 -13.624  13.339  0.00  0.00    +0.018 C 
ATOM      9  C   UNL     1      -3.141 -14.320  14.531  0.00  0.00    +0.113 C 
ATOM     10  C   UNL     1      -2.278 -12.015  14.806  0.00  0.00    +0.117 C 
ATOM     11  C   UNL     1      -3.076 -14.088  11.995  0.00  0.00    +0.130 C 
ATOM     12  C   UNL     1      -2.328 -11.728  12.321  0.00  0.00    +0.027 A 
ATOM     13  C   UNL     1      -4.731 -12.553  15.207  0.00  0.00    +0.221 C 
ATOM     14  C   UNL     1      -2.318 -10.445  11.925  0.00  0.00    +0.022 A 
ATOM     16  C   UNL     1      -3.986 -12.290  10.601  0.00  0.00    +0.259 A 
ATOM     17  C   UNL     1      -3.981 -10.838  10.204  0.00  0.00    +0.047 A 
ATOM     18  C   UNL     1      -3.163  -9.996  10.855  0.00  0.00    +0.015 A 
ENDROOT
BRANCH  17  22
ATOM     22  C   UNL     1      -4.857 -10.337   9.132  0.00  0.00    -0.013 A 
ATOM     23  C   UNL     1      -4.672 -10.773   7.819  0.00  0.00    +0.010 A 
ATOM     24  C   UNL     1      -5.872  -9.426   9.427  0.00  0.00    +0.010 A 
ATOM     25  C   UNL     1      -5.502 -10.297   6.803  0.00  0.00    +0.015 A 
ATOM     26  C   UNL     1      -6.701  -8.951   8.410  0.00  0.00    +0.015 A 
ATOM     27  C   UNL     1      -6.516  -9.387   7.099  0.00  0.00    +0.008 A 
BRANCH  27   1
ATOM      1  S   UNL     1      -7.575  -8.779   5.801  0.00  0.00    -0.129 S 
ATOM     28  C   UNL     1      -8.279  -7.291   6.564  0.00  0.00    +0.090 C 
ENDBRANCH  27   1
ENDBRANCH  17  22
BRANCH  13  15
ATOM     15  C   UNL     1      -4.941 -11.110  15.593  0.00  0.00    +0.039 C 
ATOM     19  C   UNL     1      -5.054 -10.292  14.307  0.00  0.00    +0.020 C 
ATOM     20  C   UNL     1      -3.743 -10.643  16.422  0.00  0.00    +0.020 C 
ATOM     21  C   UNL     1      -6.228 -11.002  16.412  0.00  0.00    +0.020 C 
ENDBRANCH  13  15
TORSDOF 3
ENDMDL
MODEL 6
REMARK VINA RESULT:      -6.1     26.128     27.649
REMARK  Name = 7143826
REMARK  7 active torsions:
REMARK  status: ('A' for Active; 'I' for Inactive)
REMARK    1  A    between atoms: S_1  and  C_27
REMARK    2  A    between atoms: S_1  and  C_28
REMARK    3  A    between atoms: C_13  and  C_15
REMARK    4  A    between atoms: C_15  and  C_19
REMARK    5  A    between atoms: C_15  and  C_20
REMARK    6  A    between atoms: C_15  and  C_21
REMARK    7  A    between atoms: C_17  and  C_22
REMARK                            x       y       z     vdW  Elec       q    Type
REMARK                         _______ _______ _______ _____ _____    ______ ____
ROOT
ATOM      2  O   UNL     1      -4.491 -14.423  11.493  0.00  0.00    -0.275 OA
ATOM      3  O   UNL     1      -6.791 -10.237  13.897  0.00  0.00    -0.267 OA
ATOM      4  N   UNL     1      -2.920 -12.773  11.947  0.00  0.00    -0.300 N 
ATOM      5  N   UNL     1      -4.503 -10.485  13.515  0.00  0.00    -0.311 N 
ATOM      6  C   UNL     1      -3.489 -10.471  11.164  0.00  0.00    +0.027 C 
ATOM      7  C   UNL     1      -2.031 -10.767  13.121  0.00  0.00    +0.054 C 
ATOM      8  C   UNL     1      -2.241  -9.938  11.857  0.00  0.00    +0.018 C 
ATOM      9  C   UNL     1      -3.312 -11.954  10.798  0.00  0.00    +0.113 C 
ATOM     10  C   UNL     1      -1.800 -12.242  12.738  0.00  0.00    +0.117 C 
ATOM     11  C   UNL     1      -4.698 -10.243  12.078  0.00  0.00    +0.130 C 
ATOM     12  C   UNL     1      -3.225 -10.659  14.051  0.00  0.00    +0.027 A 
ATOM     13  C   UNL     1      -3.552 -13.997  12.169  0.00  0.00    +0.221 C 
ATOM     14  C   UNL     1      -3.059 -10.758  15.379  0.00  0.00    +0.022 A 
ATOM     16  C   UNL     1      -5.652 -10.423  14.328  0.00  0.00    +0.259 A 
ATOM     17  C   UNL     1      -5.439 -10.575  15.811  0.00  0.00    +0.047 A 
ATOM     18  C   UNL     1      -4.186 -10.720  16.269  0.00  0.00    +0.015 A 
ENDROOT
BRANCH  17  22
ATOM     22  C   UNL     1      -6.574 -10.572  16.749  0.00  0.00    -0.013 A 
ATOM     23  C   UNL     1      -6.867 -11.715  17.494  0.00  0.00    +0.010 A 
ATOM     24  C   UNL     1      -7.357  -9.426  16.894  0.00  0.00    +0.010 A 
ATOM     25  C   UNL     1      -7.943 -11.711  18.383  0.00  0.00    +0.015 A 
ATOM     26  C   UNL     1      -8.432  -9.423  17.783  0.00  0.00    +0.015 A 
ATOM     27  C   UNL     1      -8.725 -10.566  18.527  0.00  0.00    +0.008 A 
BRANCH  27   1
ATOM      1  S   UNL     1     -10.099 -10.562  19.661  0.00  0.00    -0.129 S 
ATOM     28  C   UNL     1     -10.253 -12.325  20.062  0.00  0.00    +0.090 C 
ENDBRANCH  27   1
ENDBRANCH  17  22
BRANCH  13  15
ATOM     15  C   UNL     1      -3.036 -14.824  13.320  0.00  0.00    +0.039 C 
ATOM     19  C   UNL     1      -3.514 -16.262  13.114  0.00  0.00    +0.020 C 
ATOM     20  C   UNL     1      -3.595 -14.255  14.625  0.00  0.00    +0.020 C 
ATOM     21  C   UNL     1      -1.508 -14.763  13.324  0.00  0.00    +0.020 C 
ENDBRANCH  13  15
TORSDOF 3
ENDMDL
MODEL 7
REMARK VINA RESULT:      -6.0      3.641      7.631
REMARK  Name = 7143826
REMARK  7 active torsions:
REMARK  status: ('A' for Active; 'I' for Inactive)
REMARK    1  A    between atoms: S_1  and  C_27
REMARK    2  A    between atoms: S_1  and  C_28
REMARK    3  A    between atoms: C_13  and  C_15
REMARK    4  A    between atoms: C_15  and  C_19
REMARK    5  A    between atoms: C_15  and  C_20
REMARK    6  A    between atoms: C_15  and  C_21
REMARK    7  A    between atoms: C_17  and  C_22
REMARK                            x       y       z     vdW  Elec       q    Type
REMARK                         _______ _______ _______ _____ _____    ______ ____
ROOT
ATOM      2  O   UNL     1      12.105   6.208   7.566  0.00  0.00    -0.275 OA
ATOM      3  O   UNL     1      12.224   7.915   2.500  0.00  0.00    -0.267 OA
ATOM      4  N   UNL     1      10.852   8.148   7.325  0.00  0.00    -0.300 N 
ATOM      5  N   UNL     1      10.948   8.855   4.212  0.00  0.00    -0.311 N 
ATOM      6  C   UNL     1      12.001  10.064   6.209  0.00  0.00    +0.027 C 
ATOM      7  C   UNL     1       9.556   9.854   6.058  0.00  0.00    +0.054 C 
ATOM      8  C   UNL     1      10.697  10.852   6.241  0.00  0.00    +0.018 C 
ATOM      9  C   UNL     1      12.030   9.020   7.337  0.00  0.00    +0.113 C 
ATOM     10  C   UNL     1       9.561   8.845   7.224  0.00  0.00    +0.117 C 
ATOM     11  C   UNL     1      12.158   9.423   4.825  0.00  0.00    +0.130 C 
ATOM     12  C   UNL     1       9.682   9.115   4.740  0.00  0.00    +0.027 A 
ATOM     13  C   UNL     1      11.012   6.772   7.484  0.00  0.00    +0.221 C 
ATOM     14  C   UNL     1       8.584   8.687   4.097  0.00  0.00    +0.022 A 
ATOM     16  C   UNL     1      11.126   8.134   3.015  0.00  0.00    +0.259 A 
ATOM     17  C   UNL     1       9.878   7.635   2.336  0.00  0.00    +0.047 A 
ATOM     18  C   UNL     1       8.688   7.932   2.880  0.00  0.00    +0.015 A 
ENDROOT
BRANCH  17  22
ATOM     22  C   UNL     1       9.949   6.832   1.104  0.00  0.00    -0.013 A 
ATOM     23  C   UNL     1       9.756   7.439  -0.138  0.00  0.00    +0.010 A 
ATOM     24  C   UNL     1      10.208   5.462   1.177  0.00  0.00    +0.010 A 
ATOM     25  C   UNL     1       9.823   6.676  -1.305  0.00  0.00    +0.015 A 
ATOM     26  C   UNL     1      10.274   4.701   0.010  0.00  0.00    +0.015 A 
ATOM     27  C   UNL     1      10.082   5.308  -1.231  0.00  0.00    +0.008 A 
BRANCH  27   1
ATOM      1  S   UNL     1      10.166   4.336  -2.721  0.00  0.00    -0.129 S 
ATOM     28  C   UNL     1      11.204   2.943  -2.196  0.00  0.00    +0.090 C 
ENDBRANCH  27   1
ENDBRANCH  17  22
BRANCH  13  15
ATOM     15  C   UNL     1       9.750   5.949   7.549  0.00  0.00    +0.039 C 
ATOM     19  C   UNL     1      10.085   4.631   8.248  0.00  0.00    +0.020 C 
ATOM     20  C   UNL     1       9.257   5.690   6.125  0.00  0.00    +0.020 C 
ATOM     21  C   UNL     1       8.697   6.723   8.343  0.00  0.00    +0.020 C 
ENDBRANCH  13  15
TORSDOF 3
ENDMDL
MODEL 8
REMARK VINA RESULT:      -6.0     18.014     20.839
REMARK  Name = 7143826
REMARK  7 active torsions:
REMARK  status: ('A' for Active; 'I' for Inactive)
REMARK    1  A    between atoms: S_1  and  C_27
REMARK    2  A    between atoms: S_1  and  C_28
REMARK    3  A    between atoms: C_13  and  C_15
REMARK    4  A    between atoms: C_15  and  C_19
REMARK    5  A    between atoms: C_15  and  C_20
REMARK    6  A    between atoms: C_15  and  C_21
REMARK    7  A    between atoms: C_17  and  C_22
REMARK                            x       y       z     vdW  Elec       q    Type
REMARK                         _______ _______ _______ _____ _____    ______ ____
ROOT
ATOM      2  O   UNL     1      10.603   9.206  20.126  0.00  0.00    -0.275 OA
ATOM      3  O   UNL     1      15.084  12.005  19.299  0.00  0.00    -0.267 OA
ATOM      4  N   UNL     1      12.209   7.894  19.080  0.00  0.00    -0.300 N 
ATOM      5  N   UNL     1      14.812   9.731  18.857  0.00  0.00    -0.311 N 
ATOM      6  C   UNL     1      13.248   8.861  17.025  0.00  0.00    +0.027 C 
ATOM      7  C   UNL     1      14.521   7.271  18.402  0.00  0.00    +0.054 C 
ATOM      8  C   UNL     1      14.206   7.677  16.964  0.00  0.00    +0.018 C 
ATOM      9  C   UNL     1      11.954   8.472  17.759  0.00  0.00    +0.113 C 
ATOM     10  C   UNL     1      13.224   6.830  19.109  0.00  0.00    +0.117 C 
ATOM     11  C   UNL     1      13.961  10.039  17.699  0.00  0.00    +0.130 C 
ATOM     12  C   UNL     1      15.160   8.414  19.166  0.00  0.00    +0.027 A 
ATOM     13  C   UNL     1      11.450   8.310  20.173  0.00  0.00    +0.221 C 
ATOM     14  C   UNL     1      16.034   8.163  20.153  0.00  0.00    +0.022 A 
ATOM     16  C   UNL     1      15.340  10.829  19.564  0.00  0.00    +0.259 A 
ATOM     17  C   UNL     1      16.289  10.514  20.690  0.00  0.00    +0.047 A 
ATOM     18  C   UNL     1      16.601   9.231  20.928  0.00  0.00    +0.015 A 
ENDROOT
BRANCH  17  22
ATOM     22  C   UNL     1      16.864  11.582  21.524  0.00  0.00    -0.013 A 
ATOM     23  C   UNL     1      16.179  12.031  22.654  0.00  0.00    +0.010 A 
ATOM     24  C   UNL     1      18.095  12.146  21.185  0.00  0.00    +0.010 A 
ATOM     25  C   UNL     1      16.725  13.044  23.444  0.00  0.00    +0.015 A 
ATOM     26  C   UNL     1      18.640  13.159  21.976  0.00  0.00    +0.015 A 
ATOM     27  C   UNL     1      17.955  13.607  23.105  0.00  0.00    +0.008 A 
BRANCH  27   1
ATOM      1  S   UNL     1      18.651  14.901  24.113  0.00  0.00    -0.129 S 
ATOM     28  C   UNL     1      19.143  13.986  25.601  0.00  0.00    +0.090 C 
ENDBRANCH  27   1
ENDBRANCH  17  22
BRANCH  13  15
ATOM     15  C   UNL     1      11.710   7.609  21.482  0.00  0.00    +0.039 C 
ATOM     19  C   UNL     1      10.709   8.143  22.507  0.00  0.00    +0.020 C 
ATOM     20  C   UNL     1      13.142   7.908  21.926  0.00  0.00    +0.020 C 
ATOM     21  C   UNL     1      11.519   6.105  21.281  0.00  0.00    +0.020 C 
ENDBRANCH  13  15
TORSDOF 3
ENDMDL
MODEL 9
REMARK VINA RESULT:      -5.9     34.152     36.405
REMARK  Name = 7143826
REMARK  7 active torsions:
REMARK  status: ('A' for Active; 'I' for Inactive)
REMARK    1  A    between atoms: S_1  and  C_27
REMARK    2  A    between atoms: S_1  and  C_28
REMARK    3  A    between atoms: C_13  and  C_15
REMARK    4  A    between atoms: C_15  and  C_19
REMARK    5  A    between atoms: C_15  and  C_20
REMARK    6  A    between atoms: C_15  and  C_21
REMARK    7  A    between atoms: C_17  and  C_22
REMARK                            x       y       z     vdW  Elec       q    Type
REMARK                         _______ _______ _______ _____ _____    ______ ____
ROOT
ATOM      2  O   UNL     1       9.231  -7.838  37.610  0.00  0.00    -0.275 OA
ATOM      3  O   UNL     1       9.482  -9.349  32.487  0.00  0.00    -0.267 OA
ATOM      4  N   UNL     1       8.646  -6.082  36.207  0.00  0.00    -0.300 N 
ATOM      5  N   UNL     1       8.714  -7.283  33.248  0.00  0.00    -0.311 N 
ATOM      6  C   UNL     1      10.252  -5.567  34.365  0.00  0.00    +0.027 C 
ATOM      7  C   UNL     1       7.864  -5.061  34.077  0.00  0.00    +0.054 C 
ATOM      8  C   UNL     1       9.274  -4.537  33.813  0.00  0.00    +0.018 C 
ATOM      9  C   UNL     1      10.036  -5.763  35.875  0.00  0.00    +0.113 C 
ATOM     10  C   UNL     1       7.641  -5.200  35.595  0.00  0.00    +0.117 C 
ATOM     11  C   UNL     1      10.086  -6.877  33.585  0.00  0.00    +0.130 C 
ATOM     12  C   UNL     1       7.642  -6.400  33.400  0.00  0.00    +0.027 A 
ATOM     13  C   UNL     1       8.371  -7.109  37.109  0.00  0.00    +0.221 C 
ATOM     14  C   UNL     1       6.418  -6.749  32.975  0.00  0.00    +0.022 A 
ATOM     16  C   UNL     1       8.556  -8.557  32.669  0.00  0.00    +0.259 A 
ATOM     17  C   UNL     1       7.165  -8.934  32.236  0.00  0.00    +0.047 A 
ATOM     18  C   UNL     1       6.178  -8.038  32.390  0.00  0.00    +0.015 A 
ENDROOT
BRANCH  17  22
ATOM     22  C   UNL     1       6.877 -10.259  31.660  0.00  0.00    -0.013 A 
ATOM     23  C   UNL     1       6.418 -11.291  32.479  0.00  0.00    +0.010 A 
ATOM     24  C   UNL     1       7.065 -10.483  30.296  0.00  0.00    +0.010 A 
ATOM     25  C   UNL     1       6.146 -12.547  31.933  0.00  0.00    +0.015 A 
ATOM     26  C   UNL     1       6.793 -11.738  29.751  0.00  0.00    +0.015 A 
ATOM     27  C   UNL     1       6.333 -12.770  30.569  0.00  0.00    +0.008 A 
BRANCH  27   1
ATOM      1  S   UNL     1       5.987 -14.372  29.872  0.00  0.00    -0.129 S 
ATOM     28  C   UNL     1       4.288 -14.156  29.273  0.00  0.00    +0.090 C 
ENDBRANCH  27   1
ENDBRANCH  17  22
BRANCH  13  15
ATOM     15  C   UNL     1       6.922  -7.323  37.469  0.00  0.00    +0.039 C 
ATOM     19  C   UNL     1       6.874  -8.175  38.737  0.00  0.00    +0.020 C 
ATOM     20  C   UNL     1       6.229  -8.044  36.312  0.00  0.00    +0.020 C 
ATOM     21  C   UNL     1       6.270  -5.961  37.714  0.00  0.00    +0.020 C 
ENDBRANCH  13  15
TORSDOF 3
ENDMDL
MODEL 10
REMARK VINA RESULT:      -5.7      3.480      7.393
REMARK  Name = 7143826
REMARK  7 active torsions:
REMARK  status: ('A' for Active; 'I' for Inactive)
REMARK    1  A    between atoms: S_1  and  C_27
REMARK    2  A    between atoms: S_1  and  C_28
REMARK    3  A    between atoms: C_13  and  C_15
REMARK    4  A    between atoms: C_15  and  C_19
REMARK    5  A    between atoms: C_15  and  C_20
REMARK    6  A    between atoms: C_15  and  C_21
REMARK    7  A    between atoms: C_17  and  C_22
REMARK                            x       y       z     vdW  Elec       q    Type
REMARK                         _______ _______ _______ _____ _____    ______ ____
ROOT
ATOM      2  O   UNL     1      12.081   9.855   5.498  0.00  0.00    -0.275 OA
ATOM      3  O   UNL     1       9.352   7.658   1.458  0.00  0.00    -0.267 OA
ATOM      4  N   UNL     1      10.820   8.053   6.244  0.00  0.00    -0.300 N 
ATOM      5  N   UNL     1       9.436   6.831   3.638  0.00  0.00    -0.311 N 
ATOM      6  C   UNL     1       8.401   8.074   5.623  0.00  0.00    +0.027 C 
ATOM      7  C   UNL     1       9.547   5.930   5.987  0.00  0.00    +0.054 C 
ATOM      8  C   UNL     1       8.243   6.686   6.231  0.00  0.00    +0.018 C 
ATOM      9  C   UNL     1       9.573   8.822   6.280  0.00  0.00    +0.113 C 
ATOM     10  C   UNL     1      10.706   6.659   6.697  0.00  0.00    +0.117 C 
ATOM     11  C   UNL     1       8.584   7.933   4.108  0.00  0.00    +0.130 C 
ATOM     12  C   UNL     1       9.844   5.815   4.504  0.00  0.00    +0.027 A 
ATOM     13  C   UNL     1      12.008   8.683   5.876  0.00  0.00    +0.221 C 
ATOM     14  C   UNL     1      10.520   4.757   4.030  0.00  0.00    +0.022 A 
ATOM     16  C   UNL     1       9.724   6.799   2.259  0.00  0.00    +0.259 A 
ATOM     17  C   UNL     1      10.515   5.619   1.763  0.00  0.00    +0.047 A 
ATOM     18  C   UNL     1      10.864   4.663   2.639  0.00  0.00    +0.015 A 
ENDROOT
BRANCH  17  22
ATOM     22  C   UNL     1      10.911   5.505   0.349  0.00  0.00    -0.013 A 
ATOM     23  C   UNL     1      12.182   5.917  -0.055  0.00  0.00    +0.010 A 
ATOM     24  C   UNL     1      10.016   4.987  -0.587  0.00  0.00    +0.010 A 
ATOM     25  C   UNL     1      12.557   5.810  -1.395  0.00  0.00    +0.015 A 
ATOM     26  C   UNL     1      10.392   4.881  -1.927  0.00  0.00    +0.015 A 
ATOM     27  C   UNL     1      11.662   5.292  -2.331  0.00  0.00    +0.008 A 
BRANCH  27   1
ATOM      1  S   UNL     1      12.140   5.156  -4.041  0.00  0.00    -0.129 S 
ATOM     28  C   UNL     1      11.281   3.640  -4.547  0.00  0.00    +0.090 C 
ENDBRANCH  27   1
ENDBRANCH  17  22
BRANCH  13  15
ATOM     15  C   UNL     1      13.264   7.852   5.946  0.00  0.00    +0.039 C 
ATOM     19  C   UNL     1      13.391   7.082   4.631  0.00  0.00    +0.020 C 
ATOM     20  C   UNL     1      13.149   6.884   7.125  0.00  0.00    +0.020 C 
ATOM     21  C   UNL     1      14.461   8.784   6.138  0.00  0.00    +0.020 C 
ENDBRANCH  13  15
TORSDOF 3
ENDMDL
