MODEL 1
REMARK VINA RESULT:      -6.8      0.000      0.000
REMARK  Name = 51137837
REMARK  4 active torsions:
REMARK  status: ('A' for Active; 'I' for Inactive)
REMARK    1  A    between atoms: C_8  and  C_12
REMARK    2  A    between atoms: C_13  and  C_16
REMARK    3  A    between atoms: C_14  and  C_15
REMARK    4  A    between atoms: C_15  and  C_17
REMARK                            x       y       z     vdW  Elec       q    Type
REMARK                         _______ _______ _______ _____ _____    ______ ____
ROOT
ATOM      2  O   UNL     1      -3.630 -10.687  16.698  0.00  0.00    -0.424 OA
ATOM      5  N   UNL     1      -4.233 -12.498  15.531  0.00  0.00    -0.112 NA
ATOM      6  N   UNL     1      -5.038 -12.426  16.653  0.00  0.00    -0.112 NA
ATOM     12  C   UNL     1      -3.428 -11.464  15.599  0.00  0.00    +0.222 A 
ATOM     14  C   UNL     1      -4.650 -11.354  17.304  0.00  0.00    +0.222 A 
ENDROOT
BRANCH  12   8
ATOM      3  O   UNL     1      -3.487 -12.791  10.493  0.00  0.00    -0.269 OA
ATOM      4  N   UNL     1      -2.802 -11.653  12.397  0.00  0.00    -0.296 N 
ATOM      8  C   UNL     1      -2.330 -11.027  14.644  0.00  0.00    +0.095 C 
ATOM      9  C   UNL     1      -1.432 -12.204  14.237  0.00  0.00    +0.033 C 
ATOM     10  C   UNL     1      -2.782 -10.485  13.280  0.00  0.00    +0.121 C 
ATOM     11  C   UNL     1      -2.122 -12.783  13.009  0.00  0.00    +0.109 C 
ATOM     13  C   UNL     1      -3.434 -11.766  11.169  0.00  0.00    +0.253 C 
BRANCH  13  16
ATOM      1  S   UNL     1      -5.779 -10.349  10.950  0.00  0.00    -0.092 S 
ATOM     16  C   UNL     1      -4.109 -10.572  10.639  0.00  0.00    +0.074 A 
ATOM     21  C   UNL     1      -3.582  -9.544   9.889  0.00  0.00    +0.021 A 
ATOM     24  C   UNL     1      -4.560  -8.560   9.565  0.00  0.00    +0.008 A 
ATOM     25  C   UNL     1      -5.800  -8.874  10.080  0.00  0.00    +0.046 A 
ENDBRANCH  13  16
ENDBRANCH  12   8
BRANCH  14  15
ATOM     15  C   UNL     1      -5.175 -10.770  18.608  0.00  0.00    +0.135 C 
BRANCH  15  17
ATOM      7  N   UNL     1      -8.496 -11.898  19.624  0.00  0.00    -0.360 N 
ATOM     17  C   UNL     1      -6.611 -11.015  18.852  0.00  0.00    -0.013 A 
ATOM     18  C   UNL     1      -7.701 -10.286  18.300  0.00  0.00    +0.003 A 
ATOM     19  C   UNL     1      -8.872 -10.860  18.801  0.00  0.00    +0.047 A 
ATOM     20  C   UNL     1      -7.132 -11.999  19.661  0.00  0.00    +0.087 A 
ATOM     22  C   UNL     1      -7.804  -9.190  17.421  0.00  0.00    +0.010 A 
ATOM     23  C   UNL     1     -10.147 -10.390  18.463  0.00  0.00    +0.026 A 
ATOM     26  C   UNL     1      -9.072  -8.710  17.074  0.00  0.00    +0.001 A 
ATOM     27  C   UNL     1     -10.225  -9.303  17.589  0.00  0.00    +0.002 A 
ATOM     28  H   UNL     1      -9.136 -12.497  20.127  0.00  0.00    +0.165 HD
ENDBRANCH  15  17
ENDBRANCH  14  15
TORSDOF 4
ENDMDL
MODEL 2
REMARK VINA RESULT:      -6.8      2.501      7.042
REMARK  Name = 51137837
REMARK  4 active torsions:
REMARK  status: ('A' for Active; 'I' for Inactive)
REMARK    1  A    between atoms: C_8  and  C_12
REMARK    2  A    between atoms: C_13  and  C_16
REMARK    3  A    between atoms: C_14  and  C_15
REMARK    4  A    between atoms: C_15  and  C_17
REMARK                            x       y       z     vdW  Elec       q    Type
REMARK                         _______ _______ _______ _____ _____    ______ ____
ROOT
ATOM      2  O   UNL     1      -3.301 -11.232  14.564  0.00  0.00    -0.424 OA
ATOM      5  N   UNL     1      -2.229 -10.823  16.484  0.00  0.00    -0.112 NA
ATOM      6  N   UNL     1      -1.480 -10.284  15.455  0.00  0.00    -0.112 NA
ATOM     12  C   UNL     1      -3.282 -11.365  15.918  0.00  0.00    +0.222 A 
ATOM     14  C   UNL     1      -2.143 -10.547  14.353  0.00  0.00    +0.222 A 
ENDROOT
BRANCH  12   8
ATOM      3  O   UNL     1      -7.823  -8.930  17.053  0.00  0.00    -0.269 OA
ATOM      4  N   UNL     1      -6.381 -10.721  16.733  0.00  0.00    -0.296 N 
ATOM      8  C   UNL     1      -4.451 -12.101  16.551  0.00  0.00    +0.095 C 
ATOM      9  C   UNL     1      -4.653 -11.689  18.017  0.00  0.00    +0.033 C 
ATOM     10  C   UNL     1      -5.837 -11.833  15.950  0.00  0.00    +0.121 C 
ATOM     11  C   UNL     1      -5.591 -10.492  17.933  0.00  0.00    +0.109 C 
ATOM     13  C   UNL     1      -7.445  -9.900  16.399  0.00  0.00    +0.253 C 
BRANCH  13  16
ATOM      1  S   UNL     1      -9.570 -11.192  15.230  0.00  0.00    -0.092 S 
ATOM     16  C   UNL     1      -8.174 -10.202  15.158  0.00  0.00    +0.074 A 
ATOM     21  C   UNL     1      -7.897  -9.793  13.872  0.00  0.00    +0.021 A 
ATOM     24  C   UNL     1      -8.844 -10.297  12.933  0.00  0.00    +0.008 A 
ATOM     25  C   UNL     1      -9.808 -11.074  13.538  0.00  0.00    +0.046 A 
ENDBRANCH  13  16
ENDBRANCH  12   8
BRANCH  14  15
ATOM     15  C   UNL     1      -1.805 -10.196  12.911  0.00  0.00    +0.135 C 
BRANCH  15  17
ATOM      7  N   UNL     1      -3.373 -12.731  10.802  0.00  0.00    -0.360 N 
ATOM     17  C   UNL     1      -2.524 -11.000  11.903  0.00  0.00    -0.013 A 
ATOM     18  C   UNL     1      -3.227 -10.505  10.768  0.00  0.00    +0.003 A 
ATOM     19  C   UNL     1      -3.750 -11.612  10.096  0.00  0.00    +0.047 A 
ATOM     20  C   UNL     1      -2.632 -12.371  11.896  0.00  0.00    +0.087 A 
ATOM     22  C   UNL     1      -3.469  -9.218  10.248  0.00  0.00    +0.010 A 
ATOM     23  C   UNL     1      -4.505 -11.495   8.923  0.00  0.00    +0.026 A 
ATOM     26  C   UNL     1      -4.223  -9.086   9.077  0.00  0.00    +0.001 A 
ATOM     27  C   UNL     1      -4.732 -10.209   8.426  0.00  0.00    +0.002 A 
ATOM     28  H   UNL     1      -3.610 -13.681  10.550  0.00  0.00    +0.165 HD
ENDBRANCH  15  17
ENDBRANCH  14  15
TORSDOF 4
ENDMDL
MODEL 3
REMARK VINA RESULT:      -6.7     25.424     28.694
REMARK  Name = 51137837
REMARK  4 active torsions:
REMARK  status: ('A' for Active; 'I' for Inactive)
REMARK    1  A    between atoms: C_8  and  C_12
REMARK    2  A    between atoms: C_13  and  C_16
REMARK    3  A    between atoms: C_14  and  C_15
REMARK    4  A    between atoms: C_15  and  C_17
REMARK                            x       y       z     vdW  Elec       q    Type
REMARK                         _______ _______ _______ _____ _____    ______ ____
ROOT
ATOM      2  O   UNL     1      12.763   5.123   2.179  0.00  0.00    -0.424 OA
ATOM      5  N   UNL     1      11.084   3.738   2.691  0.00  0.00    -0.112 NA
ATOM      6  N   UNL     1      12.054   3.006   2.032  0.00  0.00    -0.112 NA
ATOM     12  C   UNL     1      11.541   4.967   2.755  0.00  0.00    +0.222 A 
ATOM     14  C   UNL     1      13.015   3.856   1.752  0.00  0.00    +0.222 A 
ENDROOT
BRANCH  12   8
ATOM      3  O   UNL     1      12.300   6.277   7.809  0.00  0.00    -0.269 OA
ATOM      4  N   UNL     1      11.633   6.566   5.604  0.00  0.00    -0.296 N 
ATOM      8  C   UNL     1      10.907   6.205   3.366  0.00  0.00    +0.095 C 
ATOM      9  C   UNL     1       9.776   5.840   4.340  0.00  0.00    +0.033 C 
ATOM     10  C   UNL     1      11.814   7.078   4.244  0.00  0.00    +0.121 C 
ATOM     11  C   UNL     1      10.486   5.674   5.678  0.00  0.00    +0.109 C 
ATOM     13  C   UNL     1      12.450   6.788   6.701  0.00  0.00    +0.253 C 
BRANCH  13  16
ATOM      1  S   UNL     1      13.356   9.382   6.692  0.00  0.00    -0.092 S 
ATOM     16  C   UNL     1      13.595   7.694   6.524  0.00  0.00    +0.074 A 
ATOM     21  C   UNL     1      14.904   7.385   6.228  0.00  0.00    +0.021 A 
ATOM     24  C   UNL     1      15.723   8.547   6.139  0.00  0.00    +0.008 A 
ATOM     25  C   UNL     1      15.007   9.703   6.370  0.00  0.00    +0.046 A 
ENDBRANCH  13  16
ENDBRANCH  12   8
BRANCH  14  15
ATOM     15  C   UNL     1      14.338   3.620   1.037  0.00  0.00    +0.135 C 
BRANCH  15  17
ATOM      7  N   UNL     1      14.893   5.148  -2.233  0.00  0.00    -0.360 N 
ATOM     17  C   UNL     1      14.357   4.062  -0.372  0.00  0.00    -0.013 A 
ATOM     18  C   UNL     1      13.537   3.570  -1.425  0.00  0.00    +0.003 A 
ATOM     19  C   UNL     1      13.893   4.268  -2.582  0.00  0.00    +0.047 A 
ATOM     20  C   UNL     1      15.180   5.030  -0.900  0.00  0.00    +0.087 A 
ATOM     22  C   UNL     1      12.522   2.595  -1.507  0.00  0.00    +0.010 A 
ATOM     23  C   UNL     1      13.282   4.039  -3.820  0.00  0.00    +0.026 A 
ATOM     26  C   UNL     1      11.903   2.356  -2.738  0.00  0.00    +0.001 A 
ATOM     27  C   UNL     1      12.279   3.068  -3.876  0.00  0.00    +0.002 A 
ATOM     28  H   UNL     1      15.348   5.787  -2.870  0.00  0.00    +0.165 HD
ENDBRANCH  15  17
ENDBRANCH  14  15
TORSDOF 4
ENDMDL
MODEL 4
REMARK VINA RESULT:      -6.7      1.741      2.406
REMARK  Name = 51137837
REMARK  4 active torsions:
REMARK  status: ('A' for Active; 'I' for Inactive)
REMARK    1  A    between atoms: C_8  and  C_12
REMARK    2  A    between atoms: C_13  and  C_16
REMARK    3  A    between atoms: C_14  and  C_15
REMARK    4  A    between atoms: C_15  and  C_17
REMARK                            x       y       z     vdW  Elec       q    Type
REMARK                         _______ _______ _______ _____ _____    ______ ____
ROOT
ATOM      2  O   UNL     1      -3.140 -12.040  15.330  0.00  0.00    -0.424 OA
ATOM      5  N   UNL     1      -1.259 -10.840  15.184  0.00  0.00    -0.112 NA
ATOM      6  N   UNL     1      -1.858 -10.547  16.394  0.00  0.00    -0.112 NA
ATOM     12  C   UNL     1      -2.040 -11.715  14.597  0.00  0.00    +0.222 A 
ATOM     14  C   UNL     1      -2.953 -11.270  16.436  0.00  0.00    +0.222 A 
ENDROOT
BRANCH  12   8
ATOM      3  O   UNL     1      -6.157 -12.471  11.385  0.00  0.00    -0.269 OA
ATOM      4  N   UNL     1      -3.923 -12.382  12.010  0.00  0.00    -0.296 N 
ATOM      8  C   UNL     1      -1.890 -12.397  13.247  0.00  0.00    +0.095 C 
ATOM      9  C   UNL     1      -2.507 -13.804  13.252  0.00  0.00    +0.033 C 
ATOM     10  C   UNL     1      -2.609 -11.738  12.062  0.00  0.00    +0.121 C 
ATOM     11  C   UNL     1      -3.958 -13.568  12.851  0.00  0.00    +0.109 C 
ATOM     13  C   UNL     1      -5.052 -11.936  11.342  0.00  0.00    +0.253 C 
BRANCH  13  16
ATOM      1  S   UNL     1      -5.386  -9.211  11.200  0.00  0.00    -0.092 S 
ATOM     16  C   UNL     1      -4.922 -10.718  10.528  0.00  0.00    +0.074 A 
ATOM     21  C   UNL     1      -4.461 -10.586   9.237  0.00  0.00    +0.021 A 
ATOM     24  C   UNL     1      -4.488  -9.233   8.793  0.00  0.00    +0.008 A 
ATOM     25  C   UNL     1      -4.969  -8.380   9.763  0.00  0.00    +0.046 A 
ENDBRANCH  13  16
ENDBRANCH  12   8
BRANCH  14  15
ATOM     15  C   UNL     1      -4.011 -11.364  17.526  0.00  0.00    +0.135 C 
BRANCH  15  17
ATOM      7  N   UNL     1      -6.728  -9.266  16.280  0.00  0.00    -0.360 N 
ATOM     17  C   UNL     1      -5.264 -10.641  17.225  0.00  0.00    -0.013 A 
ATOM     18  C   UNL     1      -6.509 -10.788  17.897  0.00  0.00    +0.003 A 
ATOM     19  C   UNL     1      -7.411  -9.915  17.284  0.00  0.00    +0.047 A 
ATOM     20  C   UNL     1      -5.431  -9.699  16.236  0.00  0.00    +0.087 A 
ATOM     22  C   UNL     1      -6.958 -11.583  18.971  0.00  0.00    +0.010 A 
ATOM     23  C   UNL     1      -8.744  -9.795  17.694  0.00  0.00    +0.026 A 
ATOM     26  C   UNL     1      -8.288 -11.474  19.392  0.00  0.00    +0.001 A 
ATOM     27  C   UNL     1      -9.166 -10.593  18.761  0.00  0.00    +0.002 A 
ATOM     28  H   UNL     1      -7.129  -8.572  15.663  0.00  0.00    +0.165 HD
ENDBRANCH  15  17
ENDBRANCH  14  15
TORSDOF 4
ENDMDL
MODEL 5
REMARK VINA RESULT:      -6.7     20.558     22.978
REMARK  Name = 51137837
REMARK  4 active torsions:
REMARK  status: ('A' for Active; 'I' for Inactive)
REMARK    1  A    between atoms: C_8  and  C_12
REMARK    2  A    between atoms: C_13  and  C_16
REMARK    3  A    between atoms: C_14  and  C_15
REMARK    4  A    between atoms: C_15  and  C_17
REMARK                            x       y       z     vdW  Elec       q    Type
REMARK                         _______ _______ _______ _____ _____    ______ ____
ROOT
ATOM      2  O   UNL     1     -16.160   0.564  28.030  0.00  0.00    -0.424 OA
ATOM      5  N   UNL     1     -17.258   2.250  29.006  0.00  0.00    -0.112 NA
ATOM      6  N   UNL     1     -17.560   2.268  27.658  0.00  0.00    -0.112 NA
ATOM     12  C   UNL     1     -16.438   1.239  29.178  0.00  0.00    +0.222 A 
ATOM     14  C   UNL     1     -16.897   1.267  27.128  0.00  0.00    +0.222 A 
ENDROOT
BRANCH  12   8
ATOM      3  O   UNL     1     -12.288   3.694  31.319  0.00  0.00    -0.269 OA
ATOM      4  N   UNL     1     -14.067   2.206  31.208  0.00  0.00    -0.296 N 
ATOM      8  C   UNL     1     -15.775   0.735  30.449  0.00  0.00    +0.095 C 
ATOM      9  C   UNL     1     -14.398   0.117  30.161  0.00  0.00    +0.033 C 
ATOM     10  C   UNL     1     -15.437   1.788  31.511  0.00  0.00    +0.121 C 
ATOM     11  C   UNL     1     -13.441   1.298  30.260  0.00  0.00    +0.109 C 
ATOM     13  C   UNL     1     -13.416   3.344  31.658  0.00  0.00    +0.253 C 
BRANCH  13  16
ATOM      1  S   UNL     1     -15.026   5.545  32.003  0.00  0.00    -0.092 S 
ATOM     16  C   UNL     1     -14.136   4.209  32.604  0.00  0.00    +0.074 A 
ATOM     21  C   UNL     1     -14.215   4.112  33.976  0.00  0.00    +0.021 A 
ATOM     24  C   UNL     1     -15.015   5.146  34.542  0.00  0.00    +0.008 A 
ATOM     25  C   UNL     1     -15.519   5.995  33.580  0.00  0.00    +0.046 A 
ENDBRANCH  13  16
ENDBRANCH  12   8
BRANCH  14  15
ATOM     15  C   UNL     1     -16.846   0.796  25.682  0.00  0.00    +0.135 C 
BRANCH  15  17
ATOM      7  N   UNL     1     -18.621   2.844  23.234  0.00  0.00    -0.360 N 
ATOM     17  C   UNL     1     -17.331   1.787  24.700  0.00  0.00    -0.013 A 
ATOM     18  C   UNL     1     -16.632   2.938  24.241  0.00  0.00    +0.003 A 
ATOM     19  C   UNL     1     -17.464   3.584  23.323  0.00  0.00    +0.047 A 
ATOM     20  C   UNL     1     -18.550   1.757  24.062  0.00  0.00    +0.087 A 
ATOM     22  C   UNL     1     -15.368   3.495  24.521  0.00  0.00    +0.010 A 
ATOM     23  C   UNL     1     -17.092   4.763  22.667  0.00  0.00    +0.026 A 
ATOM     26  C   UNL     1     -14.983   4.674  23.872  0.00  0.00    +0.001 A 
ATOM     27  C   UNL     1     -15.833   5.296  22.960  0.00  0.00    +0.002 A 
ATOM     28  H   UNL     1     -19.409   3.072  22.643  0.00  0.00    +0.165 HD
ENDBRANCH  15  17
ENDBRANCH  14  15
TORSDOF 4
ENDMDL
MODEL 6
REMARK VINA RESULT:      -6.7      3.044      4.881
REMARK  Name = 51137837
REMARK  4 active torsions:
REMARK  status: ('A' for Active; 'I' for Inactive)
REMARK    1  A    between atoms: C_8  and  C_12
REMARK    2  A    between atoms: C_13  and  C_16
REMARK    3  A    between atoms: C_14  and  C_15
REMARK    4  A    between atoms: C_15  and  C_17
REMARK                            x       y       z     vdW  Elec       q    Type
REMARK                         _______ _______ _______ _____ _____    ______ ____
ROOT
ATOM      2  O   UNL     1      -4.323  -9.965  12.738  0.00  0.00    -0.424 OA
ATOM      5  N   UNL     1      -5.908 -10.889  11.458  0.00  0.00    -0.112 NA
ATOM      6  N   UNL     1      -5.880 -11.571  12.660  0.00  0.00    -0.112 NA
ATOM     12  C   UNL     1      -4.985  -9.961  11.549  0.00  0.00    +0.222 A 
ATOM     14  C   UNL     1      -4.939 -10.998  13.376  0.00  0.00    +0.222 A 
ENDROOT
BRANCH  12   8
ATOM      3  O   UNL     1      -7.309  -9.559   6.829  0.00  0.00    -0.269 OA
ATOM      4  N   UNL     1      -5.964  -8.918   8.610  0.00  0.00    -0.296 N 
ATOM      8  C   UNL     1      -4.564  -8.911  10.534  0.00  0.00    +0.095 C 
ATOM      9  C   UNL     1      -3.811  -9.539   9.350  0.00  0.00    +0.033 C 
ATOM     10  C   UNL     1      -5.692  -8.149   9.826  0.00  0.00    +0.121 C 
ATOM     11  C   UNL     1      -4.916  -9.895   8.363  0.00  0.00    +0.109 C 
ATOM     13  C   UNL     1      -7.087  -8.841   7.802  0.00  0.00    +0.253 C 
BRANCH  13  16
ATOM      1  S   UNL     1      -9.445  -8.288   9.102  0.00  0.00    -0.092 S 
ATOM     16  C   UNL     1      -8.101  -7.831   8.141  0.00  0.00    +0.074 A 
ATOM     21  C   UNL     1      -8.146  -6.500   7.791  0.00  0.00    +0.021 A 
ATOM     24  C   UNL     1      -9.297  -5.845   8.316  0.00  0.00    +0.008 A 
ATOM     25  C   UNL     1     -10.090  -6.702   9.050  0.00  0.00    +0.046 A 
ENDBRANCH  13  16
ENDBRANCH  12   8
BRANCH  14  15
ATOM     15  C   UNL     1      -4.461 -11.320  14.784  0.00  0.00    +0.135 C 
BRANCH  15  17
ATOM      7  N   UNL     1      -6.852  -9.573  16.921  0.00  0.00    -0.360 N 
ATOM     17  C   UNL     1      -5.305 -10.759  15.858  0.00  0.00    -0.013 A 
ATOM     18  C   UNL     1      -5.228 -11.069  17.245  0.00  0.00    +0.003 A 
ATOM     19  C   UNL     1      -6.209 -10.311  17.889  0.00  0.00    +0.047 A 
ATOM     20  C   UNL     1      -6.312  -9.837  15.691  0.00  0.00    +0.087 A 
ATOM     22  C   UNL     1      -4.416 -11.924  18.017  0.00  0.00    +0.010 A 
ATOM     23  C   UNL     1      -6.419 -10.365  19.272  0.00  0.00    +0.026 A 
ATOM     26  C   UNL     1      -4.614 -11.988  19.401  0.00  0.00    +0.001 A 
ATOM     27  C   UNL     1      -5.601 -11.220  20.016  0.00  0.00    +0.002 A 
ATOM     28  H   UNL     1      -7.612  -8.929  17.094  0.00  0.00    +0.165 HD
ENDBRANCH  15  17
ENDBRANCH  14  15
TORSDOF 4
ENDMDL
MODEL 7
REMARK VINA RESULT:      -6.6     21.016     23.320
REMARK  Name = 51137837
REMARK  4 active torsions:
REMARK  status: ('A' for Active; 'I' for Inactive)
REMARK    1  A    between atoms: C_8  and  C_12
REMARK    2  A    between atoms: C_13  and  C_16
REMARK    3  A    between atoms: C_14  and  C_15
REMARK    4  A    between atoms: C_15  and  C_17
REMARK                            x       y       z     vdW  Elec       q    Type
REMARK                         _______ _______ _______ _____ _____    ______ ____
ROOT
ATOM      2  O   UNL     1     -12.068   9.853  21.421  0.00  0.00    -0.424 OA
ATOM      5  N   UNL     1     -13.209   7.942  21.202  0.00  0.00    -0.112 NA
ATOM      6  N   UNL     1     -13.845   8.710  22.159  0.00  0.00    -0.112 NA
ATOM     12  C   UNL     1     -12.179   8.648  20.799  0.00  0.00    +0.222 A 
ATOM     14  C   UNL     1     -13.144   9.817  22.254  0.00  0.00    +0.222 A 
ENDROOT
BRANCH  12   8
ATOM      3  O   UNL     1     -12.365  10.601  15.901  0.00  0.00    -0.269 OA
ATOM      4  N   UNL     1     -11.438   9.528  17.740  0.00  0.00    -0.296 N 
ATOM      8  C   UNL     1     -11.122   8.312  19.761  0.00  0.00    +0.095 C 
ATOM      9  C   UNL     1     -11.672   7.374  18.675  0.00  0.00    +0.033 C 
ATOM     10  C   UNL     1     -10.583   9.482  18.927  0.00  0.00    +0.121 C 
ATOM     11  C   UNL     1     -12.244   8.322  17.629  0.00  0.00    +0.109 C 
ATOM     13  C   UNL     1     -11.579  10.577  16.846  0.00  0.00    +0.253 C 
BRANCH  13  16
ATOM      1  S   UNL     1     -11.327  13.063  17.991  0.00  0.00    -0.092 S 
ATOM     16  C   UNL     1     -10.731  11.762  17.048  0.00  0.00    +0.074 A 
ATOM     21  C   UNL     1      -9.461  12.007  16.575  0.00  0.00    +0.021 A 
ATOM     24  C   UNL     1      -8.969  13.278  16.991  0.00  0.00    +0.008 A 
ATOM     25  C   UNL     1      -9.884  13.957  17.767  0.00  0.00    +0.046 A 
ENDBRANCH  13  16
ENDBRANCH  12   8
BRANCH  14  15
ATOM     15  C   UNL     1     -13.367  11.032  23.143  0.00  0.00    +0.135 C 
BRANCH  15  17
ATOM      7  N   UNL     1     -14.571  10.219  26.493  0.00  0.00    -0.360 N 
ATOM     17  C   UNL     1     -13.579  10.714  24.569  0.00  0.00    -0.013 A 
ATOM     18  C   UNL     1     -12.575  10.601  25.571  0.00  0.00    +0.003 A 
ATOM     19  C   UNL     1     -13.224  10.289  26.768  0.00  0.00    +0.047 A 
ATOM     20  C   UNL     1     -14.795  10.474  25.167  0.00  0.00    +0.087 A 
ATOM     22  C   UNL     1     -11.172  10.734  25.575  0.00  0.00    +0.010 A 
ATOM     23  C   UNL     1     -12.538  10.104  27.974  0.00  0.00    +0.026 A 
ATOM     26  C   UNL     1     -10.472  10.551  26.773  0.00  0.00    +0.001 A 
ATOM     27  C   UNL     1     -11.147  10.241  27.953  0.00  0.00    +0.002 A 
ATOM     28  H   UNL     1     -15.290  10.008  27.172  0.00  0.00    +0.165 HD
ENDBRANCH  15  17
ENDBRANCH  14  15
TORSDOF 4
ENDMDL
MODEL 8
REMARK VINA RESULT:      -6.6      2.570      5.573
REMARK  Name = 51137837
REMARK  4 active torsions:
REMARK  status: ('A' for Active; 'I' for Inactive)
REMARK    1  A    between atoms: C_8  and  C_12
REMARK    2  A    between atoms: C_13  and  C_16
REMARK    3  A    between atoms: C_14  and  C_15
REMARK    4  A    between atoms: C_15  and  C_17
REMARK                            x       y       z     vdW  Elec       q    Type
REMARK                         _______ _______ _______ _____ _____    ______ ____
ROOT
ATOM      2  O   UNL     1      -4.034 -10.171  12.869  0.00  0.00    -0.424 OA
ATOM      5  N   UNL     1      -3.156 -10.035  10.816  0.00  0.00    -0.112 NA
ATOM      6  N   UNL     1      -2.197 -10.570  11.656  0.00  0.00    -0.112 NA
ATOM     12  C   UNL     1      -4.211  -9.819  11.567  0.00  0.00    +0.222 A 
ATOM     14  C   UNL     1      -2.753 -10.631  12.843  0.00  0.00    +0.222 A 
ENDROOT
BRANCH  12   8
ATOM      3  O   UNL     1      -8.723 -12.077  13.109  0.00  0.00    -0.269 OA
ATOM      4  N   UNL     1      -7.355 -10.422  12.225  0.00  0.00    -0.296 N 
ATOM      8  C   UNL     1      -5.566  -9.243  11.190  0.00  0.00    +0.095 C 
ATOM      9  C   UNL     1      -6.281 -10.115  10.146  0.00  0.00    +0.033 C 
ATOM     10  C   UNL     1      -6.612  -9.163  12.309  0.00  0.00    +0.121 C 
ATOM     11  C   UNL     1      -7.061 -11.120  10.984  0.00  0.00    +0.109 C 
ATOM     13  C   UNL     1      -8.176 -10.979  13.192  0.00  0.00    +0.253 C 
BRANCH  13  16
ATOM      1  S   UNL     1      -9.776  -9.186  14.526  0.00  0.00    -0.092 S 
ATOM     16  C   UNL     1      -8.401 -10.204  14.422  0.00  0.00    +0.074 A 
ATOM     21  C   UNL     1      -7.641 -10.163  15.569  0.00  0.00    +0.021 A 
ATOM     24  C   UNL     1      -8.193  -9.286  16.547  0.00  0.00    +0.008 A 
ATOM     25  C   UNL     1      -9.355  -8.689  16.110  0.00  0.00    +0.046 A 
ENDBRANCH  13  16
ENDBRANCH  12   8
BRANCH  14  15
ATOM     15  C   UNL     1      -2.177 -11.135  14.159  0.00  0.00    +0.135 C 
BRANCH  15  17
ATOM      7  N   UNL     1      -4.176 -13.870  15.523  0.00  0.00    -0.360 N 
ATOM     17  C   UNL     1      -3.067 -12.050  14.904  0.00  0.00    -0.013 A 
ATOM     18  C   UNL     1      -3.838 -11.729  16.056  0.00  0.00    +0.003 A 
ATOM     19  C   UNL     1      -4.524 -12.889  16.424  0.00  0.00    +0.047 A 
ATOM     20  C   UNL     1      -3.295 -13.372  14.601  0.00  0.00    +0.087 A 
ATOM     22  C   UNL     1      -4.019 -10.562  16.823  0.00  0.00    +0.010 A 
ATOM     23  C   UNL     1      -5.386 -12.939  17.526  0.00  0.00    +0.026 A 
ATOM     26  C   UNL     1      -4.878 -10.596  17.928  0.00  0.00    +0.001 A 
ATOM     27  C   UNL     1      -5.550 -11.768  18.272  0.00  0.00    +0.002 A 
ATOM     28  H   UNL     1      -4.520 -14.820  15.541  0.00  0.00    +0.165 HD
ENDBRANCH  15  17
ENDBRANCH  14  15
TORSDOF 4
ENDMDL
MODEL 9
REMARK VINA RESULT:      -6.5      2.942      7.829
REMARK  Name = 51137837
REMARK  4 active torsions:
REMARK  status: ('A' for Active; 'I' for Inactive)
REMARK    1  A    between atoms: C_8  and  C_12
REMARK    2  A    between atoms: C_13  and  C_16
REMARK    3  A    between atoms: C_14  and  C_15
REMARK    4  A    between atoms: C_15  and  C_17
REMARK                            x       y       z     vdW  Elec       q    Type
REMARK                         _______ _______ _______ _____ _____    ______ ____
ROOT
ATOM      2  O   UNL     1      -6.253 -11.224  16.956  0.00  0.00    -0.424 OA
ATOM      5  N   UNL     1      -5.816 -12.605  18.660  0.00  0.00    -0.112 NA
ATOM      6  N   UNL     1      -4.686 -11.843  18.429  0.00  0.00    -0.112 NA
ATOM     12  C   UNL     1      -6.704 -12.209  17.779  0.00  0.00    +0.222 A 
ATOM     14  C   UNL     1      -4.987 -11.052  17.425  0.00  0.00    +0.222 A 
ENDROOT
BRANCH  12   8
ATOM      3  O   UNL     1     -10.807  -9.988  20.243  0.00  0.00    -0.269 OA
ATOM      4  N   UNL     1      -9.716 -11.324  18.688  0.00  0.00    -0.296 N 
ATOM      8  C   UNL     1      -8.129 -12.689  17.557  0.00  0.00    +0.095 C 
ATOM      9  C   UNL     1      -8.671 -13.438  18.784  0.00  0.00    +0.033 C 
ATOM     10  C   UNL     1      -9.194 -11.604  17.350  0.00  0.00    +0.121 C 
ATOM     11  C   UNL     1      -9.289 -12.339  19.639  0.00  0.00    +0.109 C 
ATOM     13  C   UNL     1     -10.451 -10.220  19.089  0.00  0.00    +0.253 C 
BRANCH  13  16
ATOM      1  S   UNL     1     -12.366  -9.349  17.322  0.00  0.00    -0.092 S 
ATOM     16  C   UNL     1     -10.823  -9.240  18.058  0.00  0.00    +0.074 A 
ATOM     21  C   UNL     1     -10.087  -8.187  17.561  0.00  0.00    +0.021 A 
ATOM     24  C   UNL     1     -10.798  -7.459  16.563  0.00  0.00    +0.008 A 
ATOM     25  C   UNL     1     -12.052  -7.985  16.335  0.00  0.00    +0.046 A 
ENDBRANCH  13  16
ENDBRANCH  12   8
BRANCH  14  15
ATOM     15  C   UNL     1      -4.137  -9.994  16.737  0.00  0.00    +0.135 C 
BRANCH  15  17
ATOM      7  N   UNL     1      -1.226 -11.350  14.998  0.00  0.00    -0.360 N 
ATOM     17  C   UNL     1      -3.127 -10.534  15.804  0.00  0.00    -0.013 A 
ATOM     18  C   UNL     1      -3.300 -10.772  14.412  0.00  0.00    +0.003 A 
ATOM     19  C   UNL     1      -2.092 -11.284  13.931  0.00  0.00    +0.047 A 
ATOM     20  C   UNL     1      -1.842 -10.900  16.134  0.00  0.00    +0.087 A 
ATOM     22  C   UNL     1      -4.371 -10.601  13.512  0.00  0.00    +0.010 A 
ATOM     23  C   UNL     1      -1.902 -11.633  12.589  0.00  0.00    +0.026 A 
ATOM     26  C   UNL     1      -4.195 -10.946  12.168  0.00  0.00    +0.001 A 
ATOM     27  C   UNL     1      -2.978 -11.454  11.715  0.00  0.00    +0.002 A 
ATOM     28  H   UNL     1      -0.273 -11.683  14.949  0.00  0.00    +0.165 HD
ENDBRANCH  15  17
ENDBRANCH  14  15
TORSDOF 4
ENDMDL
MODEL 10
REMARK VINA RESULT:      -6.5     23.601     26.847
REMARK  Name = 51137837
REMARK  4 active torsions:
REMARK  status: ('A' for Active; 'I' for Inactive)
REMARK    1  A    between atoms: C_8  and  C_12
REMARK    2  A    between atoms: C_13  and  C_16
REMARK    3  A    between atoms: C_14  and  C_15
REMARK    4  A    between atoms: C_15  and  C_17
REMARK                            x       y       z     vdW  Elec       q    Type
REMARK                         _______ _______ _______ _____ _____    ______ ____
ROOT
ATOM      2  O   UNL     1      11.471   7.322   2.687  0.00  0.00    -0.424 OA
ATOM      5  N   UNL     1      12.112   9.325   3.449  0.00  0.00    -0.112 NA
ATOM      6  N   UNL     1      10.924   8.991   4.073  0.00  0.00    -0.112 NA
ATOM     12  C   UNL     1      12.393   8.323   2.650  0.00  0.00    +0.222 A 
ATOM     14  C   UNL     1      10.588   7.815   3.598  0.00  0.00    +0.222 A 
ENDROOT
BRANCH  12   8
ATOM      3  O   UNL     1      14.558   3.583   1.828  0.00  0.00    -0.269 OA
ATOM      4  N   UNL     1      14.146   5.837   1.455  0.00  0.00    -0.296 N 
ATOM      8  C   UNL     1      13.575   8.132   1.714  0.00  0.00    +0.095 C 
ATOM      9  C   UNL     1      14.867   7.832   2.489  0.00  0.00    +0.033 C 
ATOM     10  C   UNL     1      13.499   6.944   0.747  0.00  0.00    +0.121 C 
ATOM     11  C   UNL     1      14.867   6.315   2.624  0.00  0.00    +0.109 C 
ATOM     13  C   UNL     1      14.057   4.486   1.161  0.00  0.00    +0.253 C 
BRANCH  13  16
ATOM      1  S   UNL     1      11.588   3.963   0.074  0.00  0.00    -0.092 S 
ATOM     16  C   UNL     1      13.293   4.099  -0.034  0.00  0.00    +0.074 A 
ATOM     21  C   UNL     1      13.754   3.811  -1.299  0.00  0.00    +0.021 A 
ATOM     24  C   UNL     1      12.696   3.476  -2.193  0.00  0.00    +0.008 A 
ATOM     25  C   UNL     1      11.464   3.519  -1.575  0.00  0.00    +0.046 A 
ENDBRANCH  13  16
ENDBRANCH  12   8
BRANCH  14  15
ATOM     15  C   UNL     1       9.379   6.949   3.921  0.00  0.00    +0.135 C 
BRANCH  15  17
ATOM      7  N   UNL     1      10.217   3.920   5.781  0.00  0.00    -0.360 N 
ATOM     17  C   UNL     1       9.641   5.875   4.900  0.00  0.00    -0.013 A 
ATOM     18  C   UNL     1       9.462   5.952   6.310  0.00  0.00    +0.003 A 
ATOM     19  C   UNL     1       9.830   4.713   6.838  0.00  0.00    +0.047 A 
ATOM     20  C   UNL     1      10.106   4.614   4.606  0.00  0.00    +0.087 A 
ATOM     22  C   UNL     1       9.020   6.960   7.190  0.00  0.00    +0.010 A 
ATOM     23  C   UNL     1       9.778   4.430   8.208  0.00  0.00    +0.026 A 
ATOM     26  C   UNL     1       8.963   6.692   8.562  0.00  0.00    +0.001 A 
ATOM     27  C   UNL     1       9.337   5.445   9.061  0.00  0.00    +0.002 A 
ATOM     28  H   UNL     1      10.536   2.965   5.861  0.00  0.00    +0.165 HD
ENDBRANCH  15  17
ENDBRANCH  14  15
TORSDOF 4
ENDMDL
