MODEL 1
REMARK VINA RESULT:      -7.1      0.000      0.000
REMARK  Name = 45361444
REMARK  9 active torsions:
REMARK  status: ('A' for Active; 'I' for Inactive)
REMARK    1  A    between atoms: O_1  and  C_10
REMARK    2  A    between atoms: N_4  and  C_14
REMARK    3  A    between atoms: C_7  and  C_17
REMARK    4  A    between atoms: C_9  and  C_19
REMARK    5  A    between atoms: C_12  and  C_18
REMARK    6  A    between atoms: C_18  and  C_20
REMARK    7  A    between atoms: C_18  and  C_21
REMARK    8  A    between atoms: C_22  and  C_27
REMARK    9  A    between atoms: C_33  and  C_34
REMARK                            x       y       z     vdW  Elec       q    Type
REMARK                         _______ _______ _______ _____ _____    ______ ____
ROOT
ATOM      7  C   UNL     1      -5.109 -11.193  17.666  0.00  0.00    -0.027 C 
ATOM      8  C   UNL     1      -5.776 -10.516  16.423  0.00  0.00    +0.028 C 
ATOM      9  C   UNL     1      -7.342 -10.545  16.545  0.00  0.00    +0.012 C 
ATOM     10  C   UNL     1      -5.198 -11.084  15.095  0.00  0.00    +0.122 C 
ATOM     11  C   UNL     1      -3.571 -11.048  17.570  0.00  0.00    +0.007 C 
ATOM     12  C   UNL     1      -3.654 -11.031  15.047  0.00  0.00    +0.029 C 
ATOM     13  C   UNL     1      -5.570 -10.462  18.948  0.00  0.00    +0.009 C 
ATOM     14  C   UNL     1      -7.791  -9.873  17.874  0.00  0.00    +0.076 C 
ATOM     15  C   UNL     1      -2.998 -11.638  16.288  0.00  0.00    +0.007 C 
ATOM     16  C   UNL     1      -7.084 -10.434  19.108  0.00  0.00    +0.023 C 
ATOM     17  C   UNL     1      -5.459 -12.698  17.783  0.00  0.00    +0.011 C 
ATOM     19  C   UNL     1      -8.063  -9.868  15.368  0.00  0.00    +0.010 C 
ENDROOT
BRANCH  14   4
ATOM      3  O   UNL     1      -9.737  -7.790  17.534  0.00  0.00    -0.270 OA
ATOM      4  N   UNL     1      -9.221  -9.984  18.074  0.00  0.00    -0.308 N 
ATOM     22  C   UNL     1     -10.080  -8.916  17.884  0.00  0.00    +0.244 C 
ATOM     35  H   UNL     1      -9.561 -10.852  18.474  0.00  0.00    +0.149 HD
BRANCH  22  27
ATOM     27  C   UNL     1     -11.515  -9.186  18.157  0.00  0.00    +0.037 A 
ATOM     29  C   UNL     1     -11.902  -9.724  19.384  0.00  0.00    +0.014 A 
ATOM     30  C   UNL     1     -12.475  -8.899  17.187  0.00  0.00    +0.014 A 
ATOM     31  C   UNL     1     -13.250  -9.976  19.641  0.00  0.00    +0.019 A 
ATOM     32  C   UNL     1     -13.823  -9.150  17.444  0.00  0.00    +0.019 A 
ATOM     33  C   UNL     1     -14.210  -9.689  18.671  0.00  0.00    +0.052 A 
BRANCH  33  34
ATOM      6  N   UNL     1     -16.712 -10.157  19.149  0.00  0.00    -0.191 NA
ATOM     34  C   UNL     1     -15.591  -9.948  18.935  0.00  0.00    +0.099 C 
ENDBRANCH  33  34
ENDBRANCH  22  27
ENDBRANCH  14   4
BRANCH  10   1
ATOM      1  O   UNL     1      -5.668 -10.298  13.998  0.00  0.00    -0.391 OA
ATOM     36  H   UNL     1      -4.987 -10.312  13.302  0.00  0.00    +0.210 HD
ENDBRANCH  10   1
BRANCH  12  18
ATOM     18  C   UNL     1      -3.100 -11.711  13.790  0.00  0.00    +0.078 C 
ATOM     20  C   UNL     1      -2.063 -12.763  14.147  0.00  0.00    +0.017 C 
BRANCH  18  21
ATOM      2  O   UNL     1      -1.654  -9.879  13.379  0.00  0.00    -0.275 OA
ATOM      5  N   UNL     1      -2.906 -10.636  11.575  0.00  0.00    -0.301 N 
ATOM     21  C   UNL     1      -2.483 -10.658  12.903  0.00  0.00    +0.219 C 
ATOM     23  C   UNL     1      -2.356  -9.641  10.651  0.00  0.00    +0.108 C 
ATOM     24  C   UNL     1      -3.858 -11.576  10.969  0.00  0.00    +0.108 C 
ATOM     25  C   UNL     1      -3.471  -8.855   9.968  0.00  0.00    +0.019 C 
ATOM     26  C   UNL     1      -5.002 -10.827  10.290  0.00  0.00    +0.019 C 
ATOM     28  C   UNL     1      -4.476  -9.790   9.298  0.00  0.00    +0.003 C 
ENDBRANCH  18  21
ENDBRANCH  12  18
TORSDOF 6
ENDMDL
MODEL 2
REMARK VINA RESULT:      -7.0      1.762      2.096
REMARK  Name = 45361444
REMARK  9 active torsions:
REMARK  status: ('A' for Active; 'I' for Inactive)
REMARK    1  A    between atoms: O_1  and  C_10
REMARK    2  A    between atoms: N_4  and  C_14
REMARK    3  A    between atoms: C_7  and  C_17
REMARK    4  A    between atoms: C_9  and  C_19
REMARK    5  A    between atoms: C_12  and  C_18
REMARK    6  A    between atoms: C_18  and  C_20
REMARK    7  A    between atoms: C_18  and  C_21
REMARK    8  A    between atoms: C_22  and  C_27
REMARK    9  A    between atoms: C_33  and  C_34
REMARK                            x       y       z     vdW  Elec       q    Type
REMARK                         _______ _______ _______ _____ _____    ______ ____
ROOT
ATOM      7  C   UNL     1      -4.764 -11.310  17.285  0.00  0.00    -0.027 C 
ATOM      8  C   UNL     1      -5.716 -10.528  16.320  0.00  0.00    +0.028 C 
ATOM      9  C   UNL     1      -7.191 -10.539  16.860  0.00  0.00    +0.012 C 
ATOM     10  C   UNL     1      -5.538 -11.001  14.849  0.00  0.00    +0.122 C 
ATOM     11  C   UNL     1      -3.305 -11.183  16.787  0.00  0.00    +0.007 C 
ATOM     12  C   UNL     1      -4.062 -10.971  14.388  0.00  0.00    +0.029 C 
ATOM     13  C   UNL     1      -4.836 -10.672  18.692  0.00  0.00    +0.009 C 
ATOM     14  C   UNL     1      -7.240  -9.964  18.304  0.00  0.00    +0.076 C 
ATOM     15  C   UNL     1      -3.120 -11.682  15.359  0.00  0.00    +0.007 C 
ATOM     16  C   UNL     1      -6.249 -10.630  19.257  0.00  0.00    +0.023 C 
ATOM     17  C   UNL     1      -5.125 -12.813  17.389  0.00  0.00    +0.011 C 
ATOM     19  C   UNL     1      -8.176  -9.763  15.972  0.00  0.00    +0.010 C 
ENDROOT
BRANCH  14   4
ATOM      3  O   UNL     1      -8.495 -12.343  19.309  0.00  0.00    -0.270 OA
ATOM      4  N   UNL     1      -8.567 -10.067  18.876  0.00  0.00    -0.308 N 
ATOM     22  C   UNL     1      -9.084 -11.266  19.334  0.00  0.00    +0.244 C 
ATOM     35  H   UNL     1      -9.153  -9.241  18.823  0.00  0.00    +0.149 HD
BRANCH  22  27
ATOM     27  C   UNL     1     -10.469 -11.209  19.868  0.00  0.00    +0.037 A 
ATOM     29  C   UNL     1     -11.155  -9.996  19.897  0.00  0.00    +0.014 A 
ATOM     30  C   UNL     1     -11.083 -12.370  20.338  0.00  0.00    +0.014 A 
ATOM     31  C   UNL     1     -12.457  -9.942  20.397  0.00  0.00    +0.019 A 
ATOM     32  C   UNL     1     -12.385 -12.316  20.838  0.00  0.00    +0.019 A 
ATOM     33  C   UNL     1     -13.071 -11.102  20.868  0.00  0.00    +0.052 A 
BRANCH  33  34
ATOM      6  N   UNL     1     -15.487 -11.002  21.796  0.00  0.00    -0.191 NA
ATOM     34  C   UNL     1     -14.405 -11.047  21.380  0.00  0.00    +0.099 C 
ENDBRANCH  33  34
ENDBRANCH  22  27
ENDBRANCH  14   4
BRANCH  10   1
ATOM      1  O   UNL     1      -6.256 -10.127  13.977  0.00  0.00    -0.391 OA
ATOM     36  H   UNL     1      -5.871 -10.203  13.087  0.00  0.00    +0.210 HD
ENDBRANCH  10   1
BRANCH  12  18
ATOM     18  C   UNL     1      -3.893 -11.562  12.984  0.00  0.00    +0.078 C 
ATOM     20  C   UNL     1      -2.931 -12.738  12.997  0.00  0.00    +0.017 C 
BRANCH  18  21
ATOM      2  O   UNL     1      -2.294  -9.948  12.311  0.00  0.00    -0.275 OA
ATOM      5  N   UNL     1      -4.184 -10.154  10.975  0.00  0.00    -0.301 N 
ATOM     21  C   UNL     1      -3.378 -10.483  12.065  0.00  0.00    +0.219 C 
ATOM     23  C   UNL     1      -3.754  -9.114  10.038  0.00  0.00    +0.108 C 
ATOM     24  C   UNL     1      -5.456 -10.803  10.632  0.00  0.00    +0.108 C 
ATOM     25  C   UNL     1      -4.832  -8.047   9.875  0.00  0.00    +0.019 C 
ATOM     26  C   UNL     1      -6.567  -9.767  10.479  0.00  0.00    +0.019 C 
ATOM     28  C   UNL     1      -6.173  -8.669   9.492  0.00  0.00    +0.003 C 
ENDBRANCH  18  21
ENDBRANCH  12  18
TORSDOF 6
ENDMDL
MODEL 3
REMARK VINA RESULT:      -6.4      4.093     11.044
REMARK  Name = 45361444
REMARK  9 active torsions:
REMARK  status: ('A' for Active; 'I' for Inactive)
REMARK    1  A    between atoms: O_1  and  C_10
REMARK    2  A    between atoms: N_4  and  C_14
REMARK    3  A    between atoms: C_7  and  C_17
REMARK    4  A    between atoms: C_9  and  C_19
REMARK    5  A    between atoms: C_12  and  C_18
REMARK    6  A    between atoms: C_18  and  C_20
REMARK    7  A    between atoms: C_18  and  C_21
REMARK    8  A    between atoms: C_22  and  C_27
REMARK    9  A    between atoms: C_33  and  C_34
REMARK                            x       y       z     vdW  Elec       q    Type
REMARK                         _______ _______ _______ _____ _____    ______ ____
ROOT
ATOM      7  C   UNL     1      -3.995 -13.996  13.001  0.00  0.00    -0.027 C 
ATOM      8  C   UNL     1      -4.145 -12.546  12.432  0.00  0.00    +0.028 C 
ATOM      9  C   UNL     1      -3.566 -12.454  10.975  0.00  0.00    +0.012 C 
ATOM     10  C   UNL     1      -3.602 -11.488  13.436  0.00  0.00    +0.122 C 
ATOM     11  C   UNL     1      -4.675 -14.081  14.388  0.00  0.00    +0.007 C 
ATOM     12  C   UNL     1      -4.209 -11.643  14.849  0.00  0.00    +0.029 C 
ATOM     13  C   UNL     1      -4.722 -14.985  12.061  0.00  0.00    +0.009 C 
ATOM     14  C   UNL     1      -4.252 -13.505  10.056  0.00  0.00    +0.076 C 
ATOM     15  C   UNL     1      -4.118 -13.072  15.385  0.00  0.00    +0.007 C 
ATOM     16  C   UNL     1      -4.221 -14.923  10.624  0.00  0.00    +0.023 C 
ATOM     17  C   UNL     1      -2.513 -14.427  13.147  0.00  0.00    +0.011 C 
ATOM     19  C   UNL     1      -3.708 -11.060  10.343  0.00  0.00    +0.010 C 
ENDROOT
BRANCH  14   4
ATOM      3  O   UNL     1      -5.556 -12.848   7.583  0.00  0.00    -0.270 OA
ATOM      4  N   UNL     1      -3.661 -13.527   8.734  0.00  0.00    -0.308 N 
ATOM     22  C   UNL     1      -4.377 -13.192   7.597  0.00  0.00    +0.244 C 
ATOM     35  H   UNL     1      -2.726 -13.912   8.657  0.00  0.00    +0.149 HD
BRANCH  22  27
ATOM     27  C   UNL     1      -3.635 -13.291   6.315  0.00  0.00    +0.037 A 
ATOM     29  C   UNL     1      -2.746 -14.345   6.104  0.00  0.00    +0.014 A 
ATOM     30  C   UNL     1      -3.828 -12.332   5.321  0.00  0.00    +0.014 A 
ATOM     31  C   UNL     1      -2.050 -14.440   4.898  0.00  0.00    +0.019 A 
ATOM     32  C   UNL     1      -3.132 -12.427   4.116  0.00  0.00    +0.019 A 
ATOM     33  C   UNL     1      -2.243 -13.480   3.905  0.00  0.00    +0.052 A 
BRANCH  33  34
ATOM      6  N   UNL     1      -0.950 -13.656   1.668  0.00  0.00    -0.191 NA
ATOM     34  C   UNL     1      -1.529 -13.577   2.670  0.00  0.00    +0.099 C 
ENDBRANCH  33  34
ENDBRANCH  22  27
ENDBRANCH  14   4
BRANCH  10   1
ATOM      1  O   UNL     1      -3.950 -10.180  12.983  0.00  0.00    -0.391 OA
ATOM     36  H   UNL     1      -3.158  -9.617  13.043  0.00  0.00    +0.210 HD
ENDBRANCH  10   1
BRANCH  12  18
ATOM     18  C   UNL     1      -3.567 -10.678  15.853  0.00  0.00    +0.078 C 
ATOM     20  C   UNL     1      -2.072 -10.921  15.966  0.00  0.00    +0.017 C 
BRANCH  18  21
ATOM      2  O   UNL     1      -3.624 -11.484  18.080  0.00  0.00    -0.275 OA
ATOM      5  N   UNL     1      -5.502 -10.329  17.348  0.00  0.00    -0.301 N 
ATOM     21  C   UNL     1      -4.226 -10.870  17.196  0.00  0.00    +0.219 C 
ATOM     23  C   UNL     1      -6.208 -10.475  18.623  0.00  0.00    +0.108 C 
ATOM     24  C   UNL     1      -6.225  -9.556  16.330  0.00  0.00    +0.108 C 
ATOM     25  C   UNL     1      -7.589 -11.090  18.414  0.00  0.00    +0.019 C 
ATOM     26  C   UNL     1      -7.607 -10.152  16.078  0.00  0.00    +0.019 C 
ATOM     28  C   UNL     1      -8.393 -10.305  17.380  0.00  0.00    +0.003 C 
ENDBRANCH  18  21
ENDBRANCH  12  18
TORSDOF 6
ENDMDL
MODEL 4
REMARK VINA RESULT:      -6.3      4.137      9.722
REMARK  Name = 45361444
REMARK  9 active torsions:
REMARK  status: ('A' for Active; 'I' for Inactive)
REMARK    1  A    between atoms: O_1  and  C_10
REMARK    2  A    between atoms: N_4  and  C_14
REMARK    3  A    between atoms: C_7  and  C_17
REMARK    4  A    between atoms: C_9  and  C_19
REMARK    5  A    between atoms: C_12  and  C_18
REMARK    6  A    between atoms: C_18  and  C_20
REMARK    7  A    between atoms: C_18  and  C_21
REMARK    8  A    between atoms: C_22  and  C_27
REMARK    9  A    between atoms: C_33  and  C_34
REMARK                            x       y       z     vdW  Elec       q    Type
REMARK                         _______ _______ _______ _____ _____    ______ ____
ROOT
ATOM      7  C   UNL     1      -3.641 -11.316  11.107  0.00  0.00    -0.027 C 
ATOM      8  C   UNL     1      -5.097 -10.987  11.578  0.00  0.00    +0.028 C 
ATOM      9  C   UNL     1      -5.854 -10.133  10.500  0.00  0.00    +0.012 C 
ATOM     10  C   UNL     1      -5.103 -10.403  13.021  0.00  0.00    +0.122 C 
ATOM     11  C   UNL     1      -2.963 -12.251  12.136  0.00  0.00    +0.007 C 
ATOM     12  C   UNL     1      -4.335 -11.292  14.026  0.00  0.00    +0.029 C 
ATOM     13  C   UNL     1      -3.705 -12.070   9.758  0.00  0.00    +0.009 C 
ATOM     14  C   UNL     1      -5.848 -10.867   9.129  0.00  0.00    +0.076 C 
ATOM     15  C   UNL     1      -2.933 -11.664  13.542  0.00  0.00    +0.007 C 
ATOM     16  C   UNL     1      -4.453 -11.300   8.679  0.00  0.00    +0.023 C 
ATOM     17  C   UNL     1      -2.770 -10.046  10.940  0.00  0.00    +0.011 C 
ATOM     19  C   UNL     1      -7.304  -9.798  10.888  0.00  0.00    +0.010 C 
ENDROOT
BRANCH  14   4
ATOM      3  O   UNL     1      -7.397 -11.802   6.900  0.00  0.00    -0.270 OA
ATOM      4  N   UNL     1      -6.436 -10.055   8.084  0.00  0.00    -0.308 N 
ATOM     22  C   UNL     1      -7.170 -10.604   7.046  0.00  0.00    +0.244 C 
ATOM     35  H   UNL     1      -6.193  -9.071   8.077  0.00  0.00    +0.149 HD
BRANCH  22  27
ATOM     27  C   UNL     1      -7.683  -9.640   6.040  0.00  0.00    +0.037 A 
ATOM     29  C   UNL     1      -8.167  -8.397   6.448  0.00  0.00    +0.014 A 
ATOM     30  C   UNL     1      -7.680  -9.977   4.686  0.00  0.00    +0.014 A 
ATOM     31  C   UNL     1      -8.648  -7.491   5.503  0.00  0.00    +0.019 A 
ATOM     32  C   UNL     1      -8.160  -9.070   3.741  0.00  0.00    +0.019 A 
ATOM     33  C   UNL     1      -8.645  -7.828   4.149  0.00  0.00    +0.052 A 
BRANCH  33  34
ATOM      6  N   UNL     1      -9.538  -6.145   2.396  0.00  0.00    -0.191 NA
ATOM     34  C   UNL     1      -9.138  -6.899   3.181  0.00  0.00    +0.099 C 
ENDBRANCH  33  34
ENDBRANCH  22  27
ENDBRANCH  14   4
BRANCH  10   1
ATOM      1  O   UNL     1      -6.448 -10.320  13.494  0.00  0.00    -0.391 OA
ATOM     36  H   UNL     1      -6.745 -11.218  13.723  0.00  0.00    +0.210 HD
ENDBRANCH  10   1
BRANCH  12  18
ATOM     18  C   UNL     1      -4.241 -10.636  15.409  0.00  0.00    +0.078 C 
ATOM     20  C   UNL     1      -2.795 -10.475  15.842  0.00  0.00    +0.017 C 
BRANCH  18  21
ATOM      2  O   UNL     1      -4.626 -12.661  16.578  0.00  0.00    -0.275 OA
ATOM      5  N   UNL     1      -6.058 -10.896  17.062  0.00  0.00    -0.301 N 
ATOM     21  C   UNL     1      -4.986 -11.495  16.401  0.00  0.00    +0.219 C 
ATOM     23  C   UNL     1      -6.832 -11.665  18.039  0.00  0.00    +0.108 C 
ATOM     24  C   UNL     1      -6.482  -9.499  16.905  0.00  0.00    +0.108 C 
ATOM     25  C   UNL     1      -8.321 -11.628  17.707  0.00  0.00    +0.019 C 
ATOM     26  C   UNL     1      -7.965  -9.420  16.552  0.00  0.00    +0.019 C 
ATOM     28  C   UNL     1      -8.818 -10.192  17.558  0.00  0.00    +0.003 C 
ENDBRANCH  18  21
ENDBRANCH  12  18
TORSDOF 6
ENDMDL
MODEL 5
REMARK VINA RESULT:      -6.3      5.246     11.814
REMARK  Name = 45361444
REMARK  9 active torsions:
REMARK  status: ('A' for Active; 'I' for Inactive)
REMARK    1  A    between atoms: O_1  and  C_10
REMARK    2  A    between atoms: N_4  and  C_14
REMARK    3  A    between atoms: C_7  and  C_17
REMARK    4  A    between atoms: C_9  and  C_19
REMARK    5  A    between atoms: C_12  and  C_18
REMARK    6  A    between atoms: C_18  and  C_20
REMARK    7  A    between atoms: C_18  and  C_21
REMARK    8  A    between atoms: C_22  and  C_27
REMARK    9  A    between atoms: C_33  and  C_34
REMARK                            x       y       z     vdW  Elec       q    Type
REMARK                         _______ _______ _______ _____ _____    ______ ____
ROOT
ATOM      7  C   UNL     1     -12.157 -11.541  20.190  0.00  0.00    -0.027 C 
ATOM      8  C   UNL     1     -11.036 -12.467  20.769  0.00  0.00    +0.028 C 
ATOM      9  C   UNL     1      -9.780 -12.481  19.826  0.00  0.00    +0.012 C 
ATOM     10  C   UNL     1     -11.602 -13.865  21.151  0.00  0.00    +0.122 C 
ATOM     11  C   UNL     1     -13.330 -11.459  21.194  0.00  0.00    +0.007 C 
ATOM     12  C   UNL     1     -12.840 -13.774  22.073  0.00  0.00    +0.029 C 
ATOM     13  C   UNL     1     -11.590 -10.113  20.012  0.00  0.00    +0.009 C 
ATOM     14  C   UNL     1      -9.264 -11.033  19.595  0.00  0.00    +0.076 C 
ATOM     15  C   UNL     1     -13.912 -12.823  21.540  0.00  0.00    +0.007 C 
ATOM     16  C   UNL     1     -10.352 -10.067  19.127  0.00  0.00    +0.023 C 
ATOM     17  C   UNL     1     -12.701 -12.046  18.830  0.00  0.00    +0.011 C 
ATOM     19  C   UNL     1      -8.627 -13.351  20.352  0.00  0.00    +0.010 C 
ENDROOT
BRANCH  14   4
ATOM      3  O   UNL     1      -6.520 -10.381  20.137  0.00  0.00    -0.270 OA
ATOM      4  N   UNL     1      -8.177 -10.998  18.637  0.00  0.00    -0.308 N 
ATOM     22  C   UNL     1      -6.882 -10.670  19.000  0.00  0.00    +0.244 C 
ATOM     35  H   UNL     1      -8.424 -11.113  17.660  0.00  0.00    +0.149 HD
BRANCH  22  27
ATOM     27  C   UNL     1      -5.888 -10.653  17.896  0.00  0.00    +0.037 A 
ATOM     29  C   UNL     1      -4.626 -11.215  18.086  0.00  0.00    +0.014 A 
ATOM     30  C   UNL     1      -6.219 -10.078  16.669  0.00  0.00    +0.014 A 
ATOM     31  C   UNL     1      -3.693 -11.200  17.048  0.00  0.00    +0.019 A 
ATOM     32  C   UNL     1      -5.286 -10.064  15.632  0.00  0.00    +0.019 A 
ATOM     33  C   UNL     1      -4.024 -10.625  15.822  0.00  0.00    +0.052 A 
BRANCH  33  34
ATOM      6  N   UNL     1      -2.292 -10.599  13.896  0.00  0.00    -0.191 NA
ATOM     34  C   UNL     1      -3.068 -10.611  14.759  0.00  0.00    +0.099 C 
ENDBRANCH  33  34
ENDBRANCH  22  27
ENDBRANCH  14   4
BRANCH  10   1
ATOM      1  O   UNL     1     -10.611 -14.600  21.869  0.00  0.00    -0.391 OA
ATOM     36  H   UNL     1     -11.013 -15.431  22.176  0.00  0.00    +0.210 HD
ENDBRANCH  10   1
BRANCH  12  18
ATOM     18  C   UNL     1     -13.460 -15.152  22.331  0.00  0.00    +0.078 C 
ATOM     20  C   UNL     1     -14.717 -15.351  21.503  0.00  0.00    +0.017 C 
BRANCH  18  21
ATOM      2  O   UNL     1     -14.736 -14.631  24.259  0.00  0.00    -0.275 OA
ATOM      5  N   UNL     1     -12.965 -16.104  24.556  0.00  0.00    -0.301 N 
ATOM     21  C   UNL     1     -13.785 -15.267  23.800  0.00  0.00    +0.219 C 
ATOM     23  C   UNL     1     -13.214 -16.267  25.990  0.00  0.00    +0.108 C 
ATOM     24  C   UNL     1     -11.853 -16.907  24.031  0.00  0.00    +0.108 C 
ATOM     25  C   UNL     1     -11.956 -15.971  26.800  0.00  0.00    +0.019 C 
ATOM     26  C   UNL     1     -10.568 -16.624  24.805  0.00  0.00    +0.019 C 
ATOM     28  C   UNL     1     -10.773 -16.803  26.309  0.00  0.00    +0.003 C 
ENDBRANCH  18  21
ENDBRANCH  12  18
TORSDOF 6
ENDMDL
MODEL 6
REMARK VINA RESULT:      -6.2      4.951      7.925
REMARK  Name = 45361444
REMARK  9 active torsions:
REMARK  status: ('A' for Active; 'I' for Inactive)
REMARK    1  A    between atoms: O_1  and  C_10
REMARK    2  A    between atoms: N_4  and  C_14
REMARK    3  A    between atoms: C_7  and  C_17
REMARK    4  A    between atoms: C_9  and  C_19
REMARK    5  A    between atoms: C_12  and  C_18
REMARK    6  A    between atoms: C_18  and  C_20
REMARK    7  A    between atoms: C_18  and  C_21
REMARK    8  A    between atoms: C_22  and  C_27
REMARK    9  A    between atoms: C_33  and  C_34
REMARK                            x       y       z     vdW  Elec       q    Type
REMARK                         _______ _______ _______ _____ _____    ______ ____
ROOT
ATOM      7  C   UNL     1      -4.603 -10.137  10.115  0.00  0.00    -0.027 C 
ATOM      8  C   UNL     1      -5.682 -10.409  11.216  0.00  0.00    +0.028 C 
ATOM      9  C   UNL     1      -6.814  -9.320  11.171  0.00  0.00    +0.012 C 
ATOM     10  C   UNL     1      -5.023 -10.632  12.608  0.00  0.00    +0.122 C 
ATOM     11  C   UNL     1      -3.568 -11.286  10.112  0.00  0.00    +0.007 C 
ATOM     12  C   UNL     1      -3.916 -11.711  12.576  0.00  0.00    +0.029 C 
ATOM     13  C   UNL     1      -5.289 -10.118   8.730  0.00  0.00    +0.009 C 
ATOM     14  C   UNL     1      -7.445  -9.259   9.751  0.00  0.00    +0.076 C 
ATOM     15  C   UNL     1      -2.893 -11.482  11.463  0.00  0.00    +0.007 C 
ATOM     16  C   UNL     1      -6.415  -9.098   8.634  0.00  0.00    +0.023 C 
ATOM     17  C   UNL     1      -3.857  -8.797  10.333  0.00  0.00    +0.011 C 
ATOM     19  C   UNL     1      -7.924  -9.544  12.209  0.00  0.00    +0.010 C 
ENDROOT
BRANCH  14   4
ATOM      3  O   UNL     1     -10.071  -9.429   8.602  0.00  0.00    -0.270 OA
ATOM      4  N   UNL     1      -8.412  -8.186   9.641  0.00  0.00    -0.308 N 
ATOM     22  C   UNL     1      -9.659  -8.370   9.067  0.00  0.00    +0.244 C 
ATOM     35  H   UNL     1      -8.097  -7.257   9.899  0.00  0.00    +0.149 HD
BRANCH  22  27
ATOM     27  C   UNL     1     -10.524  -7.164   9.006  0.00  0.00    +0.037 A 
ATOM     29  C   UNL     1     -11.908  -7.292   9.118  0.00  0.00    +0.014 A 
ATOM     30  C   UNL     1      -9.951  -5.903   8.838  0.00  0.00    +0.014 A 
ATOM     31  C   UNL     1     -12.720  -6.160   9.061  0.00  0.00    +0.019 A 
ATOM     32  C   UNL     1     -10.764  -4.770   8.783  0.00  0.00    +0.019 A 
ATOM     33  C   UNL     1     -12.148  -4.899   8.894  0.00  0.00    +0.052 A 
BRANCH  33  34
ATOM      6  N   UNL     1     -13.657  -2.797   8.791  0.00  0.00    -0.191 NA
ATOM     34  C   UNL     1     -12.981  -3.738   8.837  0.00  0.00    +0.099 C 
ENDBRANCH  33  34
ENDBRANCH  22  27
ENDBRANCH  14   4
BRANCH  10   1
ATOM      1  O   UNL     1      -6.010 -11.088  13.534  0.00  0.00    -0.391 OA
ATOM     36  H   UNL     1      -6.365 -11.933  13.208  0.00  0.00    +0.210 HD
ENDBRANCH  10   1
BRANCH  12  18
ATOM     18  C   UNL     1      -3.192 -11.823  13.922  0.00  0.00    +0.078 C 
ATOM     20  C   UNL     1      -1.773 -12.333  13.741  0.00  0.00    +0.017 C 
BRANCH  18  21
ATOM      2  O   UNL     1      -4.379 -13.829  14.349  0.00  0.00    -0.275 OA
ATOM      5  N   UNL     1      -4.180 -12.346  16.125  0.00  0.00    -0.301 N 
ATOM     21  C   UNL     1      -3.970 -12.761  14.811  0.00  0.00    +0.219 C 
ATOM     23  C   UNL     1      -4.928 -13.201  17.050  0.00  0.00    +0.108 C 
ATOM     24  C   UNL     1      -3.669 -11.102  16.716  0.00  0.00    +0.108 C 
ATOM     25  C   UNL     1      -6.085 -12.436  17.686  0.00  0.00    +0.019 C 
ATOM     26  C   UNL     1      -4.802 -10.297  17.347  0.00  0.00    +0.019 C 
ATOM     28  C   UNL     1      -5.601 -11.143  18.339  0.00  0.00    +0.003 C 
ENDBRANCH  18  21
ENDBRANCH  12  18
TORSDOF 6
ENDMDL
MODEL 7
REMARK VINA RESULT:      -6.2     26.395     32.554
REMARK  Name = 45361444
REMARK  9 active torsions:
REMARK  status: ('A' for Active; 'I' for Inactive)
REMARK    1  A    between atoms: O_1  and  C_10
REMARK    2  A    between atoms: N_4  and  C_14
REMARK    3  A    between atoms: C_7  and  C_17
REMARK    4  A    between atoms: C_9  and  C_19
REMARK    5  A    between atoms: C_12  and  C_18
REMARK    6  A    between atoms: C_18  and  C_20
REMARK    7  A    between atoms: C_18  and  C_21
REMARK    8  A    between atoms: C_22  and  C_27
REMARK    9  A    between atoms: C_33  and  C_34
REMARK                            x       y       z     vdW  Elec       q    Type
REMARK                         _______ _______ _______ _____ _____    ______ ____
ROOT
ATOM      7  C   UNL     1      14.752  11.166   6.306  0.00  0.00    -0.027 C 
ATOM      8  C   UNL     1      14.496   9.623   6.247  0.00  0.00    +0.028 C 
ATOM      9  C   UNL     1      15.527   8.921   5.293  0.00  0.00    +0.012 C 
ATOM     10  C   UNL     1      12.999   9.312   5.959  0.00  0.00    +0.122 C 
ATOM     11  C   UNL     1      13.796  11.810   7.338  0.00  0.00    +0.007 C 
ATOM     12  C   UNL     1      12.042  10.041   6.931  0.00  0.00    +0.029 C 
ATOM     13  C   UNL     1      16.200  11.419   6.786  0.00  0.00    +0.009 C 
ATOM     14  C   UNL     1      16.981   9.243   5.742  0.00  0.00    +0.076 C 
ATOM     15  C   UNL     1      12.328  11.539   7.037  0.00  0.00    +0.007 C 
ATOM     16  C   UNL     1      17.246  10.739   5.913  0.00  0.00    +0.023 C 
ATOM     17  C   UNL     1      14.541  11.856   4.935  0.00  0.00    +0.011 C 
ATOM     19  C   UNL     1      15.350   7.396   5.212  0.00  0.00    +0.010 C 
ENDROOT
BRANCH  14   4
ATOM      3  O   UNL     1      19.567   8.184   6.402  0.00  0.00    -0.270 OA
ATOM      4  N   UNL     1      17.958   8.707   4.816  0.00  0.00    -0.308 N 
ATOM     22  C   UNL     1      19.184   8.218   5.236  0.00  0.00    +0.244 C 
ATOM     35  H   UNL     1      17.756   8.810   3.828  0.00  0.00    +0.149 HD
BRANCH  22  27
ATOM     27  C   UNL     1      20.084   7.729   4.161  0.00  0.00    +0.037 A 
ATOM     29  C   UNL     1      21.145   6.879   4.473  0.00  0.00    +0.014 A 
ATOM     30  C   UNL     1      19.867   8.117   2.839  0.00  0.00    +0.014 A 
ATOM     31  C   UNL     1      21.990   6.418   3.463  0.00  0.00    +0.019 A 
ATOM     32  C   UNL     1      20.712   7.656   1.829  0.00  0.00    +0.019 A 
ATOM     33  C   UNL     1      21.773   6.806   2.141  0.00  0.00    +0.052 A 
BRANCH  33  34
ATOM      6  N   UNL     1      23.341   5.949   0.267  0.00  0.00    -0.191 NA
ATOM     34  C   UNL     1      22.639   6.333   1.107  0.00  0.00    +0.099 C 
ENDBRANCH  33  34
ENDBRANCH  22  27
ENDBRANCH  14   4
BRANCH  10   1
ATOM      1  O   UNL     1      12.763   7.913   6.127  0.00  0.00    -0.391 OA
ATOM     36  H   UNL     1      13.112   7.451   5.345  0.00  0.00    +0.210 HD
ENDBRANCH  10   1
BRANCH  12  18
ATOM     18  C   UNL     1      10.572   9.826   6.550  0.00  0.00    +0.078 C 
ATOM     20  C   UNL     1       9.876  11.149   6.282  0.00  0.00    +0.017 C 
BRANCH  18  21
ATOM      2  O   UNL     1       9.736   9.668   8.762  0.00  0.00    -0.275 OA
ATOM      5  N   UNL     1       9.454   7.799   7.412  0.00  0.00    -0.301 N 
ATOM     21  C   UNL     1       9.884   9.098   7.678  0.00  0.00    +0.219 C 
ATOM     23  C   UNL     1       8.779   7.026   8.457  0.00  0.00    +0.108 C 
ATOM     24  C   UNL     1       9.577   7.110   6.121  0.00  0.00    +0.108 C 
ATOM     25  C   UNL     1       9.466   5.680   8.670  0.00  0.00    +0.019 C 
ATOM     26  C   UNL     1      10.278   5.764   6.289  0.00  0.00    +0.019 C 
ATOM     28  C   UNL     1       9.595   4.911   7.357  0.00  0.00    +0.003 C 
ENDBRANCH  18  21
ENDBRANCH  12  18
TORSDOF 6
ENDMDL
MODEL 8
REMARK VINA RESULT:      -6.2      4.077     11.323
REMARK  Name = 45361444
REMARK  9 active torsions:
REMARK  status: ('A' for Active; 'I' for Inactive)
REMARK    1  A    between atoms: O_1  and  C_10
REMARK    2  A    between atoms: N_4  and  C_14
REMARK    3  A    between atoms: C_7  and  C_17
REMARK    4  A    between atoms: C_9  and  C_19
REMARK    5  A    between atoms: C_12  and  C_18
REMARK    6  A    between atoms: C_18  and  C_20
REMARK    7  A    between atoms: C_18  and  C_21
REMARK    8  A    between atoms: C_22  and  C_27
REMARK    9  A    between atoms: C_33  and  C_34
REMARK                            x       y       z     vdW  Elec       q    Type
REMARK                         _______ _______ _______ _____ _____    ______ ____
ROOT
ATOM      7  C   UNL     1     -11.651 -10.281  18.735  0.00  0.00    -0.027 C 
ATOM      8  C   UNL     1     -10.781 -11.208  19.647  0.00  0.00    +0.028 C 
ATOM      9  C   UNL     1      -9.496 -11.695  18.885  0.00  0.00    +0.012 C 
ATOM     10  C   UNL     1     -11.642 -12.332  20.292  0.00  0.00    +0.122 C 
ATOM     11  C   UNL     1     -12.845  -9.728  19.549  0.00  0.00    +0.007 C 
ATOM     12  C   UNL     1     -12.892 -11.781  21.018  0.00  0.00    +0.029 C 
ATOM     13  C   UNL     1     -10.796  -9.076  18.279  0.00  0.00    +0.009 C 
ATOM     14  C   UNL     1      -8.683 -10.476  18.366  0.00  0.00    +0.076 C 
ATOM     15  C   UNL     1     -13.713 -10.827  20.150  0.00  0.00    +0.007 C 
ATOM     16  C   UNL     1      -9.521  -9.487  17.556  0.00  0.00    +0.023 C 
ATOM     17  C   UNL     1     -12.199 -11.018  17.487  0.00  0.00    +0.011 C 
ATOM     19  C   UNL     1      -8.580 -12.590  19.734  0.00  0.00    +0.010 C 
ENDROOT
BRANCH  14   4
ATOM      3  O   UNL     1      -5.907 -10.267  19.068  0.00  0.00    -0.270 OA
ATOM      4  N   UNL     1      -7.554 -10.889  17.559  0.00  0.00    -0.308 N 
ATOM     22  C   UNL     1      -6.246 -10.745  17.988  0.00  0.00    +0.244 C 
ATOM     35  H   UNL     1      -7.754 -11.186  16.610  0.00  0.00    +0.149 HD
BRANCH  22  27
ATOM     27  C   UNL     1      -5.201 -11.193  17.032  0.00  0.00    +0.037 A 
ATOM     29  C   UNL     1      -4.125 -10.357  16.734  0.00  0.00    +0.014 A 
ATOM     30  C   UNL     1      -5.294 -12.450  16.436  0.00  0.00    +0.014 A 
ATOM     31  C   UNL     1      -3.142 -10.778  15.837  0.00  0.00    +0.019 A 
ATOM     32  C   UNL     1      -4.312 -12.871  15.540  0.00  0.00    +0.019 A 
ATOM     33  C   UNL     1      -3.236 -12.035  15.240  0.00  0.00    +0.052 A 
BRANCH  33  34
ATOM      6  N   UNL     1      -1.412 -12.817  13.576  0.00  0.00    -0.191 NA
ATOM     34  C   UNL     1      -2.229 -12.467  14.322  0.00  0.00    +0.099 C 
ENDBRANCH  33  34
ENDBRANCH  22  27
ENDBRANCH  14   4
BRANCH  10   1
ATOM      1  O   UNL     1     -10.869 -13.019  21.276  0.00  0.00    -0.391 OA
ATOM     36  H   UNL     1     -11.427 -13.153  22.061  0.00  0.00    +0.210 HD
ENDBRANCH  10   1
BRANCH  12  18
ATOM     18  C   UNL     1     -13.793 -12.909  21.533  0.00  0.00    +0.078 C 
ATOM     20  C   UNL     1     -15.260 -12.588  21.300  0.00  0.00    +0.017 C 
BRANCH  18  21
ATOM      2  O   UNL     1     -13.671 -12.141  23.772  0.00  0.00    -0.275 OA
ATOM      5  N   UNL     1     -13.144 -14.374  23.413  0.00  0.00    -0.301 N 
ATOM     21  C   UNL     1     -13.534 -13.098  23.007  0.00  0.00    +0.219 C 
ATOM     23  C   UNL     1     -12.871 -14.638  24.827  0.00  0.00    +0.108 C 
ATOM     24  C   UNL     1     -13.015 -15.544  22.534  0.00  0.00    +0.108 C 
ATOM     25  C   UNL     1     -11.486 -15.252  25.011  0.00  0.00    +0.019 C 
ATOM     26  C   UNL     1     -11.632 -16.176  22.675  0.00  0.00    +0.019 C 
ATOM     28  C   UNL     1     -11.310 -16.490  24.135  0.00  0.00    +0.003 C 
ENDBRANCH  18  21
ENDBRANCH  12  18
TORSDOF 6
ENDMDL
MODEL 9
REMARK VINA RESULT:      -6.1     24.253     28.728
REMARK  Name = 45361444
REMARK  9 active torsions:
REMARK  status: ('A' for Active; 'I' for Inactive)
REMARK    1  A    between atoms: O_1  and  C_10
REMARK    2  A    between atoms: N_4  and  C_14
REMARK    3  A    between atoms: C_7  and  C_17
REMARK    4  A    between atoms: C_9  and  C_19
REMARK    5  A    between atoms: C_12  and  C_18
REMARK    6  A    between atoms: C_18  and  C_20
REMARK    7  A    between atoms: C_18  and  C_21
REMARK    8  A    between atoms: C_22  and  C_27
REMARK    9  A    between atoms: C_33  and  C_34
REMARK                            x       y       z     vdW  Elec       q    Type
REMARK                         _______ _______ _______ _____ _____    ______ ____
ROOT
ATOM      7  C   UNL     1      12.301   6.960  -0.373  0.00  0.00    -0.027 C 
ATOM      8  C   UNL     1      11.188   5.863  -0.306  0.00  0.00    +0.028 C 
ATOM      9  C   UNL     1      10.961   5.386   1.174  0.00  0.00    +0.012 C 
ATOM     10  C   UNL     1      11.450   4.731  -1.341  0.00  0.00    +0.122 C 
ATOM     11  C   UNL     1      12.419   7.488  -1.822  0.00  0.00    +0.007 C 
ATOM     12  C   UNL     1      11.670   5.273  -2.772  0.00  0.00    +0.029 C 
ATOM     13  C   UNL     1      11.893   8.149   0.528  0.00  0.00    +0.009 C 
ATOM     14  C   UNL     1      10.625   6.600   2.085  0.00  0.00    +0.076 C 
ATOM     15  C   UNL     1      12.715   6.387  -2.833  0.00  0.00    +0.007 C 
ATOM     16  C   UNL     1      11.633   7.743   1.972  0.00  0.00    +0.023 C 
ATOM     17  C   UNL     1      13.686   6.431   0.078  0.00  0.00    +0.011 C 
ATOM     19  C   UNL     1       9.858   4.326   1.316  0.00  0.00    +0.010 C 
ENDROOT
BRANCH  14   4
ATOM      3  O   UNL     1       8.491   7.247   3.894  0.00  0.00    -0.270 OA
ATOM      4  N   UNL     1      10.524   6.213   3.477  0.00  0.00    -0.308 N 
ATOM     22  C   UNL     1       9.449   6.578   4.270  0.00  0.00    +0.244 C 
ATOM     35  H   UNL     1      11.333   5.758   3.885  0.00  0.00    +0.149 HD
BRANCH  22  27
ATOM     27  C   UNL     1       9.508   6.125   5.684  0.00  0.00    +0.037 A 
ATOM     29  C   UNL     1       9.859   4.808   5.980  0.00  0.00    +0.014 A 
ATOM     30  C   UNL     1       9.215   7.017   6.714  0.00  0.00    +0.014 A 
ATOM     31  C   UNL     1       9.917   4.383   7.307  0.00  0.00    +0.019 A 
ATOM     32  C   UNL     1       9.273   6.593   8.042  0.00  0.00    +0.019 A 
ATOM     33  C   UNL     1       9.623   5.276   8.338  0.00  0.00    +0.052 A 
BRANCH  33  34
ATOM      6  N   UNL     1       9.730   4.487  10.803  0.00  0.00    -0.191 NA
ATOM     34  C   UNL     1       9.682   4.840   9.699  0.00  0.00    +0.099 C 
ENDBRANCH  33  34
ENDBRANCH  22  27
ENDBRANCH  14   4
BRANCH  10   1
ATOM      1  O   UNL     1      10.313   3.869  -1.401  0.00  0.00    -0.391 OA
ATOM     36  H   UNL     1      10.625   2.949  -1.337  0.00  0.00    +0.210 HD
ENDBRANCH  10   1
BRANCH  12  18
ATOM     18  C   UNL     1      12.055   4.156  -3.750  0.00  0.00    +0.078 C 
ATOM     20  C   UNL     1      13.542   3.856  -3.682  0.00  0.00    +0.017 C 
BRANCH  18  21
ATOM      2  O   UNL     1      12.556   4.990  -5.911  0.00  0.00    -0.275 OA
ATOM      5  N   UNL     1      10.327   4.498  -5.482  0.00  0.00    -0.301 N 
ATOM     21  C   UNL     1      11.677   4.586  -5.146  0.00  0.00    +0.219 C 
ATOM     23  C   UNL     1       9.880   4.899  -6.818  0.00  0.00    +0.108 C 
ATOM     24  C   UNL     1       9.265   3.981  -4.609  0.00  0.00    +0.108 C 
ATOM     25  C   UNL     1       8.757   5.928  -6.732  0.00  0.00    +0.019 C 
ATOM     26  C   UNL     1       8.128   4.992  -4.481  0.00  0.00    +0.019 C 
ATOM     28  C   UNL     1       7.613   5.426  -5.853  0.00  0.00    +0.003 C 
ENDBRANCH  18  21
ENDBRANCH  12  18
TORSDOF 6
ENDMDL
MODEL 10
REMARK VINA RESULT:      -6.1     29.775     32.173
REMARK  Name = 45361444
REMARK  9 active torsions:
REMARK  status: ('A' for Active; 'I' for Inactive)
REMARK    1  A    between atoms: O_1  and  C_10
REMARK    2  A    between atoms: N_4  and  C_14
REMARK    3  A    between atoms: C_7  and  C_17
REMARK    4  A    between atoms: C_9  and  C_19
REMARK    5  A    between atoms: C_12  and  C_18
REMARK    6  A    between atoms: C_18  and  C_20
REMARK    7  A    between atoms: C_18  and  C_21
REMARK    8  A    between atoms: C_22  and  C_27
REMARK    9  A    between atoms: C_33  and  C_34
REMARK                            x       y       z     vdW  Elec       q    Type
REMARK                         _______ _______ _______ _____ _____    ______ ____
ROOT
ATOM      7  C   UNL     1      21.461  -5.984   0.964  0.00  0.00    -0.027 C 
ATOM      8  C   UNL     1      20.410  -7.143   0.942  0.00  0.00    +0.028 C 
ATOM      9  C   UNL     1      20.959  -8.409   1.693  0.00  0.00    +0.012 C 
ATOM     10  C   UNL     1      19.881  -7.397  -0.499  0.00  0.00    +0.122 C 
ATOM     11  C   UNL     1      20.848  -4.718   0.318  0.00  0.00    +0.007 C 
ATOM     12  C   UNL     1      19.364  -6.107  -1.178  0.00  0.00    +0.029 C 
ATOM     13  C   UNL     1      21.806  -5.643   2.432  0.00  0.00    +0.009 C 
ATOM     14  C   UNL     1      21.372  -8.037   3.145  0.00  0.00    +0.076 C 
ATOM     15  C   UNL     1      20.364  -4.954  -1.107  0.00  0.00    +0.007 C 
ATOM     16  C   UNL     1      22.319  -6.840   3.219  0.00  0.00    +0.023 C 
ATOM     17  C   UNL     1      22.763  -6.348   0.205  0.00  0.00    +0.011 C 
ATOM     19  C   UNL     1      19.963  -9.579   1.734  0.00  0.00    +0.010 C 
ENDROOT
BRANCH  14   4
ATOM      3  O   UNL     1      21.743  -8.321   5.978  0.00  0.00    -0.270 OA
ATOM      4  N   UNL     1      21.991  -9.155   3.828  0.00  0.00    -0.308 N 
ATOM     22  C   UNL     1      22.124  -9.197   5.206  0.00  0.00    +0.244 C 
ATOM     35  H   UNL     1      22.431  -9.860   3.247  0.00  0.00    +0.149 HD
BRANCH  22  27
ATOM     27  C   UNL     1      22.804 -10.400   5.751  0.00  0.00    +0.037 A 
ATOM     29  C   UNL     1      24.186 -10.538   5.620  0.00  0.00    +0.014 A 
ATOM     30  C   UNL     1      22.062 -11.389   6.396  0.00  0.00    +0.014 A 
ATOM     31  C   UNL     1      24.825 -11.667   6.133  0.00  0.00    +0.019 A 
ATOM     32  C   UNL     1      22.702 -12.517   6.910  0.00  0.00    +0.019 A 
ATOM     33  C   UNL     1      24.083 -12.656   6.777  0.00  0.00    +0.052 A 
BRANCH  33  34
ATOM      6  N   UNL     1      25.272 -14.750   7.730  0.00  0.00    -0.191 NA
ATOM     34  C   UNL     1      24.739 -13.812   7.303  0.00  0.00    +0.099 C 
ENDBRANCH  33  34
ENDBRANCH  22  27
ENDBRANCH  14   4
BRANCH  10   1
ATOM      1  O   UNL     1      18.777  -8.302  -0.448  0.00  0.00    -0.391 OA
ATOM     36  H   UNL     1      19.119  -9.204  -0.579  0.00  0.00    +0.210 HD
ENDBRANCH  10   1
BRANCH  12  18
ATOM     18  C   UNL     1      18.969  -6.353  -2.639  0.00  0.00    +0.078 C 
ATOM     20  C   UNL     1      19.941  -5.679  -3.591  0.00  0.00    +0.017 C 
BRANCH  18  21
ATOM      2  O   UNL     1      17.272  -4.718  -2.391  0.00  0.00    -0.275 OA
ATOM      5  N   UNL     1      16.705  -6.626  -3.590  0.00  0.00    -0.301 N 
ATOM     21  C   UNL     1      17.575  -5.818  -2.858  0.00  0.00    +0.219 C 
ATOM     23  C   UNL     1      15.334  -6.177  -3.844  0.00  0.00    +0.108 C 
ATOM     24  C   UNL     1      17.051  -7.918  -4.195  0.00  0.00    +0.108 C 
ATOM     25  C   UNL     1      14.324  -7.228  -3.392  0.00  0.00    +0.019 C 
ATOM     26  C   UNL     1      16.072  -9.003  -3.752  0.00  0.00    +0.019 C 
ATOM     28  C   UNL     1      14.625  -8.589  -4.017  0.00  0.00    +0.003 C 
ENDBRANCH  18  21
ENDBRANCH  12  18
TORSDOF 6
ENDMDL
