MODEL 1
REMARK VINA RESULT:      -7.4      0.000      0.000
REMARK  Name = 75536073
REMARK  6 active torsions:
REMARK  status: ('A' for Active; 'I' for Inactive)
REMARK    1  A    between atoms: O_1  and  C_8
REMARK    2  A    between atoms: O_2  and  C_10
REMARK    3  A    between atoms: N_4  and  C_7
REMARK    4  A    between atoms: C_6  and  C_11
REMARK    5  A    between atoms: C_14  and  C_15
REMARK    6  A    between atoms: C_18  and  C_21
REMARK                            x       y       z     vdW  Elec       q    Type
REMARK                         _______ _______ _______ _____ _____    ______ ____
ROOT
ATOM      6  C   UNL     1      12.661   8.763  22.116  0.00  0.00    +0.046 C 
ATOM      7  C   UNL     1      13.043   7.871  20.913  0.00  0.00    +0.112 C 
ATOM      8  C   UNL     1      12.088   6.684  21.033  0.00  0.00    +0.164 C 
ATOM      9  C   UNL     1      11.203   8.380  22.481  0.00  0.00    +0.044 C 
ATOM     10  C   UNL     1      10.775   7.337  21.451  0.00  0.00    +0.145 C 
ENDROOT
BRANCH   6  11
ATOM      5  N   UNL     1      14.286  12.190  22.034  0.00  0.00    -0.263 NA
ATOM     11  C   UNL     1      12.871  10.239  21.849  0.00  0.00    -0.024 A 
ATOM     12  C   UNL     1      11.899  10.996  21.204  0.00  0.00    +0.007 A 
ATOM     13  C   UNL     1      14.037  10.878  22.241  0.00  0.00    +0.114 A 
ATOM     16  C   UNL     1      12.120  12.350  20.974  0.00  0.00    +0.020 A 
ATOM     17  C   UNL     1      13.318  12.894  21.404  0.00  0.00    +0.111 A 
ENDBRANCH   6  11
BRANCH   7   4
ATOM      3  O   UNL     1      15.115   8.598  19.063  0.00  0.00    -0.270 OA
ATOM      4  N   UNL     1      14.422   7.459  20.961  0.00  0.00    -0.305 N 
ATOM     14  C   UNL     1      15.357   7.864  20.018  0.00  0.00    +0.245 C 
ATOM     24  H   UNL     1      14.727   6.884  21.742  0.00  0.00    +0.149 HD
BRANCH  14  15
ATOM     15  C   UNL     1      16.732   7.331  20.193  0.00  0.00    +0.040 A 
ATOM     18  C   UNL     1      17.663   7.987  20.998  0.00  0.00    -0.038 A 
ATOM     19  C   UNL     1      17.086   6.153  19.535  0.00  0.00    +0.013 A 
ATOM     20  C   UNL     1      18.948   7.465  21.146  0.00  0.00    +0.004 A 
ATOM     21  C   UNL     1      17.310   9.250  21.714  0.00  0.00    +0.044 C 
ATOM     22  C   UNL     1      18.371   5.631  19.683  0.00  0.00    +0.001 A 
ATOM     23  C   UNL     1      19.302   6.286  20.488  0.00  0.00    +0.000 A 
ENDBRANCH  14  15
ENDBRANCH   7   4
BRANCH   8   1
ATOM      1  O   UNL     1      11.945   5.985  19.811  0.00  0.00    -0.387 OA
ATOM     25  H   UNL     1      11.124   6.295  19.392  0.00  0.00    +0.210 HD
ENDBRANCH   8   1
BRANCH  10   2
ATOM      2  O   UNL     1      10.165   8.005  20.351  0.00  0.00    -0.389 OA
ATOM     26  H   UNL     1      10.083   8.945  20.589  0.00  0.00    +0.210 HD
ENDBRANCH  10   2
TORSDOF 5
ENDMDL
MODEL 2
REMARK VINA RESULT:      -6.5      3.288      6.716
REMARK  Name = 75536073
REMARK  6 active torsions:
REMARK  status: ('A' for Active; 'I' for Inactive)
REMARK    1  A    between atoms: O_1  and  C_8
REMARK    2  A    between atoms: O_2  and  C_10
REMARK    3  A    between atoms: N_4  and  C_7
REMARK    4  A    between atoms: C_6  and  C_11
REMARK    5  A    between atoms: C_14  and  C_15
REMARK    6  A    between atoms: C_18  and  C_21
REMARK                            x       y       z     vdW  Elec       q    Type
REMARK                         _______ _______ _______ _____ _____    ______ ____
ROOT
ATOM      6  C   UNL     1      11.859   8.315  19.622  0.00  0.00    +0.046 C 
ATOM      7  C   UNL     1      12.642   9.195  20.623  0.00  0.00    +0.112 C 
ATOM      8  C   UNL     1      13.014   8.219  21.739  0.00  0.00    +0.164 C 
ATOM      9  C   UNL     1      12.321   6.859  19.889  0.00  0.00    +0.044 C 
ATOM     10  C   UNL     1      13.386   6.951  20.979  0.00  0.00    +0.145 C 
ENDROOT
BRANCH   6  11
ATOM      5  N   UNL     1      11.144   8.835  15.933  0.00  0.00    -0.263 NA
ATOM     11  C   UNL     1      12.019   8.767  18.186  0.00  0.00    -0.024 A 
ATOM     12  C   UNL     1      13.130   9.500  17.784  0.00  0.00    +0.007 A 
ATOM     13  C   UNL     1      11.062   8.463  17.230  0.00  0.00    +0.114 A 
ATOM     16  C   UNL     1      13.249   9.901  16.458  0.00  0.00    +0.020 A 
ATOM     17  C   UNL     1      12.239   9.546  15.580  0.00  0.00    +0.111 A 
ENDBRANCH   6  11
BRANCH   7   4
ATOM      3  O   UNL     1      13.618  11.607  21.838  0.00  0.00    -0.270 OA
ATOM      4  N   UNL     1      11.849  10.294  21.112  0.00  0.00    -0.305 N 
ATOM     14  C   UNL     1      12.412  11.424  21.688  0.00  0.00    +0.245 C 
ATOM     24  H   UNL     1      10.840  10.253  20.991  0.00  0.00    +0.149 HD
BRANCH  14  15
ATOM     15  C   UNL     1      11.457  12.456  22.166  0.00  0.00    +0.040 A 
ATOM     18  C   UNL     1      10.958  12.430  23.468  0.00  0.00    -0.038 A 
ATOM     19  C   UNL     1      11.060  13.464  21.288  0.00  0.00    +0.013 A 
ATOM     20  C   UNL     1      10.062  13.411  23.892  0.00  0.00    +0.004 A 
ATOM     21  C   UNL     1      11.366  11.362  24.430  0.00  0.00    +0.044 C 
ATOM     22  C   UNL     1      10.164  14.446  21.711  0.00  0.00    +0.001 A 
ATOM     23  C   UNL     1       9.666  14.420  23.013  0.00  0.00    +0.000 A 
ENDBRANCH  14  15
ENDBRANCH   7   4
BRANCH   8   1
ATOM      1  O   UNL     1      14.099   8.685  22.519  0.00  0.00    -0.387 OA
ATOM     25  H   UNL     1      14.916   8.489  22.027  0.00  0.00    +0.210 HD
ENDBRANCH   8   1
BRANCH  10   2
ATOM      2  O   UNL     1      14.662   7.082  20.361  0.00  0.00    -0.389 OA
ATOM     26  H   UNL     1      14.857   8.033  20.294  0.00  0.00    +0.210 HD
ENDBRANCH  10   2
TORSDOF 5
ENDMDL
MODEL 3
REMARK VINA RESULT:      -6.1     26.572     28.568
REMARK  Name = 75536073
REMARK  6 active torsions:
REMARK  status: ('A' for Active; 'I' for Inactive)
REMARK    1  A    between atoms: O_1  and  C_8
REMARK    2  A    between atoms: O_2  and  C_10
REMARK    3  A    between atoms: N_4  and  C_7
REMARK    4  A    between atoms: C_6  and  C_11
REMARK    5  A    between atoms: C_14  and  C_15
REMARK    6  A    between atoms: C_18  and  C_21
REMARK                            x       y       z     vdW  Elec       q    Type
REMARK                         _______ _______ _______ _____ _____    ______ ____
ROOT
ATOM      6  C   UNL     1      -3.647 -12.948  12.424  0.00  0.00    +0.046 C 
ATOM      7  C   UNL     1      -3.084 -13.244  13.833  0.00  0.00    +0.112 C 
ATOM      8  C   UNL     1      -3.031 -14.771  13.881  0.00  0.00    +0.164 C 
ATOM      9  C   UNL     1      -3.330 -14.203  11.570  0.00  0.00    +0.044 C 
ATOM     10  C   UNL     1      -2.549 -15.145  12.484  0.00  0.00    +0.145 C 
ENDROOT
BRANCH   6  11
ATOM      5  N   UNL     1      -1.397  -9.968  11.758  0.00  0.00    -0.263 NA
ATOM     11  C   UNL     1      -3.132 -11.649  11.841  0.00  0.00    -0.024 A 
ATOM     12  C   UNL     1      -3.867 -10.949  10.892  0.00  0.00    +0.007 A 
ATOM     13  C   UNL     1      -1.913 -11.121  12.238  0.00  0.00    +0.114 A 
ATOM     16  C   UNL     1      -3.368  -9.758  10.375  0.00  0.00    +0.020 A 
ATOM     17  C   UNL     1      -2.140  -9.314  10.836  0.00  0.00    +0.111 A 
ENDBRANCH   6  11
BRANCH   7   4
ATOM      3  O   UNL     1      -2.412 -11.106  15.628  0.00  0.00    -0.270 OA
ATOM      4  N   UNL     1      -3.918 -12.701  14.874  0.00  0.00    -0.305 N 
ATOM     14  C   UNL     1      -3.506 -11.662  15.697  0.00  0.00    +0.245 C 
ATOM     24  H   UNL     1      -4.860 -13.069  14.979  0.00  0.00    +0.149 HD
BRANCH  14  15
ATOM     15  C   UNL     1      -4.473 -11.234  16.739  0.00  0.00    +0.040 A 
ATOM     18  C   UNL     1      -5.558 -10.415  16.425  0.00  0.00    -0.038 A 
ATOM     19  C   UNL     1      -4.282 -11.664  18.052  0.00  0.00    +0.013 A 
ATOM     20  C   UNL     1      -6.451 -10.027  17.423  0.00  0.00    +0.004 A 
ATOM     21  C   UNL     1      -5.786  -9.939  15.027  0.00  0.00    +0.044 C 
ATOM     22  C   UNL     1      -5.176 -11.276  19.050  0.00  0.00    +0.001 A 
ATOM     23  C   UNL     1      -6.260 -10.458  18.736  0.00  0.00    +0.000 A 
ENDBRANCH  14  15
ENDBRANCH   7   4
BRANCH   8   1
ATOM      1  O   UNL     1      -2.141 -15.246  14.873  0.00  0.00    -0.387 OA
ATOM     25  H   UNL     1      -1.495 -14.539  15.046  0.00  0.00    +0.210 HD
ENDBRANCH   8   1
BRANCH  10   2
ATOM      2  O   UNL     1      -1.159 -14.877  12.336  0.00  0.00    -0.389 OA
ATOM     26  H   UNL     1      -0.682 -15.458  12.954  0.00  0.00    +0.210 HD
ENDBRANCH  10   2
TORSDOF 5
ENDMDL
MODEL 4
REMARK VINA RESULT:      -6.0     27.509     28.675
REMARK  Name = 75536073
REMARK  6 active torsions:
REMARK  status: ('A' for Active; 'I' for Inactive)
REMARK    1  A    between atoms: O_1  and  C_8
REMARK    2  A    between atoms: O_2  and  C_10
REMARK    3  A    between atoms: N_4  and  C_7
REMARK    4  A    between atoms: C_6  and  C_11
REMARK    5  A    between atoms: C_14  and  C_15
REMARK    6  A    between atoms: C_18  and  C_21
REMARK                            x       y       z     vdW  Elec       q    Type
REMARK                         _______ _______ _______ _____ _____    ______ ____
ROOT
ATOM      6  C   UNL     1      -5.860 -10.238  16.920  0.00  0.00    +0.046 C 
ATOM      7  C   UNL     1      -5.265 -11.218  15.882  0.00  0.00    +0.112 C 
ATOM      8  C   UNL     1      -4.033 -11.782  16.590  0.00  0.00    +0.164 C 
ATOM      9  C   UNL     1      -5.335 -10.714  18.299  0.00  0.00    +0.044 C 
ATOM     10  C   UNL     1      -4.516 -11.973  18.023  0.00  0.00    +0.145 C 
ENDROOT
BRANCH   6  11
ATOM      5  N   UNL     1      -9.485 -11.143  16.269  0.00  0.00    -0.263 NA
ATOM     11  C   UNL     1      -7.367 -10.123  16.831  0.00  0.00    -0.024 A 
ATOM     12  C   UNL     1      -8.020  -8.955  17.204  0.00  0.00    +0.007 A 
ATOM     13  C   UNL     1      -8.138 -11.180  16.374  0.00  0.00    +0.114 A 
ATOM     16  C   UNL     1      -9.405  -8.878  17.111  0.00  0.00    +0.020 A 
ATOM     17  C   UNL     1     -10.085  -9.989  16.642  0.00  0.00    +0.111 A 
ENDBRANCH   6  11
BRANCH   7   4
ATOM      3  O   UNL     1      -5.095 -12.421  13.281  0.00  0.00    -0.270 OA
ATOM      4  N   UNL     1      -4.922 -10.556  14.649  0.00  0.00    -0.305 N 
ATOM     14  C   UNL     1      -4.865 -11.224  13.434  0.00  0.00    +0.245 C 
ATOM     24  H   UNL     1      -4.757  -9.554  14.669  0.00  0.00    +0.149 HD
BRANCH  14  15
ATOM     15  C   UNL     1      -4.470 -10.406  12.259  0.00  0.00    +0.040 A 
ATOM     18  C   UNL     1      -3.156 -10.407  11.787  0.00  0.00    -0.038 A 
ATOM     19  C   UNL     1      -5.437  -9.627  11.626  0.00  0.00    +0.013 A 
ATOM     20  C   UNL     1      -2.812  -9.630  10.681  0.00  0.00    +0.004 A 
ATOM     21  C   UNL     1      -2.100 -11.233  12.446  0.00  0.00    +0.044 C 
ATOM     22  C   UNL     1      -5.092  -8.849  10.520  0.00  0.00    +0.001 A 
ATOM     23  C   UNL     1      -3.780  -8.851  10.048  0.00  0.00    +0.000 A 
ENDBRANCH  14  15
ENDBRANCH   7   4
BRANCH   8   1
ATOM      1  O   UNL     1      -3.605 -13.006  16.026  0.00  0.00    -0.387 OA
ATOM     25  H   UNL     1      -4.065 -13.112  15.176  0.00  0.00    +0.210 HD
ENDBRANCH   8   1
BRANCH  10   2
ATOM      2  O   UNL     1      -5.372 -13.107  18.126  0.00  0.00    -0.389 OA
ATOM     26  H   UNL     1      -6.062 -13.013  17.447  0.00  0.00    +0.210 HD
ENDBRANCH  10   2
TORSDOF 5
ENDMDL
MODEL 5
REMARK VINA RESULT:      -5.9      2.179      5.827
REMARK  Name = 75536073
REMARK  6 active torsions:
REMARK  status: ('A' for Active; 'I' for Inactive)
REMARK    1  A    between atoms: O_1  and  C_8
REMARK    2  A    between atoms: O_2  and  C_10
REMARK    3  A    between atoms: N_4  and  C_7
REMARK    4  A    between atoms: C_6  and  C_11
REMARK    5  A    between atoms: C_14  and  C_15
REMARK    6  A    between atoms: C_18  and  C_21
REMARK                            x       y       z     vdW  Elec       q    Type
REMARK                         _______ _______ _______ _____ _____    ______ ____
ROOT
ATOM      6  C   UNL     1      14.167   8.455  19.983  0.00  0.00    +0.046 C 
ATOM      7  C   UNL     1      13.181   8.087  21.116  0.00  0.00    +0.112 C 
ATOM      8  C   UNL     1      11.811   8.211  20.450  0.00  0.00    +0.164 C 
ATOM      9  C   UNL     1      13.406   8.188  18.658  0.00  0.00    +0.044 C 
ATOM     10  C   UNL     1      12.046   7.623  19.063  0.00  0.00    +0.145 C 
ENDROOT
BRANCH   6  11
ATOM      5  N   UNL     1      16.949   5.954  19.350  0.00  0.00    -0.263 NA
ATOM     11  C   UNL     1      15.495   7.736  20.096  0.00  0.00    -0.024 A 
ATOM     12  C   UNL     1      16.461   8.154  21.004  0.00  0.00    +0.007 A 
ATOM     13  C   UNL     1      15.785   6.641  19.299  0.00  0.00    +0.114 A 
ATOM     16  C   UNL     1      17.671   7.474  21.086  0.00  0.00    +0.020 A 
ATOM     17  C   UNL     1      17.864   6.391  20.245  0.00  0.00    +0.111 A 
ENDBRANCH   6  11
BRANCH   7   4
ATOM      3  O   UNL     1      13.046  10.955  21.088  0.00  0.00    -0.270 OA
ATOM      4  N   UNL     1      13.310   8.965  22.250  0.00  0.00    -0.305 N 
ATOM     14  C   UNL     1      13.230  10.346  22.139  0.00  0.00    +0.245 C 
ATOM     24  H   UNL     1      13.421   8.550  23.172  0.00  0.00    +0.149 HD
BRANCH  14  15
ATOM     15  C   UNL     1      13.410  11.113  23.399  0.00  0.00    +0.040 A 
ATOM     18  C   UNL     1      12.313  11.519  24.160  0.00  0.00    -0.038 A 
ATOM     19  C   UNL     1      14.702  11.426  23.818  0.00  0.00    +0.013 A 
ATOM     20  C   UNL     1      12.509  12.237  25.339  0.00  0.00    +0.004 A 
ATOM     21  C   UNL     1      10.917  11.196  23.734  0.00  0.00    +0.044 C 
ATOM     22  C   UNL     1      14.899  12.145  24.997  0.00  0.00    +0.001 A 
ATOM     23  C   UNL     1      13.802  12.550  25.757  0.00  0.00    +0.000 A 
ENDBRANCH  14  15
ENDBRANCH   7   4
BRANCH   8   1
ATOM      1  O   UNL     1      10.810   7.494  21.146  0.00  0.00    -0.387 OA
ATOM     25  H   UNL     1      10.295   6.999  20.487  0.00  0.00    +0.210 HD
ENDBRANCH   8   1
BRANCH  10   2
ATOM      2  O   UNL     1      12.140   6.203  19.120  0.00  0.00    -0.389 OA
ATOM     26  H   UNL     1      11.235   5.849  19.068  0.00  0.00    +0.210 HD
ENDBRANCH  10   2
TORSDOF 5
ENDMDL
MODEL 6
REMARK VINA RESULT:      -5.8     17.136     18.664
REMARK  Name = 75536073
REMARK  6 active torsions:
REMARK  status: ('A' for Active; 'I' for Inactive)
REMARK    1  A    between atoms: O_1  and  C_8
REMARK    2  A    between atoms: O_2  and  C_10
REMARK    3  A    between atoms: N_4  and  C_7
REMARK    4  A    between atoms: C_6  and  C_11
REMARK    5  A    between atoms: C_14  and  C_15
REMARK    6  A    between atoms: C_18  and  C_21
REMARK                            x       y       z     vdW  Elec       q    Type
REMARK                         _______ _______ _______ _____ _____    ______ ____
ROOT
ATOM      6  C   UNL     1       9.668   5.142   4.863  0.00  0.00    +0.046 C 
ATOM      7  C   UNL     1       9.427   6.546   5.463  0.00  0.00    +0.112 C 
ATOM      8  C   UNL     1       8.941   6.249   6.881  0.00  0.00    +0.164 C 
ATOM      9  C   UNL     1       9.886   4.197   6.074  0.00  0.00    +0.044 C 
ATOM     10  C   UNL     1       9.827   5.086   7.314  0.00  0.00    +0.145 C 
ENDROOT
BRANCH   6  11
ATOM      5  N   UNL     1      12.666   6.235   2.812  0.00  0.00    -0.263 NA
ATOM     11  C   UNL     1      10.786   5.117   3.843  0.00  0.00    -0.024 A 
ATOM     12  C   UNL     1      10.979   4.016   3.017  0.00  0.00    +0.007 A 
ATOM     13  C   UNL     1      11.650   6.192   3.703  0.00  0.00    +0.114 A 
ATOM     16  C   UNL     1      12.014   4.022   2.088  0.00  0.00    +0.020 A 
ATOM     17  C   UNL     1      12.822   5.145   2.026  0.00  0.00    +0.111 A 
ENDBRANCH   6  11
BRANCH   7   4
ATOM      3  O   UNL     1       9.647   9.289   4.641  0.00  0.00    -0.270 OA
ATOM      4  N   UNL     1       8.458   7.298   4.708  0.00  0.00    -0.305 N 
ATOM     14  C   UNL     1       8.652   8.626   4.355  0.00  0.00    +0.245 C 
ATOM     24  H   UNL     1       7.620   6.820   4.387  0.00  0.00    +0.149 HD
BRANCH  14  15
ATOM     15  C   UNL     1       7.546   9.268   3.599  0.00  0.00    +0.040 A 
ATOM     18  C   UNL     1       7.525   9.256   2.204  0.00  0.00    -0.038 A 
ATOM     19  C   UNL     1       6.518   9.889   4.307  0.00  0.00    +0.013 A 
ATOM     20  C   UNL     1       6.474   9.866   1.518  0.00  0.00    +0.004 A 
ATOM     21  C   UNL     1       8.613   8.598   1.420  0.00  0.00    +0.044 C 
ATOM     22  C   UNL     1       5.468  10.498   3.621  0.00  0.00    +0.001 A 
ATOM     23  C   UNL     1       5.446  10.487   2.227  0.00  0.00    +0.000 A 
ENDBRANCH  14  15
ENDBRANCH   7   4
BRANCH   8   1
ATOM      1  O   UNL     1       9.095   7.359   7.745  0.00  0.00    -0.387 OA
ATOM     25  H   UNL     1       9.985   7.722   7.596  0.00  0.00    +0.210 HD
ENDBRANCH   8   1
BRANCH  10   2
ATOM      2  O   UNL     1      11.143   5.534   7.619  0.00  0.00    -0.389 OA
ATOM     26  H   UNL     1      11.667   4.753   7.868  0.00  0.00    +0.210 HD
ENDBRANCH  10   2
TORSDOF 5
ENDMDL
MODEL 7
REMARK VINA RESULT:      -5.8     31.272     32.293
REMARK  Name = 75536073
REMARK  6 active torsions:
REMARK  status: ('A' for Active; 'I' for Inactive)
REMARK    1  A    between atoms: O_1  and  C_8
REMARK    2  A    between atoms: O_2  and  C_10
REMARK    3  A    between atoms: N_4  and  C_7
REMARK    4  A    between atoms: C_6  and  C_11
REMARK    5  A    between atoms: C_14  and  C_15
REMARK    6  A    between atoms: C_18  and  C_21
REMARK                            x       y       z     vdW  Elec       q    Type
REMARK                         _______ _______ _______ _____ _____    ______ ____
ROOT
ATOM      6  C   UNL     1     -15.180   3.295  29.456  0.00  0.00    +0.046 C 
ATOM      7  C   UNL     1     -16.032   4.352  30.195  0.00  0.00    +0.112 C 
ATOM      8  C   UNL     1     -16.589   5.216  29.064  0.00  0.00    +0.164 C 
ATOM      9  C   UNL     1     -15.746   3.231  28.013  0.00  0.00    +0.044 C 
ATOM     10  C   UNL     1     -16.931   4.195  27.985  0.00  0.00    +0.145 C 
ENDROOT
BRANCH   6  11
ATOM      5  N   UNL     1     -15.432  -0.437  30.084  0.00  0.00    -0.263 NA
ATOM     11  C   UNL     1     -15.139   1.961  30.170  0.00  0.00    -0.024 A 
ATOM     12  C   UNL     1     -14.792   1.878  31.513  0.00  0.00    +0.007 A 
ATOM     13  C   UNL     1     -15.447   0.785  29.505  0.00  0.00    +0.114 A 
ATOM     16  C   UNL     1     -14.764   0.638  32.143  0.00  0.00    +0.020 A 
ATOM     17  C   UNL     1     -15.089  -0.478  31.392  0.00  0.00    +0.111 A 
ENDBRANCH   6  11
BRANCH   7   4
ATOM      3  O   UNL     1     -16.996   5.715  32.531  0.00  0.00    -0.270 OA
ATOM      4  N   UNL     1     -15.248   5.123  31.126  0.00  0.00    -0.305 N 
ATOM     14  C   UNL     1     -15.805   5.749  32.233  0.00  0.00    +0.245 C 
ATOM     24  H   UNL     1     -14.243   5.172  30.986  0.00  0.00    +0.149 HD
BRANCH  14  15
ATOM     15  C   UNL     1     -14.867   6.528  33.081  0.00  0.00    +0.040 A 
ATOM     18  C   UNL     1     -14.287   5.967  34.219  0.00  0.00    -0.038 A 
ATOM     19  C   UNL     1     -14.568   7.842  32.722  0.00  0.00    +0.013 A 
ATOM     20  C   UNL     1     -13.409   6.720  34.998  0.00  0.00    +0.004 A 
ATOM     21  C   UNL     1     -14.590   4.562  34.626  0.00  0.00    +0.044 C 
ATOM     22  C   UNL     1     -13.690   8.596  33.502  0.00  0.00    +0.001 A 
ATOM     23  C   UNL     1     -13.111   8.035  34.639  0.00  0.00    +0.000 A 
ENDBRANCH  14  15
ENDBRANCH   7   4
BRANCH   8   1
ATOM      1  O   UNL     1     -17.735   5.945  29.460  0.00  0.00    -0.387 OA
ATOM     25  H   UNL     1     -17.804   5.874  30.428  0.00  0.00    +0.210 HD
ENDBRANCH   8   1
BRANCH  10   2
ATOM      2  O   UNL     1     -18.113   3.476  28.320  0.00  0.00    -0.389 OA
ATOM     26  H   UNL     1     -18.793   4.128  28.562  0.00  0.00    +0.210 HD
ENDBRANCH  10   2
TORSDOF 5
ENDMDL
MODEL 8
REMARK VINA RESULT:      -5.8      3.388      5.677
REMARK  Name = 75536073
REMARK  6 active torsions:
REMARK  status: ('A' for Active; 'I' for Inactive)
REMARK    1  A    between atoms: O_1  and  C_8
REMARK    2  A    between atoms: O_2  and  C_10
REMARK    3  A    between atoms: N_4  and  C_7
REMARK    4  A    between atoms: C_6  and  C_11
REMARK    5  A    between atoms: C_14  and  C_15
REMARK    6  A    between atoms: C_18  and  C_21
REMARK                            x       y       z     vdW  Elec       q    Type
REMARK                         _______ _______ _______ _____ _____    ______ ____
ROOT
ATOM      6  C   UNL     1      12.986   7.679  19.771  0.00  0.00    +0.046 C 
ATOM      7  C   UNL     1      12.836   9.200  20.001  0.00  0.00    +0.112 C 
ATOM      8  C   UNL     1      11.416   9.339  20.547  0.00  0.00    +0.164 C 
ATOM      9  C   UNL     1      11.949   7.006  20.707  0.00  0.00    +0.044 C 
ATOM     10  C   UNL     1      11.286   8.143  21.482  0.00  0.00    +0.145 C 
ENDROOT
BRANCH   6  11
ATOM      5  N   UNL     1      16.231   6.670  21.456  0.00  0.00    -0.263 NA
ATOM     11  C   UNL     1      14.406   7.188  19.958  0.00  0.00    -0.024 A 
ATOM     12  C   UNL     1      15.184   6.815  18.868  0.00  0.00    +0.007 A 
ATOM     13  C   UNL     1      14.971   7.098  21.220  0.00  0.00    +0.114 A 
ATOM     16  C   UNL     1      16.486   6.368  19.071  0.00  0.00    +0.020 A 
ATOM     17  C   UNL     1      16.958   6.315  20.371  0.00  0.00    +0.111 A 
ENDBRANCH   6  11
BRANCH   7   4
ATOM      3  O   UNL     1      15.278  10.399  19.083  0.00  0.00    -0.270 OA
ATOM      4  N   UNL     1      13.022   9.951  18.786  0.00  0.00    -0.305 N 
ATOM     14  C   UNL     1      14.246  10.496  18.423  0.00  0.00    +0.245 C 
ATOM     24  H   UNL     1      12.233  10.046  18.152  0.00  0.00    +0.149 HD
BRANCH  14  15
ATOM     15  C   UNL     1      14.266  11.265  17.153  0.00  0.00    +0.040 A 
ATOM     18  C   UNL     1      14.246  10.618  15.917  0.00  0.00    -0.038 A 
ATOM     19  C   UNL     1      14.307  12.657  17.210  0.00  0.00    +0.013 A 
ATOM     20  C   UNL     1      14.265  11.364  14.739  0.00  0.00    +0.004 A 
ATOM     21  C   UNL     1      14.202   9.127  15.827  0.00  0.00    +0.044 C 
ATOM     22  C   UNL     1      14.327  13.404  16.031  0.00  0.00    +0.001 A 
ATOM     23  C   UNL     1      14.306  12.757  14.796  0.00  0.00    +0.000 A 
ENDBRANCH  14  15
ENDBRANCH   7   4
BRANCH   8   1
ATOM      1  O   UNL     1      11.226  10.556  21.243  0.00  0.00    -0.387 OA
ATOM     25  H   UNL     1      12.000  11.117  21.065  0.00  0.00    +0.210 HD
ENDBRANCH   8   1
BRANCH  10   2
ATOM      2  O   UNL     1      12.011   8.357  22.689  0.00  0.00    -0.389 OA
ATOM     26  H   UNL     1      11.361   8.476  23.403  0.00  0.00    +0.210 HD
ENDBRANCH  10   2
TORSDOF 5
ENDMDL
MODEL 9
REMARK VINA RESULT:      -5.7     15.470     16.645
REMARK  Name = 75536073
REMARK  6 active torsions:
REMARK  status: ('A' for Active; 'I' for Inactive)
REMARK    1  A    between atoms: O_1  and  C_8
REMARK    2  A    between atoms: O_2  and  C_10
REMARK    3  A    between atoms: N_4  and  C_7
REMARK    4  A    between atoms: C_6  and  C_11
REMARK    5  A    between atoms: C_14  and  C_15
REMARK    6  A    between atoms: C_18  and  C_21
REMARK                            x       y       z     vdW  Elec       q    Type
REMARK                         _______ _______ _______ _____ _____    ______ ____
ROOT
ATOM      6  C   UNL     1      10.160   6.300   5.009  0.00  0.00    +0.046 C 
ATOM      7  C   UNL     1      11.418   6.211   5.903  0.00  0.00    +0.112 C 
ATOM      8  C   UNL     1      10.845   6.099   7.315  0.00  0.00    +0.164 C 
ATOM      9  C   UNL     1       9.012   5.659   5.832  0.00  0.00    +0.044 C 
ATOM     10  C   UNL     1       9.650   5.171   7.131  0.00  0.00    +0.145 C 
ENDROOT
BRANCH   6  11
ATOM      5  N   UNL     1      10.176   5.900   1.237  0.00  0.00    -0.263 NA
ATOM     11  C   UNL     1      10.361   5.690   3.639  0.00  0.00    -0.024 A 
ATOM     12  C   UNL     1      10.891   4.413   3.494  0.00  0.00    +0.007 A 
ATOM     13  C   UNL     1      10.023   6.387   2.489  0.00  0.00    +0.114 A 
ATOM     16  C   UNL     1      11.065   3.879   2.221  0.00  0.00    +0.020 A 
ATOM     17  C   UNL     1      10.695   4.655   1.136  0.00  0.00    +0.111 A 
ENDBRANCH   6  11
BRANCH   7   4
ATOM      3  O   UNL     1      14.052   6.550   6.995  0.00  0.00    -0.270 OA
ATOM      4  N   UNL     1      12.268   7.365   5.756  0.00  0.00    -0.305 N 
ATOM     14  C   UNL     1      13.532   7.439   6.324  0.00  0.00    +0.245 C 
ATOM     24  H   UNL     1      11.941   8.135   5.179  0.00  0.00    +0.149 HD
BRANCH  14  15
ATOM     15  C   UNL     1      14.273   8.707   6.103  0.00  0.00    +0.040 A 
ATOM     18  C   UNL     1      15.346   8.771   5.213  0.00  0.00    -0.038 A 
ATOM     19  C   UNL     1      13.879   9.847   6.803  0.00  0.00    +0.013 A 
ATOM     20  C   UNL     1      16.023   9.975   5.023  0.00  0.00    +0.004 A 
ATOM     21  C   UNL     1      15.788   7.566   4.449  0.00  0.00    +0.044 C 
ATOM     22  C   UNL     1      14.558  11.051   6.614  0.00  0.00    +0.001 A 
ATOM     23  C   UNL     1      15.629  11.115   5.724  0.00  0.00    +0.000 A 
ENDBRANCH  14  15
ENDBRANCH   7   4
BRANCH   8   1
ATOM      1  O   UNL     1      11.777   5.557   8.231  0.00  0.00    -0.387 OA
ATOM     25  H   UNL     1      11.304   5.392   9.064  0.00  0.00    +0.210 HD
ENDBRANCH   8   1
BRANCH  10   2
ATOM      2  O   UNL     1      10.073   3.824   6.954  0.00  0.00    -0.389 OA
ATOM     26  H   UNL     1      10.218   3.445   7.838  0.00  0.00    +0.210 HD
ENDBRANCH  10   2
TORSDOF 5
ENDMDL
MODEL 10
REMARK VINA RESULT:      -5.6     28.456     31.632
REMARK  Name = 75536073
REMARK  6 active torsions:
REMARK  status: ('A' for Active; 'I' for Inactive)
REMARK    1  A    between atoms: O_1  and  C_8
REMARK    2  A    between atoms: O_2  and  C_10
REMARK    3  A    between atoms: N_4  and  C_7
REMARK    4  A    between atoms: C_6  and  C_11
REMARK    5  A    between atoms: C_14  and  C_15
REMARK    6  A    between atoms: C_18  and  C_21
REMARK                            x       y       z     vdW  Elec       q    Type
REMARK                         _______ _______ _______ _____ _____    ______ ____
ROOT
ATOM      6  C   UNL     1     -15.026   3.774  33.426  0.00  0.00    +0.046 C 
ATOM      7  C   UNL     1     -14.147   4.261  32.251  0.00  0.00    +0.112 C 
ATOM      8  C   UNL     1     -13.301   3.035  31.908  0.00  0.00    +0.164 C 
ATOM      9  C   UNL     1     -15.079   2.229  33.302  0.00  0.00    +0.044 C 
ATOM     10  C   UNL     1     -14.290   1.884  32.041  0.00  0.00    +0.145 C 
ENDROOT
BRANCH   6  11
ATOM      5  N   UNL     1     -18.520   4.847  32.412  0.00  0.00    -0.263 NA
ATOM     11  C   UNL     1     -16.383   4.444  33.468  0.00  0.00    -0.024 A 
ATOM     12  C   UNL     1     -16.754   5.245  34.542  0.00  0.00    +0.007 A 
ATOM     13  C   UNL     1     -17.294   4.278  32.438  0.00  0.00    +0.114 A 
ATOM     16  C   UNL     1     -18.007   5.848  34.552  0.00  0.00    +0.020 A 
ATOM     17  C   UNL     1     -18.845   5.620  33.474  0.00  0.00    +0.111 A 
ENDBRANCH   6  11
BRANCH   7   4
ATOM      3  O   UNL     1     -14.839   7.033  31.971  0.00  0.00    -0.270 OA
ATOM      4  N   UNL     1     -13.333   5.392  32.617  0.00  0.00    -0.305 N 
ATOM     14  C   UNL     1     -13.754   6.703  32.444  0.00  0.00    +0.245 C 
ATOM     24  H   UNL     1     -12.434   5.217  33.058  0.00  0.00    +0.149 HD
BRANCH  14  15
ATOM     15  C   UNL     1     -12.788   7.756  32.847  0.00  0.00    +0.040 A 
ATOM     18  C   UNL     1     -12.646   8.133  34.183  0.00  0.00    -0.038 A 
ATOM     19  C   UNL     1     -12.014   8.372  31.863  0.00  0.00    +0.013 A 
ATOM     20  C   UNL     1     -11.731   9.125  34.534  0.00  0.00    +0.004 A 
ATOM     21  C   UNL     1     -13.461   7.490  35.256  0.00  0.00    +0.044 C 
ATOM     22  C   UNL     1     -11.099   9.364  32.215  0.00  0.00    +0.001 A 
ATOM     23  C   UNL     1     -10.957   9.740  33.550  0.00  0.00    +0.000 A 
ENDBRANCH  14  15
ENDBRANCH   7   4
BRANCH   8   1
ATOM      1  O   UNL     1     -12.766   3.102  30.600  0.00  0.00    -0.387 OA
ATOM     25  H   UNL     1     -12.205   2.317  30.475  0.00  0.00    +0.210 HD
ENDBRANCH   8   1
BRANCH  10   2
ATOM      2  O   UNL     1     -15.188   1.852  30.936  0.00  0.00    -0.389 OA
ATOM     26  H   UNL     1     -15.151   0.958  30.555  0.00  0.00    +0.210 HD
ENDBRANCH  10   2
TORSDOF 5
ENDMDL
