MODEL 1
REMARK VINA RESULT:      -7.4      0.000      0.000
REMARK  Name = 45784367
REMARK  13 active torsions:
REMARK  status: ('A' for Active; 'I' for Inactive)
REMARK    1  A    between atoms: O_1  and  C_10
REMARK    2  A    between atoms: O_4  and  C_36
REMARK    3  A    between atoms: O_4  and  C_37
REMARK    4  A    between atoms: N_5  and  C_14
REMARK    5  A    between atoms: N_6  and  C_24
REMARK    6  A    between atoms: C_7  and  C_17
REMARK    7  A    between atoms: C_9  and  C_19
REMARK    8  A    between atoms: C_13  and  C_18
REMARK    9  A    between atoms: C_18  and  C_20
REMARK   10  A    between atoms: C_18  and  C_21
REMARK   11  A    between atoms: C_22  and  C_23
REMARK   12  A    between atoms: C_23  and  C_25
REMARK   13  A    between atoms: C_24  and  C_26
REMARK                            x       y       z     vdW  Elec       q    Type
REMARK                         _______ _______ _______ _____ _____    ______ ____
ROOT
ATOM      7  C   UNL     1     -17.557   4.654  21.776  0.00  0.00    -0.027 C 
ATOM      8  C   UNL     1     -16.271   4.361  22.617  0.00  0.00    +0.028 C 
ATOM      9  C   UNL     1     -16.648   3.835  24.050  0.00  0.00    +0.012 C 
ATOM     10  C   UNL     1     -15.290   5.568  22.587  0.00  0.00    +0.122 C 
ATOM     11  C   UNL     1     -17.152   5.061  20.340  0.00  0.00    +0.007 C 
ATOM     12  C   UNL     1     -18.401   3.362  21.679  0.00  0.00    +0.009 C 
ATOM     13  C   UNL     1     -14.969   6.037  21.148  0.00  0.00    +0.029 C 
ATOM     14  C   UNL     1     -17.558   2.579  23.939  0.00  0.00    +0.076 C 
ATOM     15  C   UNL     1     -16.222   6.267  20.303  0.00  0.00    +0.007 C 
ATOM     16  C   UNL     1     -18.775   2.789  23.038  0.00  0.00    +0.023 C 
ATOM     17  C   UNL     1     -18.423   5.784  22.388  0.00  0.00    +0.011 C 
ATOM     19  C   UNL     1     -15.427   3.499  24.923  0.00  0.00    +0.010 C 
ENDROOT
BRANCH  14   5
ATOM      3  O   UNL     1     -16.833   0.142  25.286  0.00  0.00    -0.275 OA
ATOM      5  N   UNL     1     -18.020   2.137  25.237  0.00  0.00    -0.312 N 
ATOM     22  C   UNL     1     -17.610   0.940  25.804  0.00  0.00    +0.218 C 
ATOM     38  H   UNL     1     -18.716   2.705  25.709  0.00  0.00    +0.149 HD
BRANCH  22  23
ATOM     23  C   UNL     1     -18.241   0.729  27.167  0.00  0.00    +0.130 C 
BRANCH  23  25
ATOM     25  C   UNL     1     -17.492   1.410  28.283  0.00  0.00    -0.039 A 
ATOM     27  C   UNL     1     -16.277   0.889  28.726  0.00  0.00    +0.004 A 
ATOM     28  C   UNL     1     -18.015   2.561  28.873  0.00  0.00    +0.004 A 
ATOM     31  C   UNL     1     -15.585   1.520  29.760  0.00  0.00    +0.000 A 
ATOM     32  C   UNL     1     -17.324   3.191  29.907  0.00  0.00    +0.000 A 
ATOM     33  C   UNL     1     -16.107   2.670  30.350  0.00  0.00    +0.000 A 
ENDBRANCH  23  25
ENDBRANCH  22  23
ENDBRANCH  14   5
BRANCH  10   1
ATOM      1  O   UNL     1     -14.045   5.188  23.178  0.00  0.00    -0.391 OA
ATOM     39  H   UNL     1     -13.821   5.846  23.857  0.00  0.00    +0.210 HD
ENDBRANCH  10   1
BRANCH  13  18
ATOM     18  C   UNL     1     -14.107   7.306  21.142  0.00  0.00    +0.077 C 
ATOM     20  C   UNL     1     -14.774   8.390  20.303  0.00  0.00    +0.017 C 
BRANCH  18  21
ATOM      2  O   UNL     1     -11.889   6.342  21.277  0.00  0.00    -0.276 OA
ATOM      6  N   UNL     1     -12.485   7.488  19.350  0.00  0.00    -0.311 N 
ATOM     21  C   UNL     1     -12.710   6.982  20.621  0.00  0.00    +0.216 C 
ATOM     40  H   UNL     1     -13.234   7.960  18.853  0.00  0.00    +0.149 HD
BRANCH   6  24
ATOM     24  C   UNL     1     -11.236   7.311  18.648  0.00  0.00    +0.139 C 
BRANCH  24  26
ATOM     26  C   UNL     1     -10.812   8.560  17.930  0.00  0.00    -0.030 A 
ATOM     29  C   UNL     1     -10.816   8.597  16.535  0.00  0.00    +0.009 A 
ATOM     30  C   UNL     1     -10.419   9.682  18.657  0.00  0.00    +0.009 A 
ATOM     34  C   UNL     1     -10.425   9.758  15.868  0.00  0.00    +0.046 A 
ATOM     35  C   UNL     1     -10.027  10.843  17.990  0.00  0.00    +0.046 A 
ATOM     36  C   UNL     1     -10.031  10.881  16.596  0.00  0.00    +0.120 A 
BRANCH  36   4
ATOM      4  O   UNL     1      -9.652  12.014  15.945  0.00  0.00    -0.495 OA
ATOM     37  C   UNL     1      -8.804  12.917  16.654  0.00  0.00    +0.277 C 
ENDBRANCH  36   4
ENDBRANCH  24  26
ENDBRANCH   6  24
ENDBRANCH  18  21
ENDBRANCH  13  18
TORSDOF 9
ENDMDL
MODEL 2
REMARK VINA RESULT:      -7.3     18.657     20.399
REMARK  Name = 45784367
REMARK  13 active torsions:
REMARK  status: ('A' for Active; 'I' for Inactive)
REMARK    1  A    between atoms: O_1  and  C_10
REMARK    2  A    between atoms: O_4  and  C_36
REMARK    3  A    between atoms: O_4  and  C_37
REMARK    4  A    between atoms: N_5  and  C_14
REMARK    5  A    between atoms: N_6  and  C_24
REMARK    6  A    between atoms: C_7  and  C_17
REMARK    7  A    between atoms: C_9  and  C_19
REMARK    8  A    between atoms: C_13  and  C_18
REMARK    9  A    between atoms: C_18  and  C_20
REMARK   10  A    between atoms: C_18  and  C_21
REMARK   11  A    between atoms: C_22  and  C_23
REMARK   12  A    between atoms: C_23  and  C_25
REMARK   13  A    between atoms: C_24  and  C_26
REMARK                            x       y       z     vdW  Elec       q    Type
REMARK                         _______ _______ _______ _____ _____    ______ ____
ROOT
ATOM      7  C   UNL     1      -3.955 -10.250  10.546  0.00  0.00    -0.027 C 
ATOM      8  C   UNL     1      -5.116  -9.660  11.415  0.00  0.00    +0.028 C 
ATOM      9  C   UNL     1      -5.209 -10.399  12.799  0.00  0.00    +0.012 C 
ATOM     10  C   UNL     1      -6.443  -9.585  10.607  0.00  0.00    +0.122 C 
ATOM     11  C   UNL     1      -3.818  -9.428   9.243  0.00  0.00    +0.007 C 
ATOM     12  C   UNL     1      -2.626 -10.121  11.326  0.00  0.00    +0.009 C 
ATOM     13  C   UNL     1      -6.275  -8.852   9.256  0.00  0.00    +0.029 C 
ATOM     14  C   UNL     1      -3.845 -10.327  13.541  0.00  0.00    +0.076 C 
ATOM     15  C   UNL     1      -5.105  -9.385   8.429  0.00  0.00    +0.007 C 
ATOM     16  C   UNL     1      -2.665 -10.796  12.689  0.00  0.00    +0.023 C 
ATOM     17  C   UNL     1      -4.187 -11.737  10.176  0.00  0.00    +0.011 C 
ATOM     19  C   UNL     1      -6.314  -9.849  13.717  0.00  0.00    +0.010 C 
ENDROOT
BRANCH  14   5
ATOM      3  O   UNL     1      -2.212  -9.890  15.870  0.00  0.00    -0.275 OA
ATOM      5  N   UNL     1      -3.860 -11.097  14.766  0.00  0.00    -0.312 N 
ATOM     22  C   UNL     1      -3.031 -10.807  15.838  0.00  0.00    +0.218 C 
ATOM     38  H   UNL     1      -4.462 -11.914  14.802  0.00  0.00    +0.149 HD
BRANCH  22  23
ATOM     23  C   UNL     1      -3.259 -11.765  16.990  0.00  0.00    +0.130 C 
BRANCH  23  25
ATOM     25  C   UNL     1      -4.413 -11.371  17.874  0.00  0.00    -0.039 A 
ATOM     27  C   UNL     1      -5.403 -10.516  17.390  0.00  0.00    +0.004 A 
ATOM     28  C   UNL     1      -4.491 -11.861  19.179  0.00  0.00    +0.004 A 
ATOM     31  C   UNL     1      -6.470 -10.151  18.210  0.00  0.00    +0.000 A 
ATOM     32  C   UNL     1      -5.559 -11.496  19.998  0.00  0.00    +0.000 A 
ATOM     33  C   UNL     1      -6.549 -10.640  19.513  0.00  0.00    +0.000 A 
ENDBRANCH  23  25
ENDBRANCH  22  23
ENDBRANCH  14   5
BRANCH  10   1
ATOM      1  O   UNL     1      -7.415  -8.849  11.352  0.00  0.00    -0.391 OA
ATOM     39  H   UNL     1      -7.058  -7.960  11.518  0.00  0.00    +0.210 HD
ENDBRANCH  10   1
BRANCH  13  18
ATOM     18  C   UNL     1      -7.560  -8.902   8.418  0.00  0.00    +0.077 C 
ATOM     20  C   UNL     1      -7.310  -9.661   7.119  0.00  0.00    +0.017 C 
BRANCH  18  21
ATOM      2  O   UNL     1      -7.362  -6.490   8.328  0.00  0.00    -0.276 OA
ATOM      6  N   UNL     1      -9.367  -7.463   7.686  0.00  0.00    -0.311 N 
ATOM     21  C   UNL     1      -8.059  -7.486   8.147  0.00  0.00    +0.216 C 
ATOM     40  H   UNL     1      -9.858  -8.334   7.512  0.00  0.00    +0.149 HD
BRANCH   6  24
ATOM     24  C   UNL     1     -10.060  -6.238   7.362  0.00  0.00    +0.139 C 
BRANCH  24  26
ATOM     26  C   UNL     1     -10.733  -5.638   8.562  0.00  0.00    -0.030 A 
ATOM     29  C   UNL     1     -10.617  -4.272   8.816  0.00  0.00    +0.009 A 
ATOM     30  C   UNL     1     -11.476  -6.448   9.421  0.00  0.00    +0.009 A 
ATOM     34  C   UNL     1     -11.246  -3.714   9.931  0.00  0.00    +0.046 A 
ATOM     35  C   UNL     1     -12.104  -5.890  10.536  0.00  0.00    +0.046 A 
ATOM     36  C   UNL     1     -11.989  -4.524  10.790  0.00  0.00    +0.120 A 
BRANCH  36   4
ATOM      4  O   UNL     1     -12.602  -3.980  11.876  0.00  0.00    -0.495 OA
ATOM     37  C   UNL     1     -12.357  -4.599  13.138  0.00  0.00    +0.277 C 
ENDBRANCH  36   4
ENDBRANCH  24  26
ENDBRANCH   6  24
ENDBRANCH  18  21
ENDBRANCH  13  18
TORSDOF 9
ENDMDL
MODEL 3
REMARK VINA RESULT:      -7.2     18.797     22.044
REMARK  Name = 45784367
REMARK  13 active torsions:
REMARK  status: ('A' for Active; 'I' for Inactive)
REMARK    1  A    between atoms: O_1  and  C_10
REMARK    2  A    between atoms: O_4  and  C_36
REMARK    3  A    between atoms: O_4  and  C_37
REMARK    4  A    between atoms: N_5  and  C_14
REMARK    5  A    between atoms: N_6  and  C_24
REMARK    6  A    between atoms: C_7  and  C_17
REMARK    7  A    between atoms: C_9  and  C_19
REMARK    8  A    between atoms: C_13  and  C_18
REMARK    9  A    between atoms: C_18  and  C_20
REMARK   10  A    between atoms: C_18  and  C_21
REMARK   11  A    between atoms: C_22  and  C_23
REMARK   12  A    between atoms: C_23  and  C_25
REMARK   13  A    between atoms: C_24  and  C_26
REMARK                            x       y       z     vdW  Elec       q    Type
REMARK                         _______ _______ _______ _____ _____    ______ ____
ROOT
ATOM      7  C   UNL     1      -3.602 -10.816  10.784  0.00  0.00    -0.027 C 
ATOM      8  C   UNL     1      -4.946 -10.354  11.439  0.00  0.00    +0.028 C 
ATOM      9  C   UNL     1      -5.653  -9.264  10.555  0.00  0.00    +0.012 C 
ATOM     10  C   UNL     1      -4.744  -9.973  12.933  0.00  0.00    +0.122 C 
ATOM     11  C   UNL     1      -2.991 -11.966  11.618  0.00  0.00    +0.007 C 
ATOM     12  C   UNL     1      -3.894 -11.365   9.368  0.00  0.00    +0.009 C 
ATOM     13  C   UNL     1      -4.038 -11.088  13.740  0.00  0.00    +0.029 C 
ATOM     14  C   UNL     1      -5.874  -9.800   9.112  0.00  0.00    +0.076 C 
ATOM     15  C   UNL     1      -2.754 -11.584  13.074  0.00  0.00    +0.007 C 
ATOM     16  C   UNL     1      -4.603 -10.360   8.472  0.00  0.00    +0.023 C 
ATOM     17  C   UNL     1      -2.565  -9.669  10.682  0.00  0.00    +0.011 C 
ATOM     19  C   UNL     1      -6.998  -8.784  11.127  0.00  0.00    +0.010 C 
ENDROOT
BRANCH  14   5
ATOM      3  O   UNL     1      -8.172 -10.047   7.399  0.00  0.00    -0.275 OA
ATOM      5  N   UNL     1      -6.416  -8.782   8.239  0.00  0.00    -0.312 N 
ATOM     22  C   UNL     1      -7.534  -8.998   7.449  0.00  0.00    +0.218 C 
ATOM     38  H   UNL     1      -5.912  -7.904   8.168  0.00  0.00    +0.149 HD
BRANCH  22  23
ATOM     23  C   UNL     1      -7.887  -7.765   6.640  0.00  0.00    +0.130 C 
BRANCH  23  25
ATOM     25  C   UNL     1      -8.969  -6.928   7.271  0.00  0.00    -0.039 A 
ATOM     27  C   UNL     1      -8.630  -5.885   8.133  0.00  0.00    +0.004 A 
ATOM     28  C   UNL     1     -10.309  -7.196   6.994  0.00  0.00    +0.004 A 
ATOM     31  C   UNL     1      -9.632  -5.111   8.718  0.00  0.00    +0.000 A 
ATOM     32  C   UNL     1     -11.311  -6.422   7.578  0.00  0.00    +0.000 A 
ATOM     33  C   UNL     1     -10.972  -5.379   8.440  0.00  0.00    +0.000 A 
ENDBRANCH  23  25
ENDBRANCH  22  23
ENDBRANCH  14   5
BRANCH  10   1
ATOM      1  O   UNL     1      -6.016  -9.767  13.551  0.00  0.00    -0.391 OA
ATOM     39  H   UNL     1      -6.425 -10.637  13.697  0.00  0.00    +0.210 HD
ENDBRANCH  10   1
BRANCH  13  18
ATOM     18  C   UNL     1      -3.730 -10.643  15.176  0.00  0.00    +0.077 C 
ATOM     20  C   UNL     1      -2.255 -10.866  15.490  0.00  0.00    +0.017 C 
BRANCH  18  21
ATOM      2  O   UNL     1      -4.496 -12.594  16.390  0.00  0.00    -0.276 OA
ATOM      6  N   UNL     1      -5.586 -10.576  16.733  0.00  0.00    -0.311 N 
ATOM     21  C   UNL     1      -4.627 -11.394  16.156  0.00  0.00    +0.216 C 
ATOM     40  H   UNL     1      -5.595  -9.582  16.527  0.00  0.00    +0.149 HD
BRANCH   6  24
ATOM     24  C   UNL     1      -6.552 -11.060  17.692  0.00  0.00    +0.139 C 
BRANCH  24  26
ATOM     26  C   UNL     1      -7.840 -10.291  17.630  0.00  0.00    -0.030 A 
ATOM     29  C   UNL     1      -7.960  -9.202  16.767  0.00  0.00    +0.009 A 
ATOM     30  C   UNL     1      -8.915 -10.668  18.434  0.00  0.00    +0.009 A 
ATOM     34  C   UNL     1      -9.159  -8.489  16.709  0.00  0.00    +0.046 A 
ATOM     35  C   UNL     1     -10.113  -9.954  18.376  0.00  0.00    +0.046 A 
ATOM     36  C   UNL     1     -10.234  -8.866  17.513  0.00  0.00    +0.120 A 
BRANCH  36   4
ATOM      4  O   UNL     1     -11.403  -8.171  17.453  0.00  0.00    -0.495 OA
ATOM     37  C   UNL     1     -11.536  -7.214  16.403  0.00  0.00    +0.277 C 
ENDBRANCH  36   4
ENDBRANCH  24  26
ENDBRANCH   6  24
ENDBRANCH  18  21
ENDBRANCH  13  18
TORSDOF 9
ENDMDL
MODEL 4
REMARK VINA RESULT:      -7.2     19.677     23.337
REMARK  Name = 45784367
REMARK  13 active torsions:
REMARK  status: ('A' for Active; 'I' for Inactive)
REMARK    1  A    between atoms: O_1  and  C_10
REMARK    2  A    between atoms: O_4  and  C_36
REMARK    3  A    between atoms: O_4  and  C_37
REMARK    4  A    between atoms: N_5  and  C_14
REMARK    5  A    between atoms: N_6  and  C_24
REMARK    6  A    between atoms: C_7  and  C_17
REMARK    7  A    between atoms: C_9  and  C_19
REMARK    8  A    between atoms: C_13  and  C_18
REMARK    9  A    between atoms: C_18  and  C_20
REMARK   10  A    between atoms: C_18  and  C_21
REMARK   11  A    between atoms: C_22  and  C_23
REMARK   12  A    between atoms: C_23  and  C_25
REMARK   13  A    between atoms: C_24  and  C_26
REMARK                            x       y       z     vdW  Elec       q    Type
REMARK                         _______ _______ _______ _____ _____    ______ ____
ROOT
ATOM      7  C   UNL     1      -3.373 -10.712  10.906  0.00  0.00    -0.027 C 
ATOM      8  C   UNL     1      -4.663 -10.348  11.713  0.00  0.00    +0.028 C 
ATOM      9  C   UNL     1      -5.453  -9.185  11.010  0.00  0.00    +0.012 C 
ATOM     10  C   UNL     1      -4.343 -10.122  13.218  0.00  0.00    +0.122 C 
ATOM     11  C   UNL     1      -2.683 -11.931  11.561  0.00  0.00    +0.007 C 
ATOM     12  C   UNL     1      -3.774 -11.115   9.468  0.00  0.00    +0.009 C 
ATOM     13  C   UNL     1      -3.561 -11.302  13.842  0.00  0.00    +0.029 C 
ATOM     14  C   UNL     1      -5.785  -9.571   9.541  0.00  0.00    +0.076 C 
ATOM     15  C   UNL     1      -2.332 -11.700  13.026  0.00  0.00    +0.007 C 
ATOM     16  C   UNL     1      -4.566 -10.036   8.744  0.00  0.00    +0.023 C 
ATOM     17  C   UNL     1      -2.361  -9.541  10.844  0.00  0.00    +0.011 C 
ATOM     19  C   UNL     1      -6.751  -8.795  11.737  0.00  0.00    +0.010 C 
ENDROOT
BRANCH  14   5
ATOM      3  O   UNL     1      -8.374  -9.589   8.283  0.00  0.00    -0.275 OA
ATOM      5  N   UNL     1      -6.409  -8.477   8.827  0.00  0.00    -0.312 N 
ATOM     22  C   UNL     1      -7.666  -8.584   8.254  0.00  0.00    +0.218 C 
ATOM     38  H   UNL     1      -5.868  -7.628   8.698  0.00  0.00    +0.149 HD
BRANCH  22  23
ATOM     23  C   UNL     1      -8.077  -7.291   7.577  0.00  0.00    +0.130 C 
BRANCH  23  25
ATOM     25  C   UNL     1      -8.454  -7.470   6.129  0.00  0.00    -0.039 A 
ATOM     27  C   UNL     1      -9.699  -7.036   5.674  0.00  0.00    +0.004 A 
ATOM     28  C   UNL     1      -7.558  -8.069   5.244  0.00  0.00    +0.004 A 
ATOM     31  C   UNL     1     -10.047  -7.203   4.334  0.00  0.00    +0.000 A 
ATOM     32  C   UNL     1      -7.906  -8.236   3.904  0.00  0.00    +0.000 A 
ATOM     33  C   UNL     1      -9.151  -7.802   3.449  0.00  0.00    +0.000 A 
ENDBRANCH  23  25
ENDBRANCH  22  23
ENDBRANCH  14   5
BRANCH  10   1
ATOM      1  O   UNL     1      -5.563 -10.007  13.955  0.00  0.00    -0.391 OA
ATOM     39  H   UNL     1      -5.418 -10.386  14.838  0.00  0.00    +0.210 HD
ENDBRANCH  10   1
BRANCH  13  18
ATOM     18  C   UNL     1      -3.141 -11.004  15.288  0.00  0.00    +0.077 C 
ATOM     20  C   UNL     1      -1.624 -11.084  15.421  0.00  0.00    +0.017 C 
BRANCH  18  21
ATOM      2  O   UNL     1      -4.447 -12.966  15.848  0.00  0.00    -0.276 OA
ATOM      6  N   UNL     1      -3.695 -11.606  17.570  0.00  0.00    -0.311 N 
ATOM     21  C   UNL     1      -3.835 -11.974  16.240  0.00  0.00    +0.216 C 
ATOM     40  H   UNL     1      -3.128 -10.800  17.815  0.00  0.00    +0.149 HD
BRANCH   6  24
ATOM     24  C   UNL     1      -4.266 -12.367  18.656  0.00  0.00    +0.139 C 
BRANCH  24  26
ATOM     26  C   UNL     1      -5.701 -12.002  18.904  0.00  0.00    -0.030 A 
ATOM     29  C   UNL     1      -6.020 -10.758  19.448  0.00  0.00    +0.009 A 
ATOM     30  C   UNL     1      -6.714 -12.907  18.589  0.00  0.00    +0.009 A 
ATOM     34  C   UNL     1      -7.354 -10.418  19.676  0.00  0.00    +0.046 A 
ATOM     35  C   UNL     1      -8.048 -12.567  18.818  0.00  0.00    +0.046 A 
ATOM     36  C   UNL     1      -8.367 -11.323  19.360  0.00  0.00    +0.120 A 
BRANCH  36   4
ATOM      4  O   UNL     1      -9.668 -10.990  19.582  0.00  0.00    -0.495 OA
ATOM     37  C   UNL     1     -10.490 -11.971  20.214  0.00  0.00    +0.277 C 
ENDBRANCH  36   4
ENDBRANCH  24  26
ENDBRANCH   6  24
ENDBRANCH  18  21
ENDBRANCH  13  18
TORSDOF 9
ENDMDL
MODEL 5
REMARK VINA RESULT:      -7.1     29.207     33.545
REMARK  Name = 45784367
REMARK  13 active torsions:
REMARK  status: ('A' for Active; 'I' for Inactive)
REMARK    1  A    between atoms: O_1  and  C_10
REMARK    2  A    between atoms: O_4  and  C_36
REMARK    3  A    between atoms: O_4  and  C_37
REMARK    4  A    between atoms: N_5  and  C_14
REMARK    5  A    between atoms: N_6  and  C_24
REMARK    6  A    between atoms: C_7  and  C_17
REMARK    7  A    between atoms: C_9  and  C_19
REMARK    8  A    between atoms: C_13  and  C_18
REMARK    9  A    between atoms: C_18  and  C_20
REMARK   10  A    between atoms: C_18  and  C_21
REMARK   11  A    between atoms: C_22  and  C_23
REMARK   12  A    between atoms: C_23  and  C_25
REMARK   13  A    between atoms: C_24  and  C_26
REMARK                            x       y       z     vdW  Elec       q    Type
REMARK                         _______ _______ _______ _____ _____    ______ ____
ROOT
ATOM      7  C   UNL     1       9.555   6.781   6.747  0.00  0.00    -0.027 C 
ATOM      8  C   UNL     1      10.658   7.470   5.877  0.00  0.00    +0.028 C 
ATOM      9  C   UNL     1      11.508   6.399   5.101  0.00  0.00    +0.012 C 
ATOM     10  C   UNL     1      11.478   8.495   6.712  0.00  0.00    +0.122 C 
ATOM     11  C   UNL     1       8.668   7.863   7.406  0.00  0.00    +0.007 C 
ATOM     12  C   UNL     1       8.651   5.925   5.830  0.00  0.00    +0.009 C 
ATOM     13  C   UNL     1      10.578   9.512   7.453  0.00  0.00    +0.029 C 
ATOM     14  C   UNL     1      10.580   5.496   4.240  0.00  0.00    +0.076 C 
ATOM     15  C   UNL     1       9.462   8.846   8.257  0.00  0.00    +0.007 C 
ATOM     16  C   UNL     1       9.423   4.886   5.032  0.00  0.00    +0.023 C 
ATOM     17  C   UNL     1      10.151   5.881   7.859  0.00  0.00    +0.011 C 
ATOM     19  C   UNL     1      12.595   7.011   4.202  0.00  0.00    +0.010 C 
ENDROOT
BRANCH  14   5
ATOM      3  O   UNL     1      10.168   4.466   1.585  0.00  0.00    -0.275 OA
ATOM      5  N   UNL     1      11.316   4.425   3.603  0.00  0.00    -0.312 N 
ATOM     22  C   UNL     1      11.041   3.999   2.314  0.00  0.00    +0.218 C 
ATOM     38  H   UNL     1      12.013   3.938   4.157  0.00  0.00    +0.149 HD
BRANCH  22  23
ATOM     23  C   UNL     1      11.964   2.870   1.896  0.00  0.00    +0.130 C 
BRANCH  23  25
ATOM     25  C   UNL     1      13.144   3.335   1.083  0.00  0.00    -0.039 A 
ATOM     27  C   UNL     1      13.013   3.523  -0.293  0.00  0.00    +0.004 A 
ATOM     28  C   UNL     1      14.369   3.577   1.707  0.00  0.00    +0.004 A 
ATOM     31  C   UNL     1      14.107   3.953  -1.044  0.00  0.00    +0.000 A 
ATOM     32  C   UNL     1      15.462   4.006   0.955  0.00  0.00    +0.000 A 
ATOM     33  C   UNL     1      15.331   4.195  -0.421  0.00  0.00    +0.000 A 
ENDBRANCH  23  25
ENDBRANCH  22  23
ENDBRANCH  14   5
BRANCH  10   1
ATOM      1  O   UNL     1      12.321   9.254   5.844  0.00  0.00    -0.391 OA
ATOM     39  H   UNL     1      11.836  10.052   5.574  0.00  0.00    +0.210 HD
ENDBRANCH  10   1
BRANCH  13  18
ATOM     18  C   UNL     1      11.395  10.430   8.372  0.00  0.00    +0.077 C 
ATOM     20  C   UNL     1      10.464  11.224   9.282  0.00  0.00    +0.017 C 
BRANCH  18  21
ATOM      2  O   UNL     1      11.813  12.215   6.790  0.00  0.00    -0.276 OA
ATOM      6  N   UNL     1      13.628  11.104   7.714  0.00  0.00    -0.311 N 
ATOM     21  C   UNL     1      12.275  11.353   7.535  0.00  0.00    +0.216 C 
ATOM     40  H   UNL     1      13.930  10.409   8.389  0.00  0.00    +0.149 HD
BRANCH   6  24
ATOM     24  C   UNL     1      14.656  11.850   7.027  0.00  0.00    +0.139 C 
BRANCH  24  26
ATOM     26  C   UNL     1      15.847  10.995   6.701  0.00  0.00    -0.030 A 
ATOM     29  C   UNL     1      17.136  11.495   6.889  0.00  0.00    +0.009 A 
ATOM     30  C   UNL     1      15.664   9.701   6.214  0.00  0.00    +0.009 A 
ATOM     34  C   UNL     1      18.242  10.699   6.589  0.00  0.00    +0.046 A 
ATOM     35  C   UNL     1      16.771   8.906   5.913  0.00  0.00    +0.046 A 
ATOM     36  C   UNL     1      18.059   9.405   6.101  0.00  0.00    +0.120 A 
BRANCH  36   4
ATOM      4  O   UNL     1      19.139   8.630   5.810  0.00  0.00    -0.495 OA
ATOM     37  C   UNL     1      20.108   8.454   6.843  0.00  0.00    +0.277 C 
ENDBRANCH  36   4
ENDBRANCH  24  26
ENDBRANCH   6  24
ENDBRANCH  18  21
ENDBRANCH  13  18
TORSDOF 9
ENDMDL
MODEL 6
REMARK VINA RESULT:      -7.1      2.123     12.121
REMARK  Name = 45784367
REMARK  13 active torsions:
REMARK  status: ('A' for Active; 'I' for Inactive)
REMARK    1  A    between atoms: O_1  and  C_10
REMARK    2  A    between atoms: O_4  and  C_36
REMARK    3  A    between atoms: O_4  and  C_37
REMARK    4  A    between atoms: N_5  and  C_14
REMARK    5  A    between atoms: N_6  and  C_24
REMARK    6  A    between atoms: C_7  and  C_17
REMARK    7  A    between atoms: C_9  and  C_19
REMARK    8  A    between atoms: C_13  and  C_18
REMARK    9  A    between atoms: C_18  and  C_20
REMARK   10  A    between atoms: C_18  and  C_21
REMARK   11  A    between atoms: C_22  and  C_23
REMARK   12  A    between atoms: C_23  and  C_25
REMARK   13  A    between atoms: C_24  and  C_26
REMARK                            x       y       z     vdW  Elec       q    Type
REMARK                         _______ _______ _______ _____ _____    ______ ____
ROOT
ATOM      7  C   UNL     1     -12.687   7.371  20.652  0.00  0.00    -0.027 C 
ATOM      8  C   UNL     1     -13.822   7.267  19.580  0.00  0.00    +0.028 C 
ATOM      9  C   UNL     1     -13.725   8.447  18.547  0.00  0.00    +0.012 C 
ATOM     10  C   UNL     1     -15.214   7.077  20.247  0.00  0.00    +0.122 C 
ATOM     11  C   UNL     1     -12.743   6.136  21.583  0.00  0.00    +0.007 C 
ATOM     12  C   UNL     1     -11.316   7.360  19.938  0.00  0.00    +0.009 C 
ATOM     13  C   UNL     1     -15.235   5.904  21.256  0.00  0.00    +0.029 C 
ATOM     14  C   UNL     1     -12.315   8.472  17.890  0.00  0.00    +0.076 C 
ATOM     15  C   UNL     1     -14.093   5.970  22.269  0.00  0.00    +0.007 C 
ATOM     16  C   UNL     1     -11.172   8.468  18.905  0.00  0.00    +0.023 C 
ATOM     17  C   UNL     1     -12.802   8.651  21.517  0.00  0.00    +0.011 C 
ATOM     19  C   UNL     1     -14.796   8.390  17.445  0.00  0.00    +0.010 C 
ENDROOT
BRANCH  14   5
ATOM      3  O   UNL     1     -10.649   8.630  15.549  0.00  0.00    -0.275 OA
ATOM      5  N   UNL     1     -12.151   9.617  17.019  0.00  0.00    -0.312 N 
ATOM     22  C   UNL     1     -11.321   9.594  15.910  0.00  0.00    +0.218 C 
ATOM     38  H   UNL     1     -12.620  10.479  17.280  0.00  0.00    +0.149 HD
BRANCH  22  23
ATOM     23  C   UNL     1     -11.342  10.921  15.176  0.00  0.00    +0.130 C 
BRANCH  23  25
ATOM     25  C   UNL     1     -10.779  12.060  15.986  0.00  0.00    -0.039 A 
ATOM     27  C   UNL     1      -9.444  12.036  16.389  0.00  0.00    +0.004 A 
ATOM     28  C   UNL     1     -11.593  13.138  16.334  0.00  0.00    +0.004 A 
ATOM     31  C   UNL     1      -8.924  13.090  17.140  0.00  0.00    +0.000 A 
ATOM     32  C   UNL     1     -11.073  14.192  17.085  0.00  0.00    +0.000 A 
ATOM     33  C   UNL     1      -9.737  14.168  17.487  0.00  0.00    +0.000 A 
ENDBRANCH  23  25
ENDBRANCH  22  23
ENDBRANCH  14   5
BRANCH  10   1
ATOM      1  O   UNL     1     -16.187   6.771  19.247  0.00  0.00    -0.391 OA
ATOM     39  H   UNL     1     -16.646   7.594  19.011  0.00  0.00    +0.210 HD
ENDBRANCH  10   1
BRANCH  13  18
ATOM     18  C   UNL     1     -16.574   5.816  21.998  0.00  0.00    +0.077 C 
ATOM     20  C   UNL     1     -16.487   6.556  23.328  0.00  0.00    +0.017 C 
BRANCH  18  21
ATOM      2  O   UNL     1     -17.396   3.650  21.290  0.00  0.00    -0.276 OA
ATOM      6  N   UNL     1     -16.768   3.928  23.506  0.00  0.00    -0.311 N 
ATOM     21  C   UNL     1     -16.961   4.353  22.200  0.00  0.00    +0.216 C 
ATOM     40  H   UNL     1     -16.354   4.556  24.187  0.00  0.00    +0.149 HD
BRANCH   6  24
ATOM     24  C   UNL     1     -17.064   2.583  23.941  0.00  0.00    +0.139 C 
BRANCH  24  26
ATOM     26  C   UNL     1     -16.760   2.384  25.398  0.00  0.00    -0.030 A 
ATOM     29  C   UNL     1     -16.313   3.456  26.169  0.00  0.00    +0.009 A 
ATOM     30  C   UNL     1     -16.928   1.127  25.979  0.00  0.00    +0.009 A 
ATOM     34  C   UNL     1     -16.033   3.271  27.524  0.00  0.00    +0.046 A 
ATOM     35  C   UNL     1     -16.647   0.942  27.333  0.00  0.00    +0.046 A 
ATOM     36  C   UNL     1     -16.200   2.014  28.105  0.00  0.00    +0.120 A 
BRANCH  36   4
ATOM      4  O   UNL     1     -15.929   1.835  29.427  0.00  0.00    -0.495 OA
ATOM     37  C   UNL     1     -15.279   0.619  29.796  0.00  0.00    +0.277 C 
ENDBRANCH  36   4
ENDBRANCH  24  26
ENDBRANCH   6  24
ENDBRANCH  18  21
ENDBRANCH  13  18
TORSDOF 9
ENDMDL
MODEL 7
REMARK VINA RESULT:      -7.0     18.353     19.693
REMARK  Name = 45784367
REMARK  13 active torsions:
REMARK  status: ('A' for Active; 'I' for Inactive)
REMARK    1  A    between atoms: O_1  and  C_10
REMARK    2  A    between atoms: O_4  and  C_36
REMARK    3  A    between atoms: O_4  and  C_37
REMARK    4  A    between atoms: N_5  and  C_14
REMARK    5  A    between atoms: N_6  and  C_24
REMARK    6  A    between atoms: C_7  and  C_17
REMARK    7  A    between atoms: C_9  and  C_19
REMARK    8  A    between atoms: C_13  and  C_18
REMARK    9  A    between atoms: C_18  and  C_20
REMARK   10  A    between atoms: C_18  and  C_21
REMARK   11  A    between atoms: C_22  and  C_23
REMARK   12  A    between atoms: C_23  and  C_25
REMARK   13  A    between atoms: C_24  and  C_26
REMARK                            x       y       z     vdW  Elec       q    Type
REMARK                         _______ _______ _______ _____ _____    ______ ____
ROOT
ATOM      7  C   UNL     1      -5.456 -10.773  16.721  0.00  0.00    -0.027 C 
ATOM      8  C   UNL     1      -5.993 -10.214  15.362  0.00  0.00    +0.028 C 
ATOM      9  C   UNL     1      -7.561 -10.314  15.297  0.00  0.00    +0.012 C 
ATOM     10  C   UNL     1      -5.235 -10.836  14.156  0.00  0.00    +0.122 C 
ATOM     11  C   UNL     1      -3.926 -10.556  16.799  0.00  0.00    +0.007 C 
ATOM     12  C   UNL     1      -6.102  -9.983  17.883  0.00  0.00    +0.009 C 
ATOM     13  C   UNL     1      -3.699 -10.708  14.289  0.00  0.00    +0.029 C 
ATOM     14  C   UNL     1      -8.198  -9.580  16.511  0.00  0.00    +0.076 C 
ATOM     15  C   UNL     1      -3.175 -11.198  15.639  0.00  0.00    +0.007 C 
ATOM     16  C   UNL     1      -7.623 -10.022  17.857  0.00  0.00    +0.023 C 
ATOM     17  C   UNL     1      -5.754 -12.282  16.902  0.00  0.00    +0.011 C 
ATOM     19  C   UNL     1      -8.160  -9.754  13.996  0.00  0.00    +0.010 C 
ENDROOT
BRANCH  14   5
ATOM      3  O   UNL     1     -10.162  -7.545  17.041  0.00  0.00    -0.275 OA
ATOM      5  N   UNL     1      -9.634  -9.752  16.547  0.00  0.00    -0.312 N 
ATOM     22  C   UNL     1     -10.502  -8.705  16.812  0.00  0.00    +0.218 C 
ATOM     38  H   UNL     1     -10.000 -10.692  16.433  0.00  0.00    +0.149 HD
BRANCH  22  23
ATOM     23  C   UNL     1     -11.947  -9.162  16.782  0.00  0.00    +0.130 C 
BRANCH  23  25
ATOM     25  C   UNL     1     -12.514  -9.437  18.150  0.00  0.00    -0.039 A 
ATOM     27  C   UNL     1     -13.894  -9.404  18.354  0.00  0.00    +0.004 A 
ATOM     28  C   UNL     1     -11.659  -9.726  19.214  0.00  0.00    +0.004 A 
ATOM     31  C   UNL     1     -14.418  -9.658  19.621  0.00  0.00    +0.000 A 
ATOM     32  C   UNL     1     -12.183  -9.980  20.482  0.00  0.00    +0.000 A 
ATOM     33  C   UNL     1     -13.563  -9.946  20.684  0.00  0.00    +0.000 A 
ENDBRANCH  23  25
ENDBRANCH  22  23
ENDBRANCH  14   5
BRANCH  10   1
ATOM      1  O   UNL     1      -5.598 -10.150  12.956  0.00  0.00    -0.391 OA
ATOM     39  H   UNL     1      -5.715  -9.209  13.171  0.00  0.00    +0.210 HD
ENDBRANCH  10   1
BRANCH  13  18
ATOM     18  C   UNL     1      -2.966 -11.441  13.158  0.00  0.00    +0.077 C 
ATOM     20  C   UNL     1      -1.767 -12.201  13.716  0.00  0.00    +0.017 C 
BRANCH  18  21
ATOM      2  O   UNL     1      -1.460  -9.860  12.109  0.00  0.00    -0.276 OA
ATOM      6  N   UNL     1      -3.504 -10.283  11.098  0.00  0.00    -0.311 N 
ATOM     21  C   UNL     1      -2.541 -10.445  12.083  0.00  0.00    +0.216 C 
ATOM     40  H   UNL     1      -4.350 -10.844  11.120  0.00  0.00    +0.149 HD
BRANCH   6  24
ATOM     24  C   UNL     1      -3.331  -9.391   9.975  0.00  0.00    +0.139 C 
BRANCH  24  26
ATOM     26  C   UNL     1      -4.610  -9.191   9.214  0.00  0.00    -0.030 A 
ATOM     29  C   UNL     1      -4.826  -9.882   8.022  0.00  0.00    +0.009 A 
ATOM     30  C   UNL     1      -5.582  -8.317   9.702  0.00  0.00    +0.009 A 
ATOM     34  C   UNL     1      -6.016  -9.698   7.316  0.00  0.00    +0.046 A 
ATOM     35  C   UNL     1      -6.771  -8.133   8.995  0.00  0.00    +0.046 A 
ATOM     36  C   UNL     1      -6.988  -8.823   7.804  0.00  0.00    +0.120 A 
BRANCH  36   4
ATOM      4  O   UNL     1      -8.148  -8.645   7.115  0.00  0.00    -0.495 OA
ATOM     37  C   UNL     1      -8.767  -7.362   7.208  0.00  0.00    +0.277 C 
ENDBRANCH  36   4
ENDBRANCH  24  26
ENDBRANCH   6  24
ENDBRANCH  18  21
ENDBRANCH  13  18
TORSDOF 9
ENDMDL
MODEL 8
REMARK VINA RESULT:      -6.8     16.062     17.742
REMARK  Name = 45784367
REMARK  13 active torsions:
REMARK  status: ('A' for Active; 'I' for Inactive)
REMARK    1  A    between atoms: O_1  and  C_10
REMARK    2  A    between atoms: O_4  and  C_36
REMARK    3  A    between atoms: O_4  and  C_37
REMARK    4  A    between atoms: N_5  and  C_14
REMARK    5  A    between atoms: N_6  and  C_24
REMARK    6  A    between atoms: C_7  and  C_17
REMARK    7  A    between atoms: C_9  and  C_19
REMARK    8  A    between atoms: C_13  and  C_18
REMARK    9  A    between atoms: C_18  and  C_20
REMARK   10  A    between atoms: C_18  and  C_21
REMARK   11  A    between atoms: C_22  and  C_23
REMARK   12  A    between atoms: C_23  and  C_25
REMARK   13  A    between atoms: C_24  and  C_26
REMARK                            x       y       z     vdW  Elec       q    Type
REMARK                         _______ _______ _______ _____ _____    ______ ____
ROOT
ATOM      7  C   UNL     1     -11.634 -11.496  17.333  0.00  0.00    -0.027 C 
ATOM      8  C   UNL     1     -11.439 -11.076  18.827  0.00  0.00    +0.028 C 
ATOM      9  C   UNL     1     -12.709 -10.324  19.367  0.00  0.00    +0.012 C 
ATOM     10  C   UNL     1     -10.087 -10.336  19.034  0.00  0.00    +0.122 C 
ATOM     11  C   UNL     1     -10.417 -12.331  16.869  0.00  0.00    +0.007 C 
ATOM     12  C   UNL     1     -12.889 -12.393  17.221  0.00  0.00    +0.009 C 
ATOM     13  C   UNL     1      -8.883 -11.130  18.474  0.00  0.00    +0.029 C 
ATOM     14  C   UNL     1     -13.977 -11.205  19.180  0.00  0.00    +0.076 C 
ATOM     15  C   UNL     1      -9.094 -11.594  17.033  0.00  0.00    +0.007 C 
ATOM     16  C   UNL     1     -14.149 -11.726  17.753  0.00  0.00    +0.023 C 
ATOM     17  C   UNL     1     -11.791 -10.278  16.389  0.00  0.00    +0.011 C 
ATOM     19  C   UNL     1     -12.596  -9.907  20.843  0.00  0.00    +0.010 C 
ENDROOT
BRANCH  14   5
ATOM      3  O   UNL     1     -15.000  -8.791  17.994  0.00  0.00    -0.275 OA
ATOM      5  N   UNL     1     -15.181 -10.497  19.559  0.00  0.00    -0.312 N 
ATOM     22  C   UNL     1     -15.592  -9.337  18.923  0.00  0.00    +0.218 C 
ATOM     38  H   UNL     1     -15.698 -10.842  20.361  0.00  0.00    +0.149 HD
BRANCH  22  23
ATOM     23  C   UNL     1     -16.885  -8.810  19.515  0.00  0.00    +0.130 C 
BRANCH  23  25
ATOM     25  C   UNL     1     -16.731  -7.473  20.190  0.00  0.00    -0.039 A 
ATOM     27  C   UNL     1     -16.305  -7.406  21.516  0.00  0.00    +0.004 A 
ATOM     28  C   UNL     1     -17.014  -6.300  19.489  0.00  0.00    +0.004 A 
ATOM     31  C   UNL     1     -16.163  -6.167  22.141  0.00  0.00    +0.000 A 
ATOM     32  C   UNL     1     -16.873  -5.061  20.113  0.00  0.00    +0.000 A 
ATOM     33  C   UNL     1     -16.446  -4.995  21.440  0.00  0.00    +0.000 A 
ENDBRANCH  23  25
ENDBRANCH  22  23
ENDBRANCH  14   5
BRANCH  10   1
ATOM      1  O   UNL     1      -9.845 -10.162  20.431  0.00  0.00    -0.391 OA
ATOM     39  H   UNL     1      -9.683  -9.217  20.594  0.00  0.00    +0.210 HD
ENDBRANCH  10   1
BRANCH  13  18
ATOM     18  C   UNL     1      -7.579 -10.328  18.568  0.00  0.00    +0.077 C 
ATOM     20  C   UNL     1      -7.527  -9.278  17.464  0.00  0.00    +0.017 C 
BRANCH  18  21
ATOM      2  O   UNL     1      -6.401 -12.406  18.968  0.00  0.00    -0.276 OA
ATOM      6  N   UNL     1      -5.295 -10.703  17.846  0.00  0.00    -0.311 N 
ATOM     21  C   UNL     1      -6.382 -11.272  18.495  0.00  0.00    +0.216 C 
ATOM     40  H   UNL     1      -5.378  -9.779  17.436  0.00  0.00    +0.149 HD
BRANCH   6  24
ATOM     24  C   UNL     1      -4.047 -11.403  17.655  0.00  0.00    +0.139 C 
BRANCH  24  26
ATOM     26  C   UNL     1      -3.399 -11.048  16.347  0.00  0.00    -0.030 A 
ATOM     29  C   UNL     1      -2.047 -10.707  16.310  0.00  0.00    +0.009 A 
ATOM     30  C   UNL     1      -4.148 -11.064  15.171  0.00  0.00    +0.009 A 
ATOM     34  C   UNL     1      -1.444 -10.380  15.094  0.00  0.00    +0.046 A 
ATOM     35  C   UNL     1      -3.545 -10.736  13.956  0.00  0.00    +0.046 A 
ATOM     36  C   UNL     1      -2.194 -10.396  13.918  0.00  0.00    +0.120 A 
BRANCH  36   4
ATOM      4  O   UNL     1      -1.605 -10.078  12.733  0.00  0.00    -0.495 OA
ATOM     37  C   UNL     1      -2.375 -10.288  11.550  0.00  0.00    +0.277 C 
ENDBRANCH  36   4
ENDBRANCH  24  26
ENDBRANCH   6  24
ENDBRANCH  18  21
ENDBRANCH  13  18
TORSDOF 9
ENDMDL
MODEL 9
REMARK VINA RESULT:      -6.8     20.511     23.753
REMARK  Name = 45784367
REMARK  13 active torsions:
REMARK  status: ('A' for Active; 'I' for Inactive)
REMARK    1  A    between atoms: O_1  and  C_10
REMARK    2  A    between atoms: O_4  and  C_36
REMARK    3  A    between atoms: O_4  and  C_37
REMARK    4  A    between atoms: N_5  and  C_14
REMARK    5  A    between atoms: N_6  and  C_24
REMARK    6  A    between atoms: C_7  and  C_17
REMARK    7  A    between atoms: C_9  and  C_19
REMARK    8  A    between atoms: C_13  and  C_18
REMARK    9  A    between atoms: C_18  and  C_20
REMARK   10  A    between atoms: C_18  and  C_21
REMARK   11  A    between atoms: C_22  and  C_23
REMARK   12  A    between atoms: C_23  and  C_25
REMARK   13  A    between atoms: C_24  and  C_26
REMARK                            x       y       z     vdW  Elec       q    Type
REMARK                         _______ _______ _______ _____ _____    ______ ____
ROOT
ATOM      7  C   UNL     1      -6.122 -10.101  12.165  0.00  0.00    -0.027 C 
ATOM      8  C   UNL     1      -4.793  -9.652  11.472  0.00  0.00    +0.028 C 
ATOM      9  C   UNL     1      -4.948  -9.657   9.908  0.00  0.00    +0.012 C 
ATOM     10  C   UNL     1      -3.573 -10.443  12.023  0.00  0.00    +0.122 C 
ATOM     11  C   UNL     1      -5.971  -9.977  13.699  0.00  0.00    +0.007 C 
ATOM     12  C   UNL     1      -7.264  -9.156  11.726  0.00  0.00    +0.009 C 
ATOM     13  C   UNL     1      -3.486 -10.401  13.567  0.00  0.00    +0.029 C 
ATOM     14  C   UNL     1      -6.147  -8.762   9.483  0.00  0.00    +0.076 C 
ATOM     15  C   UNL     1      -4.800 -10.782  14.249  0.00  0.00    +0.007 C 
ATOM     16  C   UNL     1      -7.446  -9.099  10.217  0.00  0.00    +0.023 C 
ATOM     17  C   UNL     1      -6.508 -11.562  11.820  0.00  0.00    +0.011 C 
ATOM     19  C   UNL     1      -3.684  -9.197   9.162  0.00  0.00    +0.010 C 
ENDROOT
BRANCH  14   5
ATOM      3  O   UNL     1      -7.260 -10.990   8.041  0.00  0.00    -0.275 OA
ATOM      5  N   UNL     1      -6.393  -8.836   8.059  0.00  0.00    -0.312 N 
ATOM     22  C   UNL     1      -6.935  -9.959   7.455  0.00  0.00    +0.218 C 
ATOM     38  H   UNL     1      -6.094  -8.053   7.487  0.00  0.00    +0.149 HD
BRANCH  22  23
ATOM     23  C   UNL     1      -7.089  -9.764   5.960  0.00  0.00    +0.130 C 
BRANCH  23  25
ATOM     25  C   UNL     1      -6.289 -10.746   5.144  0.00  0.00    -0.039 A 
ATOM     27  C   UNL     1      -5.037 -11.168   5.591  0.00  0.00    +0.004 A 
ATOM     28  C   UNL     1      -6.800 -11.234   3.941  0.00  0.00    +0.004 A 
ATOM     31  C   UNL     1      -4.297 -12.076   4.835  0.00  0.00    +0.000 A 
ATOM     32  C   UNL     1      -6.060 -12.142   3.185  0.00  0.00    +0.000 A 
ATOM     33  C   UNL     1      -4.808 -12.564   3.633  0.00  0.00    +0.000 A 
ENDBRANCH  23  25
ENDBRANCH  22  23
ENDBRANCH  14   5
BRANCH  10   1
ATOM      1  O   UNL     1      -2.363  -9.862  11.532  0.00  0.00    -0.391 OA
ATOM     39  H   UNL     1      -2.570  -9.386  10.710  0.00  0.00    +0.210 HD
ENDBRANCH  10   1
BRANCH  13  18
ATOM     18  C   UNL     1      -2.356 -11.293  14.098  0.00  0.00    +0.077 C 
ATOM     20  C   UNL     1      -2.688 -12.761  13.856  0.00  0.00    +0.017 C 
BRANCH  18  21
ATOM      2  O   UNL     1      -1.146 -10.393  15.994  0.00  0.00    -0.276 OA
ATOM      6  N   UNL     1      -3.131 -11.530  16.383  0.00  0.00    -0.311 N 
ATOM     21  C   UNL     1      -2.125 -11.012  15.580  0.00  0.00    +0.216 C 
ATOM     40  H   UNL     1      -3.934 -11.983  15.959  0.00  0.00    +0.149 HD
BRANCH   6  24
ATOM     24  C   UNL     1      -3.131 -11.393  17.820  0.00  0.00    +0.139 C 
BRANCH  24  26
ATOM     26  C   UNL     1      -4.520 -11.238  18.369  0.00  0.00    -0.030 A 
ATOM     29  C   UNL     1      -4.872 -11.869  19.562  0.00  0.00    +0.009 A 
ATOM     30  C   UNL     1      -5.457 -10.461  17.687  0.00  0.00    +0.009 A 
ATOM     34  C   UNL     1      -6.163 -11.723  20.074  0.00  0.00    +0.046 A 
ATOM     35  C   UNL     1      -6.747 -10.316  18.199  0.00  0.00    +0.046 A 
ATOM     36  C   UNL     1      -7.099 -10.946  19.392  0.00  0.00    +0.120 A 
BRANCH  36   4
ATOM      4  O   UNL     1      -8.356 -10.803  19.892  0.00  0.00    -0.495 OA
ATOM     37  C   UNL     1      -9.432 -10.810  18.954  0.00  0.00    +0.277 C 
ENDBRANCH  36   4
ENDBRANCH  24  26
ENDBRANCH   6  24
ENDBRANCH  18  21
ENDBRANCH  13  18
TORSDOF 9
ENDMDL
MODEL 10
REMARK VINA RESULT:      -6.8     15.586     16.763
REMARK  Name = 45784367
REMARK  13 active torsions:
REMARK  status: ('A' for Active; 'I' for Inactive)
REMARK    1  A    between atoms: O_1  and  C_10
REMARK    2  A    between atoms: O_4  and  C_36
REMARK    3  A    between atoms: O_4  and  C_37
REMARK    4  A    between atoms: N_5  and  C_14
REMARK    5  A    between atoms: N_6  and  C_24
REMARK    6  A    between atoms: C_7  and  C_17
REMARK    7  A    between atoms: C_9  and  C_19
REMARK    8  A    between atoms: C_13  and  C_18
REMARK    9  A    between atoms: C_18  and  C_20
REMARK   10  A    between atoms: C_18  and  C_21
REMARK   11  A    between atoms: C_22  and  C_23
REMARK   12  A    between atoms: C_23  and  C_25
REMARK   13  A    between atoms: C_24  and  C_26
REMARK                            x       y       z     vdW  Elec       q    Type
REMARK                         _______ _______ _______ _____ _____    ______ ____
ROOT
ATOM      7  C   UNL     1     -13.767  -8.146  15.111  0.00  0.00    -0.027 C 
ATOM      8  C   UNL     1     -12.380  -7.447  14.926  0.00  0.00    +0.028 C 
ATOM      9  C   UNL     1     -11.419  -7.787  16.122  0.00  0.00    +0.012 C 
ATOM     10  C   UNL     1     -12.547  -5.933  14.614  0.00  0.00    +0.122 C 
ATOM     11  C   UNL     1     -14.646  -7.885  13.865  0.00  0.00    +0.007 C 
ATOM     12  C   UNL     1     -13.552  -9.673  15.222  0.00  0.00    +0.009 C 
ATOM     13  C   UNL     1     -13.510  -5.673  13.431  0.00  0.00    +0.029 C 
ATOM     14  C   UNL     1     -11.269  -9.327  16.272  0.00  0.00    +0.076 C 
ATOM     15  C   UNL     1     -14.845  -6.402  13.579  0.00  0.00    +0.007 C 
ATOM     16  C   UNL     1     -12.607 -10.062  16.350  0.00  0.00    +0.023 C 
ATOM     17  C   UNL     1     -14.523  -7.645  16.367  0.00  0.00    +0.011 C 
ATOM     19  C   UNL     1     -10.024  -7.153  15.990  0.00  0.00    +0.010 C 
ENDROOT
BRANCH  14   5
ATOM      3  O   UNL     1      -9.381 -11.488  16.489  0.00  0.00    -0.275 OA
ATOM      5  N   UNL     1     -10.485  -9.678  17.437  0.00  0.00    -0.312 N 
ATOM     22  C   UNL     1      -9.597 -10.742  17.442  0.00  0.00    +0.218 C 
ATOM     38  H   UNL     1     -10.648  -9.155  18.291  0.00  0.00    +0.149 HD
BRANCH  22  23
ATOM     23  C   UNL     1      -8.907 -10.880  18.785  0.00  0.00    +0.130 C 
BRANCH  23  25
ATOM     25  C   UNL     1      -7.412 -11.033  18.674  0.00  0.00    -0.039 A 
ATOM     27  C   UNL     1      -6.679 -10.158  17.873  0.00  0.00    +0.004 A 
ATOM     28  C   UNL     1      -6.761 -12.050  19.373  0.00  0.00    +0.004 A 
ATOM     31  C   UNL     1      -5.295 -10.301  17.770  0.00  0.00    +0.000 A 
ATOM     32  C   UNL     1      -5.378 -12.193  19.271  0.00  0.00    +0.000 A 
ATOM     33  C   UNL     1      -4.645 -11.317  18.469  0.00  0.00    +0.000 A 
ENDBRANCH  23  25
ENDBRANCH  22  23
ENDBRANCH  14   5
BRANCH  10   1
ATOM      1  O   UNL     1     -11.284  -5.378  14.240  0.00  0.00    -0.391 OA
ATOM     39  H   UNL     1     -11.090  -5.658  13.330  0.00  0.00    +0.210 HD
ENDBRANCH  10   1
BRANCH  13  18
ATOM     18  C   UNL     1     -13.764  -4.174  13.223  0.00  0.00    +0.077 C 
ATOM     20  C   UNL     1     -15.197  -3.945  12.753  0.00  0.00    +0.017 C 
BRANCH  18  21
ATOM      2  O   UNL     1     -11.849  -2.848  12.561  0.00  0.00    -0.276 OA
ATOM      6  N   UNL     1     -12.984  -4.048  10.932  0.00  0.00    -0.311 N 
ATOM     21  C   UNL     1     -12.755  -3.609  12.228  0.00  0.00    +0.216 C 
ATOM     40  H   UNL     1     -13.722  -4.719  10.748  0.00  0.00    +0.149 HD
BRANCH   6  24
ATOM     24  C   UNL     1     -12.161  -3.647   9.815  0.00  0.00    +0.139 C 
BRANCH  24  26
ATOM     26  C   UNL     1     -11.188  -4.721   9.420  0.00  0.00    -0.030 A 
ATOM     29  C   UNL     1     -11.485  -6.059   9.678  0.00  0.00    +0.009 A 
ATOM     30  C   UNL     1      -9.990  -4.379   8.793  0.00  0.00    +0.009 A 
ATOM     34  C   UNL     1     -10.582  -7.057   9.308  0.00  0.00    +0.046 A 
ATOM     35  C   UNL     1      -9.088  -5.377   8.423  0.00  0.00    +0.046 A 
ATOM     36  C   UNL     1      -9.384  -6.715   8.681  0.00  0.00    +0.120 A 
BRANCH  36   4
ATOM      4  O   UNL     1      -8.505  -7.689   8.319  0.00  0.00    -0.495 OA
ATOM     37  C   UNL     1      -8.235  -7.834   6.925  0.00  0.00    +0.277 C 
ENDBRANCH  36   4
ENDBRANCH  24  26
ENDBRANCH   6  24
ENDBRANCH  18  21
ENDBRANCH  13  18
TORSDOF 9
ENDMDL
