MODEL 1
REMARK VINA RESULT:      -7.3      0.000      0.000
REMARK  Name = 40777880
REMARK  13 active torsions:
REMARK  status: ('A' for Active; 'I' for Inactive)
REMARK    1  A    between atoms: O_2  and  C_10
REMARK    2  A    between atoms: O_3  and  C_11
REMARK    3  A    between atoms: O_6  and  C_27
REMARK    4  A    between atoms: O_6  and  C_28
REMARK    5  A    between atoms: N_7  and  C_15
REMARK    6  A    between atoms: N_8  and  C_18
REMARK    7  A    between atoms: N_9  and  C_19
REMARK    8  A    between atoms: C_12  and  C_14
REMARK    9  A    between atoms: C_13  and  C_15
REMARK   10  A    between atoms: C_14  and  C_16
REMARK   11  A    between atoms: C_18  and  C_20
REMARK   12  A    between atoms: C_19  and  C_21
REMARK   13  A    between atoms: C_19  and  C_22
REMARK                            x       y       z     vdW  Elec       q    Type
REMARK                         _______ _______ _______ _____ _____    ______ ____
ROOT
ATOM      1  O   UNL     1      10.851   8.355  20.353  0.00  0.00    -0.366 OA
ATOM     10  C   UNL     1      12.742   7.087  20.969  0.00  0.00    +0.175 C 
ATOM     11  C   UNL     1      11.529   6.465  21.628  0.00  0.00    +0.176 C 
ATOM     12  C   UNL     1      12.104   7.871  19.834  0.00  0.00    +0.158 C 
ATOM     13  C   UNL     1      10.501   7.588  21.527  0.00  0.00    +0.167 C 
ENDROOT
BRANCH  10   2
ATOM      2  O   UNL     1      13.672   6.135  20.497  0.00  0.00    -0.387 OA
ATOM     29  H   UNL     1      14.286   5.943  21.226  0.00  0.00    +0.210 HD
ENDBRANCH  10   2
BRANCH  11   3
ATOM      3  O   UNL     1      11.056   5.362  20.856  0.00  0.00    -0.387 OA
ATOM     30  H   UNL     1      11.802   4.749  20.739  0.00  0.00    +0.210 HD
ENDBRANCH  11   3
BRANCH  12  14
ATOM     14  C   UNL     1      12.948   9.040  19.359  0.00  0.00    +0.130 C 
BRANCH  14  16
ATOM      4  O   UNL     1      13.739  10.258  21.294  0.00  0.00    -0.276 OA
ATOM      8  N   UNL     1      15.207   8.862  20.155  0.00  0.00    -0.311 N 
ATOM     16  C   UNL     1      13.981   9.468  20.385  0.00  0.00    +0.216 C 
ATOM     32  H   UNL     1      15.301   8.213  19.378  0.00  0.00    +0.149 HD
BRANCH   8  18
ATOM     18  C   UNL     1      16.369   9.095  20.981  0.00  0.00    +0.139 C 
BRANCH  18  20
ATOM     20  C   UNL     1      17.407   8.024  20.806  0.00  0.00    -0.030 A 
ATOM     23  C   UNL     1      17.132   6.909  20.015  0.00  0.00    +0.009 A 
ATOM     24  C   UNL     1      18.646   8.145  21.435  0.00  0.00    +0.009 A 
ATOM     25  C   UNL     1      18.096   5.914  19.852  0.00  0.00    +0.046 A 
ATOM     26  C   UNL     1      19.610   7.151  21.273  0.00  0.00    +0.046 A 
ATOM     27  C   UNL     1      19.335   6.035  20.481  0.00  0.00    +0.120 A 
BRANCH  27   6
ATOM      6  O   UNL     1      20.276   5.064  20.322  0.00  0.00    -0.495 OA
ATOM     28  C   UNL     1      21.616   5.394  20.685  0.00  0.00    +0.277 C 
ENDBRANCH  27   6
ENDBRANCH  18  20
ENDBRANCH   8  18
ENDBRANCH  14  16
ENDBRANCH  12  14
BRANCH  13  15
ATOM     15  C   UNL     1      10.527   8.529  22.723  0.00  0.00    +0.140 C 
BRANCH  15   7
ATOM      5  O   UNL     1      11.112  10.833  24.358  0.00  0.00    -0.253 OA
ATOM      7  N   UNL     1      10.576   9.920  22.294  0.00  0.00    -0.297 N 
ATOM      9  N   UNL     1      10.849  12.183  22.490  0.00  0.00    -0.297 N 
ATOM     17  C   UNL     1      10.868  10.962  23.159  0.00  0.00    +0.300 C 
ATOM     31  H   UNL     1      10.402  10.127  21.316  0.00  0.00    +0.150 HD
ATOM     33  H   UNL     1      10.562  12.195  21.515  0.00  0.00    +0.150 HD
BRANCH   9  19
ATOM     19  C   UNL     1      11.118  13.440  23.146  0.00  0.00    +0.068 C 
ATOM     21  C   UNL     1       9.835  14.018  23.729  0.00  0.00    +0.027 C 
ATOM     22  C   UNL     1      11.775  14.418  22.181  0.00  0.00    +0.027 C 
ENDBRANCH   9  19
ENDBRANCH  15   7
ENDBRANCH  13  15
TORSDOF 10
ENDMDL
MODEL 2
REMARK VINA RESULT:      -7.2      1.659      2.641
REMARK  Name = 40777880
REMARK  13 active torsions:
REMARK  status: ('A' for Active; 'I' for Inactive)
REMARK    1  A    between atoms: O_2  and  C_10
REMARK    2  A    between atoms: O_3  and  C_11
REMARK    3  A    between atoms: O_6  and  C_27
REMARK    4  A    between atoms: O_6  and  C_28
REMARK    5  A    between atoms: N_7  and  C_15
REMARK    6  A    between atoms: N_8  and  C_18
REMARK    7  A    between atoms: N_9  and  C_19
REMARK    8  A    between atoms: C_12  and  C_14
REMARK    9  A    between atoms: C_13  and  C_15
REMARK   10  A    between atoms: C_14  and  C_16
REMARK   11  A    between atoms: C_18  and  C_20
REMARK   12  A    between atoms: C_19  and  C_21
REMARK   13  A    between atoms: C_19  and  C_22
REMARK                            x       y       z     vdW  Elec       q    Type
REMARK                         _______ _______ _______ _____ _____    ______ ____
ROOT
ATOM      1  O   UNL     1      12.969   9.112  21.098  0.00  0.00    -0.366 OA
ATOM     10  C   UNL     1      12.111   6.998  20.498  0.00  0.00    +0.175 C 
ATOM     11  C   UNL     1      10.984   8.004  20.395  0.00  0.00    +0.176 C 
ATOM     12  C   UNL     1      13.332   7.899  20.413  0.00  0.00    +0.158 C 
ATOM     13  C   UNL     1      11.528   9.175  21.206  0.00  0.00    +0.167 C 
ENDROOT
BRANCH  10   2
ATOM      2  O   UNL     1      12.094   6.031  19.469  0.00  0.00    -0.387 OA
ATOM     29  H   UNL     1      12.596   6.395  18.720  0.00  0.00    +0.210 HD
ENDBRANCH  10   2
BRANCH  11   3
ATOM      3  O   UNL     1      10.827   8.436  19.044  0.00  0.00    -0.387 OA
ATOM     30  H   UNL     1      10.617   7.651  18.510  0.00  0.00    +0.210 HD
ENDBRANCH  11   3
BRANCH  12  14
ATOM     14  C   UNL     1      14.570   7.299  21.057  0.00  0.00    +0.130 C 
BRANCH  14  16
ATOM      4  O   UNL     1      15.193   6.295  18.946  0.00  0.00    -0.276 OA
ATOM      8  N   UNL     1      16.850   6.789  20.500  0.00  0.00    -0.311 N 
ATOM     16  C   UNL     1      15.543   6.738  20.037  0.00  0.00    +0.216 C 
ATOM     32  H   UNL     1      17.035   7.185  21.417  0.00  0.00    +0.149 HD
BRANCH   8  18
ATOM     18  C   UNL     1      17.978   6.315  19.730  0.00  0.00    +0.139 C 
BRANCH  18  20
ATOM     20  C   UNL     1      19.149   5.972  20.604  0.00  0.00    -0.030 A 
ATOM     23  C   UNL     1      19.364   6.673  21.790  0.00  0.00    +0.009 A 
ATOM     24  C   UNL     1      20.022   4.951  20.229  0.00  0.00    +0.009 A 
ATOM     25  C   UNL     1      20.452   6.353  22.603  0.00  0.00    +0.046 A 
ATOM     26  C   UNL     1      21.110   4.630  21.041  0.00  0.00    +0.046 A 
ATOM     27  C   UNL     1      21.325   5.331  22.227  0.00  0.00    +0.120 A 
BRANCH  27   6
ATOM      6  O   UNL     1      22.387   5.019  23.021  0.00  0.00    -0.495 OA
ATOM     28  C   UNL     1      22.689   3.635  23.184  0.00  0.00    +0.277 C 
ENDBRANCH  27   6
ENDBRANCH  18  20
ENDBRANCH   8  18
ENDBRANCH  14  16
ENDBRANCH  12  14
BRANCH  13  15
ATOM     15  C   UNL     1      11.169   9.095  22.683  0.00  0.00    +0.140 C 
BRANCH  15   7
ATOM      5  O   UNL     1      12.292  11.599  23.572  0.00  0.00    -0.253 OA
ATOM      7  N   UNL     1      10.440  10.281  23.110  0.00  0.00    -0.297 N 
ATOM      9  N   UNL     1      10.142  12.417  23.874  0.00  0.00    -0.297 N 
ATOM     17  C   UNL     1      11.073  11.443  23.522  0.00  0.00    +0.300 C 
ATOM     31  H   UNL     1       9.425  10.255  23.090  0.00  0.00    +0.150 HD
ATOM     33  H   UNL     1       9.157  12.168  23.870  0.00  0.00    +0.150 HD
BRANCH   9  19
ATOM     19  C   UNL     1      10.520  13.730  24.340  0.00  0.00    +0.068 C 
ATOM     21  C   UNL     1      10.514  13.772  25.863  0.00  0.00    +0.027 C 
ATOM     22  C   UNL     1       9.599  14.792  23.754  0.00  0.00    +0.027 C 
ENDBRANCH   9  19
ENDBRANCH  15   7
ENDBRANCH  13  15
TORSDOF 10
ENDMDL
MODEL 3
REMARK VINA RESULT:      -6.8      1.561      2.054
REMARK  Name = 40777880
REMARK  13 active torsions:
REMARK  status: ('A' for Active; 'I' for Inactive)
REMARK    1  A    between atoms: O_2  and  C_10
REMARK    2  A    between atoms: O_3  and  C_11
REMARK    3  A    between atoms: O_6  and  C_27
REMARK    4  A    between atoms: O_6  and  C_28
REMARK    5  A    between atoms: N_7  and  C_15
REMARK    6  A    between atoms: N_8  and  C_18
REMARK    7  A    between atoms: N_9  and  C_19
REMARK    8  A    between atoms: C_12  and  C_14
REMARK    9  A    between atoms: C_13  and  C_15
REMARK   10  A    between atoms: C_14  and  C_16
REMARK   11  A    between atoms: C_18  and  C_20
REMARK   12  A    between atoms: C_19  and  C_21
REMARK   13  A    between atoms: C_19  and  C_22
REMARK                            x       y       z     vdW  Elec       q    Type
REMARK                         _______ _______ _______ _____ _____    ______ ____
ROOT
ATOM      1  O   UNL     1      11.608   9.580  20.576  0.00  0.00    -0.366 OA
ATOM     10  C   UNL     1      12.520   7.536  21.319  0.00  0.00    +0.175 C 
ATOM     11  C   UNL     1      11.171   7.713  21.984  0.00  0.00    +0.176 C 
ATOM     12  C   UNL     1      12.394   8.462  20.121  0.00  0.00    +0.158 C 
ATOM     13  C   UNL     1      10.913   9.203  21.786  0.00  0.00    +0.167 C 
ENDROOT
BRANCH  10   2
ATOM      2  O   UNL     1      12.782   6.203  20.932  0.00  0.00    -0.387 OA
ATOM     29  H   UNL     1      12.246   5.625  21.500  0.00  0.00    +0.210 HD
ENDBRANCH  10   2
BRANCH  11   3
ATOM      3  O   UNL     1      10.169   6.991  21.270  0.00  0.00    -0.387 OA
ATOM     30  H   UNL     1      10.615   6.500  20.559  0.00  0.00    +0.210 HD
ENDBRANCH  11   3
BRANCH  12  14
ATOM     14  C   UNL     1      13.730   8.956  19.596  0.00  0.00    +0.130 C 
BRANCH  14  16
ATOM      4  O   UNL     1      14.315   7.494  17.760  0.00  0.00    -0.276 OA
ATOM      8  N   UNL     1      15.504   7.344  19.751  0.00  0.00    -0.311 N 
ATOM     16  C   UNL     1      14.528   7.861  18.912  0.00  0.00    +0.216 C 
ATOM     32  H   UNL     1      15.606   7.726  20.687  0.00  0.00    +0.149 HD
BRANCH   8  18
ATOM     18  C   UNL     1      16.405   6.287  19.354  0.00  0.00    +0.139 C 
BRANCH  18  20
ATOM     20  C   UNL     1      17.733   6.391  20.047  0.00  0.00    -0.030 A 
ATOM     23  C   UNL     1      18.717   5.428  19.818  0.00  0.00    +0.009 A 
ATOM     24  C   UNL     1      17.983   7.449  20.920  0.00  0.00    +0.009 A 
ATOM     25  C   UNL     1      19.950   5.525  20.462  0.00  0.00    +0.046 A 
ATOM     26  C   UNL     1      19.216   7.547  21.564  0.00  0.00    +0.046 A 
ATOM     27  C   UNL     1      20.200   6.585  21.335  0.00  0.00    +0.120 A 
BRANCH  27   6
ATOM      6  O   UNL     1      21.404   6.679  21.963  0.00  0.00    -0.495 OA
ATOM     28  C   UNL     1      21.506   6.097  23.261  0.00  0.00    +0.277 C 
ENDBRANCH  27   6
ENDBRANCH  18  20
ENDBRANCH   8  18
ENDBRANCH  14  16
ENDBRANCH  12  14
BRANCH  13  15
ATOM     15  C   UNL     1      11.457  10.058  22.921  0.00  0.00    +0.140 C 
BRANCH  15   7
ATOM      5  O   UNL     1      11.878  12.876  22.466  0.00  0.00    -0.253 OA
ATOM      7  N   UNL     1      10.543  11.145  23.243  0.00  0.00    -0.297 N 
ATOM      9  N   UNL     1       9.793  13.302  23.389  0.00  0.00    -0.297 N 
ATOM     17  C   UNL     1      10.837  12.475  22.983  0.00  0.00    +0.300 C 
ATOM     31  H   UNL     1       9.648  10.913  23.661  0.00  0.00    +0.150 HD
ATOM     33  H   UNL     1       9.005  12.883  23.875  0.00  0.00    +0.150 HD
BRANCH   9  19
ATOM     19  C   UNL     1       9.828  14.737  23.239  0.00  0.00    +0.068 C 
ATOM     21  C   UNL     1      10.235  15.396  24.551  0.00  0.00    +0.027 C 
ATOM     22  C   UNL     1       8.481  15.258  22.754  0.00  0.00    +0.027 C 
ENDBRANCH   9  19
ENDBRANCH  15   7
ENDBRANCH  13  15
TORSDOF 10
ENDMDL
MODEL 4
REMARK VINA RESULT:      -6.8      2.484      4.335
REMARK  Name = 40777880
REMARK  13 active torsions:
REMARK  status: ('A' for Active; 'I' for Inactive)
REMARK    1  A    between atoms: O_2  and  C_10
REMARK    2  A    between atoms: O_3  and  C_11
REMARK    3  A    between atoms: O_6  and  C_27
REMARK    4  A    between atoms: O_6  and  C_28
REMARK    5  A    between atoms: N_7  and  C_15
REMARK    6  A    between atoms: N_8  and  C_18
REMARK    7  A    between atoms: N_9  and  C_19
REMARK    8  A    between atoms: C_12  and  C_14
REMARK    9  A    between atoms: C_13  and  C_15
REMARK   10  A    between atoms: C_14  and  C_16
REMARK   11  A    between atoms: C_18  and  C_20
REMARK   12  A    between atoms: C_19  and  C_21
REMARK   13  A    between atoms: C_19  and  C_22
REMARK                            x       y       z     vdW  Elec       q    Type
REMARK                         _______ _______ _______ _____ _____    ______ ____
ROOT
ATOM      1  O   UNL     1      13.499   7.749  20.700  0.00  0.00    -0.366 OA
ATOM     10  C   UNL     1      11.255   7.947  21.400  0.00  0.00    +0.175 C 
ATOM     11  C   UNL     1      11.432   6.574  20.786  0.00  0.00    +0.176 C 
ATOM     12  C   UNL     1      12.688   8.312  21.748  0.00  0.00    +0.158 C 
ATOM     13  C   UNL     1      12.731   6.740  20.004  0.00  0.00    +0.167 C 
ENDROOT
BRANCH  10   2
ATOM      2  O   UNL     1      10.417   7.948  22.536  0.00  0.00    -0.387 OA
ATOM     29  H   UNL     1      10.877   7.455  23.237  0.00  0.00    +0.210 HD
ENDBRANCH  10   2
BRANCH  11   3
ATOM      3  O   UNL     1      11.650   5.600  21.805  0.00  0.00    -0.387 OA
ATOM     30  H   UNL     1      12.602   5.402  21.820  0.00  0.00    +0.210 HD
ENDBRANCH  11   3
BRANCH  12  14
ATOM     14  C   UNL     1      12.927   9.809  21.831  0.00  0.00    +0.130 C 
BRANCH  14  16
ATOM      4  O   UNL     1      14.339  10.949  20.232  0.00  0.00    -0.276 OA
ATOM      8  N   UNL     1      15.324   9.677  21.909  0.00  0.00    -0.311 N 
ATOM     16  C   UNL     1      14.252  10.223  21.218  0.00  0.00    +0.216 C 
ATOM     32  H   UNL     1      15.145   9.095  22.722  0.00  0.00    +0.149 HD
BRANCH   8  18
ATOM     18  C   UNL     1      16.701   9.907  21.536  0.00  0.00    +0.139 C 
BRANCH  18  20
ATOM     20  C   UNL     1      17.412   8.629  21.195  0.00  0.00    -0.030 A 
ATOM     23  C   UNL     1      18.633   8.328  21.797  0.00  0.00    +0.009 A 
ATOM     24  C   UNL     1      16.850   7.743  20.276  0.00  0.00    +0.009 A 
ATOM     25  C   UNL     1      19.293   7.140  21.481  0.00  0.00    +0.046 A 
ATOM     26  C   UNL     1      17.509   6.556  19.959  0.00  0.00    +0.046 A 
ATOM     27  C   UNL     1      18.731   6.254  20.561  0.00  0.00    +0.120 A 
BRANCH  27   6
ATOM      6  O   UNL     1      19.375   5.095  20.253  0.00  0.00    -0.495 OA
ATOM     28  C   UNL     1      20.782   5.053  20.486  0.00  0.00    +0.277 C 
ENDBRANCH  27   6
ENDBRANCH  18  20
ENDBRANCH   8  18
ENDBRANCH  14  16
ENDBRANCH  12  14
BRANCH  13  15
ATOM     15  C   UNL     1      12.511   7.224  18.578  0.00  0.00    +0.140 C 
BRANCH  15   7
ATOM      5  O   UNL     1      13.846   8.169  16.201  0.00  0.00    -0.253 OA
ATOM      7  N   UNL     1      13.113   8.534  18.371  0.00  0.00    -0.297 N 
ATOM      9  N   UNL     1      14.219  10.199  17.259  0.00  0.00    -0.297 N 
ATOM     17  C   UNL     1      13.734   8.896  17.187  0.00  0.00    +0.300 C 
ATOM     31  H   UNL     1      13.059   9.212  19.125  0.00  0.00    +0.150 HD
ATOM     33  H   UNL     1      14.145  10.694  18.143  0.00  0.00    +0.150 HD
BRANCH   9  19
ATOM     19  C   UNL     1      14.913  10.838  16.166  0.00  0.00    +0.068 C 
ATOM     21  C   UNL     1      15.799  11.963  16.687  0.00  0.00    +0.027 C 
ATOM     22  C   UNL     1      13.922  11.350  15.129  0.00  0.00    +0.027 C 
ENDBRANCH   9  19
ENDBRANCH  15   7
ENDBRANCH  13  15
TORSDOF 10
ENDMDL
MODEL 5
REMARK VINA RESULT:      -6.7     17.161     18.613
REMARK  Name = 40777880
REMARK  13 active torsions:
REMARK  status: ('A' for Active; 'I' for Inactive)
REMARK    1  A    between atoms: O_2  and  C_10
REMARK    2  A    between atoms: O_3  and  C_11
REMARK    3  A    between atoms: O_6  and  C_27
REMARK    4  A    between atoms: O_6  and  C_28
REMARK    5  A    between atoms: N_7  and  C_15
REMARK    6  A    between atoms: N_8  and  C_18
REMARK    7  A    between atoms: N_9  and  C_19
REMARK    8  A    between atoms: C_12  and  C_14
REMARK    9  A    between atoms: C_13  and  C_15
REMARK   10  A    between atoms: C_14  and  C_16
REMARK   11  A    between atoms: C_18  and  C_20
REMARK   12  A    between atoms: C_19  and  C_21
REMARK   13  A    between atoms: C_19  and  C_22
REMARK                            x       y       z     vdW  Elec       q    Type
REMARK                         _______ _______ _______ _____ _____    ______ ____
ROOT
ATOM      1  O   UNL     1       9.446   5.887   5.852  0.00  0.00    -0.366 OA
ATOM     10  C   UNL     1      11.576   6.639   6.530  0.00  0.00    +0.175 C 
ATOM     11  C   UNL     1      10.820   6.204   7.767  0.00  0.00    +0.176 C 
ATOM     12  C   UNL     1      10.824   5.898   5.437  0.00  0.00    +0.158 C 
ATOM     13  C   UNL     1       9.379   6.176   7.267  0.00  0.00    +0.167 C 
ENDROOT
BRANCH  10   2
ATOM      2  O   UNL     1      12.944   6.293   6.560  0.00  0.00    -0.387 OA
ATOM     29  H   UNL     1      13.203   6.213   7.493  0.00  0.00    +0.210 HD
ENDBRANCH  10   2
BRANCH  11   3
ATOM      3  O   UNL     1      11.188   4.874   8.131  0.00  0.00    -0.387 OA
ATOM     30  H   UNL     1      10.550   4.271   7.712  0.00  0.00    +0.210 HD
ENDBRANCH  11   3
BRANCH  12  14
ATOM     14  C   UNL     1      10.943   6.551   4.072  0.00  0.00    +0.130 C 
BRANCH  14  16
ATOM      4  O   UNL     1      10.087   5.670   1.989  0.00  0.00    -0.276 OA
ATOM      8  N   UNL     1      11.750   4.501   3.116  0.00  0.00    -0.311 N 
ATOM     16  C   UNL     1      10.858   5.549   2.936  0.00  0.00    +0.216 C 
ATOM     32  H   UNL     1      12.355   4.500   3.932  0.00  0.00    +0.149 HD
BRANCH   8  18
ATOM     18  C   UNL     1      11.875   3.404   2.183  0.00  0.00    +0.139 C 
BRANCH  18  20
ATOM     20  C   UNL     1      13.014   3.608   1.227  0.00  0.00    -0.030 A 
ATOM     23  C   UNL     1      12.764   3.733  -0.140  0.00  0.00    +0.009 A 
ATOM     24  C   UNL     1      14.323   3.673   1.705  0.00  0.00    +0.009 A 
ATOM     25  C   UNL     1      13.822   3.923  -1.029  0.00  0.00    +0.046 A 
ATOM     26  C   UNL     1      15.382   3.863   0.817  0.00  0.00    +0.046 A 
ATOM     27  C   UNL     1      15.131   3.988  -0.550  0.00  0.00    +0.120 A 
BRANCH  27   6
ATOM      6  O   UNL     1      16.164   4.174  -1.418  0.00  0.00    -0.495 OA
ATOM     28  C   UNL     1      15.952   5.089  -2.492  0.00  0.00    +0.277 C 
ENDBRANCH  27   6
ENDBRANCH  18  20
ENDBRANCH   8  18
ENDBRANCH  14  16
ENDBRANCH  12  14
BRANCH  13  15
ATOM     15  C   UNL     1       8.663   7.508   7.437  0.00  0.00    +0.140 C 
BRANCH  15   7
ATOM      5  O   UNL     1       9.083   9.546   5.438  0.00  0.00    -0.253 OA
ATOM      7  N   UNL     1       7.816   7.798   6.288  0.00  0.00    -0.297 N 
ATOM      9  N   UNL     1       7.133   8.863   4.382  0.00  0.00    -0.297 N 
ATOM     17  C   UNL     1       8.104   8.803   5.378  0.00  0.00    +0.300 C 
ATOM     31  H   UNL     1       6.989   7.227   6.145  0.00  0.00    +0.150 HD
ATOM     33  H   UNL     1       6.322   8.256   4.460  0.00  0.00    +0.150 HD
BRANCH   9  19
ATOM     19  C   UNL     1       7.179   9.818   3.301  0.00  0.00    +0.068 C 
ATOM     21  C   UNL     1       5.790  10.384   3.035  0.00  0.00    +0.027 C 
ATOM     22  C   UNL     1       7.764   9.180   2.047  0.00  0.00    +0.027 C 
ENDBRANCH   9  19
ENDBRANCH  15   7
ENDBRANCH  13  15
TORSDOF 10
ENDMDL
MODEL 6
REMARK VINA RESULT:      -6.6      3.218      4.995
REMARK  Name = 40777880
REMARK  13 active torsions:
REMARK  status: ('A' for Active; 'I' for Inactive)
REMARK    1  A    between atoms: O_2  and  C_10
REMARK    2  A    between atoms: O_3  and  C_11
REMARK    3  A    between atoms: O_6  and  C_27
REMARK    4  A    between atoms: O_6  and  C_28
REMARK    5  A    between atoms: N_7  and  C_15
REMARK    6  A    between atoms: N_8  and  C_18
REMARK    7  A    between atoms: N_9  and  C_19
REMARK    8  A    between atoms: C_12  and  C_14
REMARK    9  A    between atoms: C_13  and  C_15
REMARK   10  A    between atoms: C_14  and  C_16
REMARK   11  A    between atoms: C_18  and  C_20
REMARK   12  A    between atoms: C_19  and  C_21
REMARK   13  A    between atoms: C_19  and  C_22
REMARK                            x       y       z     vdW  Elec       q    Type
REMARK                         _______ _______ _______ _____ _____    ______ ____
ROOT
ATOM      1  O   UNL     1      13.620   7.258  18.821  0.00  0.00    -0.366 OA
ATOM     10  C   UNL     1      11.673   8.506  19.282  0.00  0.00    +0.175 C 
ATOM     11  C   UNL     1      11.936   8.587  17.793  0.00  0.00    +0.176 C 
ATOM     12  C   UNL     1      12.452   7.258  19.661  0.00  0.00    +0.158 C 
ATOM     13  C   UNL     1      13.394   8.147  17.703  0.00  0.00    +0.167 C 
ENDROOT
BRANCH  10   2
ATOM      2  O   UNL     1      10.302   8.393  19.601  0.00  0.00    -0.387 OA
ATOM     29  H   UNL     1       9.851   9.167  19.224  0.00  0.00    +0.210 HD
ENDBRANCH  10   2
BRANCH  11   3
ATOM      3  O   UNL     1      11.141   7.629  17.096  0.00  0.00    -0.387 OA
ATOM     30  H   UNL     1      11.446   7.616  16.172  0.00  0.00    +0.210 HD
ENDBRANCH  11   3
BRANCH  12  14
ATOM     14  C   UNL     1      12.870   7.228  21.120  0.00  0.00    +0.130 C 
BRANCH  14  16
ATOM      4  O   UNL     1      13.877   9.286  21.899  0.00  0.00    -0.276 OA
ATOM      8  N   UNL     1      15.243   7.600  21.064  0.00  0.00    -0.311 N 
ATOM     16  C   UNL     1      14.026   8.167  21.414  0.00  0.00    +0.216 C 
ATOM     32  H   UNL     1      15.259   6.660  20.678  0.00  0.00    +0.149 HD
BRANCH   8  18
ATOM     18  C   UNL     1      16.507   8.279  21.235  0.00  0.00    +0.139 C 
BRANCH  18  20
ATOM     20  C   UNL     1      17.672   7.356  21.028  0.00  0.00    -0.030 A 
ATOM     23  C   UNL     1      18.799   7.460  21.844  0.00  0.00    +0.009 A 
ATOM     24  C   UNL     1      17.629   6.394  20.019  0.00  0.00    +0.009 A 
ATOM     25  C   UNL     1      19.881   6.602  21.653  0.00  0.00    +0.046 A 
ATOM     26  C   UNL     1      18.712   5.535  19.827  0.00  0.00    +0.046 A 
ATOM     27  C   UNL     1      19.838   5.639  20.644  0.00  0.00    +0.120 A 
BRANCH  27   6
ATOM      6  O   UNL     1      20.895   4.802  20.457  0.00  0.00    -0.495 OA
ATOM     28  C   UNL     1      22.178   5.404  20.292  0.00  0.00    +0.277 C 
ENDBRANCH  27   6
ENDBRANCH  18  20
ENDBRANCH   8  18
ENDBRANCH  14  16
ENDBRANCH  12  14
BRANCH  13  15
ATOM     15  C   UNL     1      14.374   9.306  17.825  0.00  0.00    +0.140 C 
BRANCH  15   7
ATOM      5  O   UNL     1      15.191  10.459  15.309  0.00  0.00    -0.253 OA
ATOM      7  N   UNL     1      13.844  10.508  17.197  0.00  0.00    -0.297 N 
ATOM      9  N   UNL     1      13.627  12.145  15.614  0.00  0.00    -0.297 N 
ATOM     17  C   UNL     1      14.304  10.985  15.980  0.00  0.00    +0.300 C 
ATOM     31  H   UNL     1      13.096  11.007  17.669  0.00  0.00    +0.150 HD
ATOM     33  H   UNL     1      12.963  12.545  16.270  0.00  0.00    +0.150 HD
BRANCH   9  19
ATOM     19  C   UNL     1      13.902  12.858  14.389  0.00  0.00    +0.068 C 
ATOM     21  C   UNL     1      13.916  14.360  14.643  0.00  0.00    +0.027 C 
ATOM     22  C   UNL     1      12.886  12.489  13.315  0.00  0.00    +0.027 C 
ENDBRANCH   9  19
ENDBRANCH  15   7
ENDBRANCH  13  15
TORSDOF 10
ENDMDL
MODEL 7
REMARK VINA RESULT:      -6.6      2.457      6.546
REMARK  Name = 40777880
REMARK  13 active torsions:
REMARK  status: ('A' for Active; 'I' for Inactive)
REMARK    1  A    between atoms: O_2  and  C_10
REMARK    2  A    between atoms: O_3  and  C_11
REMARK    3  A    between atoms: O_6  and  C_27
REMARK    4  A    between atoms: O_6  and  C_28
REMARK    5  A    between atoms: N_7  and  C_15
REMARK    6  A    between atoms: N_8  and  C_18
REMARK    7  A    between atoms: N_9  and  C_19
REMARK    8  A    between atoms: C_12  and  C_14
REMARK    9  A    between atoms: C_13  and  C_15
REMARK   10  A    between atoms: C_14  and  C_16
REMARK   11  A    between atoms: C_18  and  C_20
REMARK   12  A    between atoms: C_19  and  C_21
REMARK   13  A    between atoms: C_19  and  C_22
REMARK                            x       y       z     vdW  Elec       q    Type
REMARK                         _______ _______ _______ _____ _____    ______ ____
ROOT
ATOM      1  O   UNL     1      12.534  10.420  21.597  0.00  0.00    -0.366 OA
ATOM     10  C   UNL     1      11.376  11.050  23.552  0.00  0.00    +0.175 C 
ATOM     11  C   UNL     1      12.490  12.051  23.328  0.00  0.00    +0.176 C 
ATOM     12  C   UNL     1      11.210  10.461  22.161  0.00  0.00    +0.158 C 
ATOM     13  C   UNL     1      13.393  11.307  22.349  0.00  0.00    +0.167 C 
ENDROOT
BRANCH  10   2
ATOM      2  O   UNL     1      10.182  11.639  24.023  0.00  0.00    -0.387 OA
ATOM     29  H   UNL     1       9.746  10.990  24.601  0.00  0.00    +0.210 HD
ENDBRANCH  10   2
BRANCH  11   3
ATOM      3  O   UNL     1      11.988  13.213  22.672  0.00  0.00    -0.387 OA
ATOM     30  H   UNL     1      11.619  13.797  23.356  0.00  0.00    +0.210 HD
ENDBRANCH  11   3
BRANCH  12  14
ATOM     14  C   UNL     1      10.610   9.067  22.163  0.00  0.00    +0.130 C 
BRANCH  14  16
ATOM      4  O   UNL     1      11.641   7.070  21.270  0.00  0.00    -0.276 OA
ATOM      8  N   UNL     1      11.100   8.809  19.826  0.00  0.00    -0.311 N 
ATOM     16  C   UNL     1      11.176   8.187  21.064  0.00  0.00    +0.216 C 
ATOM     32  H   UNL     1      10.686   9.735  19.761  0.00  0.00    +0.149 HD
BRANCH   8  18
ATOM     18  C   UNL     1      11.571   8.195  18.606  0.00  0.00    +0.139 C 
BRANCH  18  20
ATOM     20  C   UNL     1      12.606   9.037  17.917  0.00  0.00    -0.030 A 
ATOM     23  C   UNL     1      12.480   9.323  16.557  0.00  0.00    +0.009 A 
ATOM     24  C   UNL     1      13.692   9.534  18.636  0.00  0.00    +0.009 A 
ATOM     25  C   UNL     1      13.441  10.106  15.917  0.00  0.00    +0.046 A 
ATOM     26  C   UNL     1      14.654  10.316  17.997  0.00  0.00    +0.046 A 
ATOM     27  C   UNL     1      14.528  10.602  16.638  0.00  0.00    +0.120 A 
BRANCH  27   6
ATOM      6  O   UNL     1      15.466  11.367  16.013  0.00  0.00    -0.495 OA
ATOM     28  C   UNL     1      16.094  12.386  16.789  0.00  0.00    +0.277 C 
ENDBRANCH  27   6
ENDBRANCH  18  20
ENDBRANCH   8  18
ENDBRANCH  14  16
ENDBRANCH  12  14
BRANCH  13  15
ATOM     15  C   UNL     1      14.449  10.457  23.041  0.00  0.00    +0.140 C 
BRANCH  15   7
ATOM      5  O   UNL     1      14.678   7.652  22.403  0.00  0.00    -0.253 OA
ATOM      7  N   UNL     1      15.349   9.848  22.070  0.00  0.00    -0.297 N 
ATOM      9  N   UNL     1      16.331   8.173  20.861  0.00  0.00    -0.297 N 
ATOM     17  C   UNL     1      15.384   8.483  21.833  0.00  0.00    +0.300 C 
ATOM     31  H   UNL     1      15.963  10.455  21.538  0.00  0.00    +0.150 HD
ATOM     33  H   UNL     1      16.919   8.920  20.502  0.00  0.00    +0.150 HD
BRANCH   9  19
ATOM     19  C   UNL     1      16.582   6.823  20.415  0.00  0.00    +0.068 C 
ATOM     21  C   UNL     1      18.081   6.570  20.311  0.00  0.00    +0.027 C 
ATOM     22  C   UNL     1      15.884   6.559  19.087  0.00  0.00    +0.027 C 
ENDBRANCH   9  19
ENDBRANCH  15   7
ENDBRANCH  13  15
TORSDOF 10
ENDMDL
MODEL 8
REMARK VINA RESULT:      -6.5     26.680     28.484
REMARK  Name = 40777880
REMARK  13 active torsions:
REMARK  status: ('A' for Active; 'I' for Inactive)
REMARK    1  A    between atoms: O_2  and  C_10
REMARK    2  A    between atoms: O_3  and  C_11
REMARK    3  A    between atoms: O_6  and  C_27
REMARK    4  A    between atoms: O_6  and  C_28
REMARK    5  A    between atoms: N_7  and  C_15
REMARK    6  A    between atoms: N_8  and  C_18
REMARK    7  A    between atoms: N_9  and  C_19
REMARK    8  A    between atoms: C_12  and  C_14
REMARK    9  A    between atoms: C_13  and  C_15
REMARK   10  A    between atoms: C_14  and  C_16
REMARK   11  A    between atoms: C_18  and  C_20
REMARK   12  A    between atoms: C_19  and  C_21
REMARK   13  A    between atoms: C_19  and  C_22
REMARK                            x       y       z     vdW  Elec       q    Type
REMARK                         _______ _______ _______ _____ _____    ______ ____
ROOT
ATOM      1  O   UNL     1      -5.328 -11.026  16.241  0.00  0.00    -0.366 OA
ATOM     10  C   UNL     1      -4.342 -11.555  18.317  0.00  0.00    +0.175 C 
ATOM     11  C   UNL     1      -5.809 -11.925  18.391  0.00  0.00    +0.176 C 
ATOM     12  C   UNL     1      -4.109 -11.531  16.816  0.00  0.00    +0.158 C 
ATOM     13  C   UNL     1      -6.391 -11.149  17.213  0.00  0.00    +0.167 C 
ENDROOT
BRANCH  10   2
ATOM      2  O   UNL     1      -3.499 -12.482  18.969  0.00  0.00    -0.387 OA
ATOM     29  H   UNL     1      -2.854 -12.798  18.315  0.00  0.00    +0.210 HD
ENDBRANCH  10   2
BRANCH  11   3
ATOM      3  O   UNL     1      -5.983 -13.317  18.133  0.00  0.00    -0.387 OA
ATOM     30  H   UNL     1      -6.475 -13.693  18.883  0.00  0.00    +0.210 HD
ENDBRANCH  11   3
BRANCH  12  14
ATOM     14  C   UNL     1      -2.944 -10.650  16.401  0.00  0.00    +0.130 C 
BRANCH  14  16
ATOM      4  O   UNL     1      -1.416 -11.818  14.933  0.00  0.00    -0.276 OA
ATOM      8  N   UNL     1      -3.035 -10.428  14.011  0.00  0.00    -0.311 N 
ATOM     16  C   UNL     1      -2.364 -11.047  15.056  0.00  0.00    +0.216 C 
ATOM     32  H   UNL     1      -3.817  -9.812  14.220  0.00  0.00    +0.149 HD
BRANCH   8  18
ATOM     18  C   UNL     1      -2.687 -10.626  12.623  0.00  0.00    +0.139 C 
BRANCH  18  20
ATOM     20  C   UNL     1      -3.651  -9.940  11.698  0.00  0.00    -0.030 A 
ATOM     23  C   UNL     1      -3.230  -9.526  10.434  0.00  0.00    +0.009 A 
ATOM     24  C   UNL     1      -4.966  -9.718  12.103  0.00  0.00    +0.009 A 
ATOM     25  C   UNL     1      -4.126  -8.889   9.575  0.00  0.00    +0.046 A 
ATOM     26  C   UNL     1      -5.863  -9.081  11.245  0.00  0.00    +0.046 A 
ATOM     27  C   UNL     1      -5.442  -8.667   9.981  0.00  0.00    +0.120 A 
BRANCH  27   6
ATOM      6  O   UNL     1      -6.316  -8.046   9.142  0.00  0.00    -0.495 OA
ATOM     28  C   UNL     1      -7.686  -8.434   9.229  0.00  0.00    +0.277 C 
ENDBRANCH  27   6
ENDBRANCH  18  20
ENDBRANCH   8  18
ENDBRANCH  14  16
ENDBRANCH  12  14
BRANCH  13  15
ATOM     15  C   UNL     1      -6.843  -9.745  17.590  0.00  0.00    +0.140 C 
BRANCH  15   7
ATOM      5  O   UNL     1      -9.564  -8.801  17.758  0.00  0.00    -0.253 OA
ATOM      7  N   UNL     1      -7.631  -9.145  16.522  0.00  0.00    -0.297 N 
ATOM      9  N   UNL     1      -9.453  -8.186  15.524  0.00  0.00    -0.297 N 
ATOM     17  C   UNL     1      -8.938  -8.720  16.702  0.00  0.00    +0.300 C 
ATOM     31  H   UNL     1      -7.195  -9.022  15.614  0.00  0.00    +0.150 HD
ATOM     33  H   UNL     1      -8.884  -8.232  14.683  0.00  0.00    +0.150 HD
BRANCH   9  19
ATOM     19  C   UNL     1     -10.795  -7.666  15.421  0.00  0.00    +0.068 C 
ATOM     21  C   UNL     1     -11.433  -8.103  14.108  0.00  0.00    +0.027 C 
ATOM     22  C   UNL     1     -10.793  -6.148  15.556  0.00  0.00    +0.027 C 
ENDBRANCH   9  19
ENDBRANCH  15   7
ENDBRANCH  13  15
TORSDOF 10
ENDMDL
MODEL 9
REMARK VINA RESULT:      -6.3     26.493     28.813
REMARK  Name = 40777880
REMARK  13 active torsions:
REMARK  status: ('A' for Active; 'I' for Inactive)
REMARK    1  A    between atoms: O_2  and  C_10
REMARK    2  A    between atoms: O_3  and  C_11
REMARK    3  A    between atoms: O_6  and  C_27
REMARK    4  A    between atoms: O_6  and  C_28
REMARK    5  A    between atoms: N_7  and  C_15
REMARK    6  A    between atoms: N_8  and  C_18
REMARK    7  A    between atoms: N_9  and  C_19
REMARK    8  A    between atoms: C_12  and  C_14
REMARK    9  A    between atoms: C_13  and  C_15
REMARK   10  A    between atoms: C_14  and  C_16
REMARK   11  A    between atoms: C_18  and  C_20
REMARK   12  A    between atoms: C_19  and  C_21
REMARK   13  A    between atoms: C_19  and  C_22
REMARK                            x       y       z     vdW  Elec       q    Type
REMARK                         _______ _______ _______ _____ _____    ______ ____
ROOT
ATOM      1  O   UNL     1      -5.117 -11.174  16.150  0.00  0.00    -0.366 OA
ATOM     10  C   UNL     1      -4.209 -11.452  18.309  0.00  0.00    +0.175 C 
ATOM     11  C   UNL     1      -5.637 -11.957  18.336  0.00  0.00    +0.176 C 
ATOM     12  C   UNL     1      -3.892 -11.514  16.825  0.00  0.00    +0.158 C 
ATOM     13  C   UNL     1      -6.220 -11.330  17.073  0.00  0.00    +0.167 C 
ENDROOT
BRANCH  10   2
ATOM      2  O   UNL     1      -3.323 -12.241  19.074  0.00  0.00    -0.387 OA
ATOM     29  H   UNL     1      -3.850 -12.698  19.750  0.00  0.00    +0.210 HD
ENDBRANCH  10   2
BRANCH  11   3
ATOM      3  O   UNL     1      -5.664 -13.375  18.179  0.00  0.00    -0.387 OA
ATOM     30  H   UNL     1      -5.055 -13.752  18.837  0.00  0.00    +0.210 HD
ENDBRANCH  11   3
BRANCH  12  14
ATOM     14  C   UNL     1      -2.793 -10.556  16.402  0.00  0.00    +0.130 C 
BRANCH  14  16
ATOM      4  O   UNL     1      -1.214 -11.771  15.030  0.00  0.00    -0.276 OA
ATOM      8  N   UNL     1      -2.704 -10.304  14.015  0.00  0.00    -0.311 N 
ATOM     16  C   UNL     1      -2.135 -10.962  15.096  0.00  0.00    +0.216 C 
ATOM     32  H   UNL     1      -3.472  -9.659  14.176  0.00  0.00    +0.149 HD
BRANCH   8  18
ATOM     18  C   UNL     1      -2.265 -10.503  12.652  0.00  0.00    +0.139 C 
BRANCH  18  20
ATOM     20  C   UNL     1      -3.306 -10.072  11.660  0.00  0.00    -0.030 A 
ATOM     23  C   UNL     1      -4.658 -10.288  11.927  0.00  0.00    +0.009 A 
ATOM     24  C   UNL     1      -2.920  -9.454  10.470  0.00  0.00    +0.009 A 
ATOM     25  C   UNL     1      -5.624  -9.887  11.004  0.00  0.00    +0.046 A 
ATOM     26  C   UNL     1      -3.886  -9.052   9.548  0.00  0.00    +0.046 A 
ATOM     27  C   UNL     1      -5.238  -9.269   9.815  0.00  0.00    +0.120 A 
BRANCH  27   6
ATOM      6  O   UNL     1      -6.182  -8.877   8.915  0.00  0.00    -0.495 OA
ATOM     28  C   UNL     1      -7.448  -8.478   9.436  0.00  0.00    +0.277 C 
ENDBRANCH  27   6
ENDBRANCH  18  20
ENDBRANCH   8  18
ENDBRANCH  14  16
ENDBRANCH  12  14
BRANCH  13  15
ATOM     15  C   UNL     1      -6.823  -9.954  17.316  0.00  0.00    +0.140 C 
BRANCH  15   7
ATOM      5  O   UNL     1      -9.521 -10.975  17.304  0.00  0.00    -0.253 OA
ATOM      7  N   UNL     1      -7.756  -9.980  18.433  0.00  0.00    -0.297 N 
ATOM      9  N   UNL     1      -9.713 -10.396  19.542  0.00  0.00    -0.297 N 
ATOM     17  C   UNL     1      -9.039 -10.495  18.328  0.00  0.00    +0.300 C 
ATOM     31  H   UNL     1      -7.444  -9.618  19.329  0.00  0.00    +0.150 HD
ATOM     33  H   UNL     1      -9.256  -9.916  20.312  0.00  0.00    +0.150 HD
BRANCH   9  19
ATOM     19  C   UNL     1     -11.070 -10.856  19.723  0.00  0.00    +0.068 C 
ATOM     21  C   UNL     1     -11.880  -9.822  20.495  0.00  0.00    +0.027 C 
ATOM     22  C   UNL     1     -11.088 -12.208  20.425  0.00  0.00    +0.027 C 
ENDBRANCH   9  19
ENDBRANCH  15   7
ENDBRANCH  13  15
TORSDOF 10
ENDMDL
MODEL 10
REMARK VINA RESULT:      -6.2     27.823     29.927
REMARK  Name = 40777880
REMARK  13 active torsions:
REMARK  status: ('A' for Active; 'I' for Inactive)
REMARK    1  A    between atoms: O_2  and  C_10
REMARK    2  A    between atoms: O_3  and  C_11
REMARK    3  A    between atoms: O_6  and  C_27
REMARK    4  A    between atoms: O_6  and  C_28
REMARK    5  A    between atoms: N_7  and  C_15
REMARK    6  A    between atoms: N_8  and  C_18
REMARK    7  A    between atoms: N_9  and  C_19
REMARK    8  A    between atoms: C_12  and  C_14
REMARK    9  A    between atoms: C_13  and  C_15
REMARK   10  A    between atoms: C_14  and  C_16
REMARK   11  A    between atoms: C_18  and  C_20
REMARK   12  A    between atoms: C_19  and  C_21
REMARK   13  A    between atoms: C_19  and  C_22
REMARK                            x       y       z     vdW  Elec       q    Type
REMARK                         _______ _______ _______ _____ _____    ______ ____
ROOT
ATOM      1  O   UNL     1      -5.332 -10.078  17.957  0.00  0.00    -0.366 OA
ATOM     10  C   UNL     1      -5.082 -12.423  17.955  0.00  0.00    +0.175 C 
ATOM     11  C   UNL     1      -4.510 -11.893  16.657  0.00  0.00    +0.176 C 
ATOM     12  C   UNL     1      -5.045 -11.184  18.833  0.00  0.00    +0.158 C 
ATOM     13  C   UNL     1      -5.118 -10.495  16.589  0.00  0.00    +0.167 C 
ENDROOT
BRANCH  10   2
ATOM      2  O   UNL     1      -4.330 -13.484  18.504  0.00  0.00    -0.387 OA
ATOM     29  H   UNL     1      -4.956 -14.093  18.933  0.00  0.00    +0.210 HD
ENDBRANCH  10   2
BRANCH  11   3
ATOM      3  O   UNL     1      -3.094 -11.755  16.759  0.00  0.00    -0.387 OA
ATOM     30  H   UNL     1      -2.704 -12.176  15.973  0.00  0.00    +0.210 HD
ENDBRANCH  11   3
BRANCH  12  14
ATOM     14  C   UNL     1      -6.057 -11.216  19.965  0.00  0.00    +0.130 C 
BRANCH  14  16
ATOM      4  O   UNL     1      -7.761 -12.905  19.658  0.00  0.00    -0.276 OA
ATOM      8  N   UNL     1      -8.179 -10.731  18.950  0.00  0.00    -0.311 N 
ATOM     16  C   UNL     1      -7.411 -11.736  19.521  0.00  0.00    +0.216 C 
ATOM     32  H   UNL     1      -7.800  -9.790  18.893  0.00  0.00    +0.149 HD
BRANCH   8  18
ATOM     18  C   UNL     1      -9.512 -10.952  18.438  0.00  0.00    +0.139 C 
BRANCH  18  20
ATOM     20  C   UNL     1     -10.102  -9.703  17.850  0.00  0.00    -0.030 A 
ATOM     23  C   UNL     1      -9.267  -8.717  17.325  0.00  0.00    +0.009 A 
ATOM     24  C   UNL     1     -11.486  -9.529  17.828  0.00  0.00    +0.009 A 
ATOM     25  C   UNL     1      -9.815  -7.557  16.778  0.00  0.00    +0.046 A 
ATOM     26  C   UNL     1     -12.034  -8.369  17.281  0.00  0.00    +0.046 A 
ATOM     27  C   UNL     1     -11.199  -7.383  16.756  0.00  0.00    +0.120 A 
BRANCH  27   6
ATOM      6  O   UNL     1     -11.733  -6.251  16.221  0.00  0.00    -0.495 OA
ATOM     28  C   UNL     1     -11.585  -6.066  14.814  0.00  0.00    +0.277 C 
ENDBRANCH  27   6
ENDBRANCH  18  20
ENDBRANCH   8  18
ENDBRANCH  14  16
ENDBRANCH  12  14
BRANCH  13  15
ATOM     15  C   UNL     1      -6.463 -10.464  15.877  0.00  0.00    +0.140 C 
BRANCH  15   7
ATOM      5  O   UNL     1      -6.260 -11.229  13.102  0.00  0.00    -0.253 OA
ATOM      7  N   UNL     1      -6.424  -9.577  14.723  0.00  0.00    -0.297 N 
ATOM      9  N   UNL     1      -6.308  -8.985  12.516  0.00  0.00    -0.297 N 
ATOM     17  C   UNL     1      -6.325 -10.042  13.421  0.00  0.00    +0.300 C 
ATOM     31  H   UNL     1      -6.486  -8.576  14.883  0.00  0.00    +0.150 HD
ATOM     33  H   UNL     1      -6.290  -8.036  12.881  0.00  0.00    +0.150 HD
BRANCH   9  19
ATOM     19  C   UNL     1      -6.212  -9.177  11.089  0.00  0.00    +0.068 C 
ATOM     21  C   UNL     1      -5.138  -8.269  10.503  0.00  0.00    +0.027 C 
ATOM     22  C   UNL     1      -7.561  -8.936  10.423  0.00  0.00    +0.027 C 
ENDBRANCH   9  19
ENDBRANCH  15   7
ENDBRANCH  13  15
TORSDOF 10
ENDMDL
