MODEL 1
REMARK VINA RESULT:      -7.1      0.000      0.000
REMARK  Name = 28959937
REMARK  8 active torsions:
REMARK  status: ('A' for Active; 'I' for Inactive)
REMARK    1  A    between atoms: O_3  and  C_21
REMARK    2  A    between atoms: N_6  and  C_14
REMARK    3  A    between atoms: N_7  and  C_23
REMARK    4  A    between atoms: C_8  and  C_12
REMARK    5  A    between atoms: C_9  and  C_15
REMARK    6  A    between atoms: C_12  and  C_14
REMARK    7  A    between atoms: C_15  and  C_21
REMARK    8  A    between atoms: C_20  and  C_22
REMARK                            x       y       z     vdW  Elec       q    Type
REMARK                         _______ _______ _______ _____ _____    ______ ____
ROOT
ATOM      2  O   UNL     1      10.917   7.036  20.821  0.00  0.00    -0.270 OA
ATOM      5  N   UNL     1      11.341   9.309  21.177  0.00  0.00    -0.297 N 
ATOM      8  C   UNL     1      12.844  11.114  21.989  0.00  0.00    +0.011 C 
ATOM      9  C   UNL     1      11.947  11.240  23.247  0.00  0.00    +0.006 C 
ATOM     10  C   UNL     1      12.020  10.560  20.811  0.00  0.00    +0.112 C 
ATOM     11  C   UNL     1      11.222   9.921  23.560  0.00  0.00    +0.023 C 
ATOM     13  C   UNL     1      10.463   9.404  22.341  0.00  0.00    +0.108 C 
ATOM     20  C   UNL     1      11.480   8.086  20.515  0.00  0.00    +0.247 C 
ENDROOT
BRANCH  20  22
ATOM     22  C   UNL     1      12.370   8.029  19.351  0.00  0.00    +0.037 A 
ATOM     24  C   UNL     1      13.634   7.449  19.466  0.00  0.00    +0.013 A 
ATOM     25  C   UNL     1      11.952   8.553  18.128  0.00  0.00    +0.013 A 
ATOM     28  C   UNL     1      14.479   7.394  18.358  0.00  0.00    +0.001 A 
ATOM     29  C   UNL     1      12.797   8.497  17.020  0.00  0.00    +0.001 A 
ATOM     33  C   UNL     1      14.060   7.917  17.135  0.00  0.00    +0.000 A 
ENDBRANCH  20  22
BRANCH   8  12
ATOM     12  C   UNL     1      14.102  10.265  22.205  0.00  0.00    +0.020 C 
BRANCH  12  14
ATOM     14  C   UNL     1      15.344  11.001  21.722  0.00  0.00    +0.085 C 
BRANCH  14   6
ATOM      6  N   UNL     1      16.355  10.039  21.286  0.00  0.00    -0.299 NA
ATOM      7  N   UNL     1      18.351   8.023  21.617  0.00  0.00    -0.327 N 
ATOM     16  C   UNL     1      15.977   8.679  21.685  0.00  0.00    +0.103 C 
ATOM     17  C   UNL     1      17.667  10.380  21.849  0.00  0.00    +0.103 C 
ATOM     18  C   UNL     1      16.999   7.654  21.186  0.00  0.00    +0.120 C 
ATOM     19  C   UNL     1      18.745   9.413  21.354  0.00  0.00    +0.120 C 
BRANCH   7  23
ATOM      1  F   UNL     1      22.324   4.182  21.773  0.00  0.00    -0.205 F 
ATOM     23  C   UNL     1      19.356   7.050  21.657  0.00  0.00    +0.030 A 
ATOM     26  C   UNL     1      19.501   6.153  20.599  0.00  0.00    +0.026 A 
ATOM     27  C   UNL     1      20.215   6.980  22.754  0.00  0.00    +0.026 A 
ATOM     30  C   UNL     1      20.503   5.184  20.638  0.00  0.00    +0.040 A 
ATOM     31  C   UNL     1      21.218   6.010  22.793  0.00  0.00    +0.040 A 
ATOM     32  C   UNL     1      21.361   5.112  21.736  0.00  0.00    +0.124 A 
ENDBRANCH   7  23
ENDBRANCH  14   6
ENDBRANCH  12  14
ENDBRANCH   8  12
BRANCH   9  15
ATOM     15  C   UNL     1      12.704  11.744  24.476  0.00  0.00    +0.124 C 
BRANCH  15  21
ATOM      4  O   UNL     1      10.669  12.910  25.143  0.00  0.00    -0.251 OA
ATOM     21  C   UNL     1      11.825  12.580  25.365  0.00  0.00    +0.305 C 
BRANCH  21   3
ATOM      3  O   UNL     1      12.508  12.931  26.485  0.00  0.00    -0.481 OA
ATOM     34  H   UNL     1      13.425  12.584  26.477  0.00  0.00    +0.295 HD
ENDBRANCH  21   3
ENDBRANCH  15  21
ENDBRANCH   9  15
TORSDOF 8
ENDMDL
MODEL 2
REMARK VINA RESULT:      -7.0     27.637     30.783
REMARK  Name = 28959937
REMARK  8 active torsions:
REMARK  status: ('A' for Active; 'I' for Inactive)
REMARK    1  A    between atoms: O_3  and  C_21
REMARK    2  A    between atoms: N_6  and  C_14
REMARK    3  A    between atoms: N_7  and  C_23
REMARK    4  A    between atoms: C_8  and  C_12
REMARK    5  A    between atoms: C_9  and  C_15
REMARK    6  A    between atoms: C_12  and  C_14
REMARK    7  A    between atoms: C_15  and  C_21
REMARK    8  A    between atoms: C_20  and  C_22
REMARK                            x       y       z     vdW  Elec       q    Type
REMARK                         _______ _______ _______ _____ _____    ______ ____
ROOT
ATOM      2  O   UNL     1      -1.327  -9.911  12.526  0.00  0.00    -0.270 OA
ATOM      5  N   UNL     1      -2.625 -11.299  13.891  0.00  0.00    -0.297 N 
ATOM      8  C   UNL     1      -4.594 -11.626  15.371  0.00  0.00    +0.011 C 
ATOM      9  C   UNL     1      -3.637 -11.579  16.589  0.00  0.00    +0.006 C 
ATOM     10  C   UNL     1      -3.832 -12.106  14.122  0.00  0.00    +0.112 C 
ATOM     11  C   UNL     1      -2.369 -10.764  16.282  0.00  0.00    +0.023 C 
ATOM     13  C   UNL     1      -1.687 -11.262  15.010  0.00  0.00    +0.108 C 
ATOM     20  C   UNL     1      -2.333 -10.591  12.722  0.00  0.00    +0.247 C 
ENDROOT
BRANCH  20  22
ATOM     22  C   UNL     1      -3.299 -10.651  11.619  0.00  0.00    +0.037 A 
ATOM     24  C   UNL     1      -4.184  -9.594  11.408  0.00  0.00    +0.013 A 
ATOM     25  C   UNL     1      -3.330 -11.765  10.781  0.00  0.00    +0.013 A 
ATOM     28  C   UNL     1      -5.101  -9.651  10.358  0.00  0.00    +0.001 A 
ATOM     29  C   UNL     1      -4.247 -11.823   9.732  0.00  0.00    +0.001 A 
ATOM     33  C   UNL     1      -5.132 -10.765   9.520  0.00  0.00    +0.000 A 
ENDBRANCH  20  22
BRANCH   8  12
ATOM     12  C   UNL     1      -5.301 -10.295  15.085  0.00  0.00    +0.020 C 
BRANCH  12  14
ATOM     14  C   UNL     1      -6.771 -10.520  14.757  0.00  0.00    +0.085 C 
BRANCH  14   6
ATOM      6  N   UNL     1      -7.602 -10.095  15.883  0.00  0.00    -0.299 NA
ATOM      7  N   UNL     1      -9.937 -10.047  17.528  0.00  0.00    -0.327 N 
ATOM     16  C   UNL     1      -7.930 -11.239  16.741  0.00  0.00    +0.103 C 
ATOM     17  C   UNL     1      -8.836  -9.462  15.401  0.00  0.00    +0.103 C 
ATOM     18  C   UNL     1      -8.753 -10.799  17.955  0.00  0.00    +0.120 C 
ATOM     19  C   UNL     1      -9.688  -8.961  16.570  0.00  0.00    +0.120 C 
BRANCH   7  23
ATOM      1  F   UNL     1     -14.255  -9.556  20.945  0.00  0.00    -0.205 F 
ATOM     23  C   UNL     1     -11.030  -9.923  18.393  0.00  0.00    +0.030 A 
ATOM     26  C   UNL     1     -10.847 -10.048  19.770  0.00  0.00    +0.026 A 
ATOM     27  C   UNL     1     -12.301  -9.672  17.877  0.00  0.00    +0.026 A 
ATOM     30  C   UNL     1     -11.936  -9.924  20.632  0.00  0.00    +0.040 A 
ATOM     31  C   UNL     1     -13.391  -9.549  18.740  0.00  0.00    +0.040 A 
ATOM     32  C   UNL     1     -13.209  -9.675  20.117  0.00  0.00    +0.124 A 
ENDBRANCH   7  23
ENDBRANCH  14   6
ENDBRANCH  12  14
ENDBRANCH   8  12
BRANCH   9  15
ATOM     15  C   UNL     1      -4.310 -11.069  17.863  0.00  0.00    +0.124 C 
BRANCH  15  21
ATOM      4  O   UNL     1      -3.354 -12.172  19.816  0.00  0.00    -0.251 OA
ATOM     21  C   UNL     1      -4.234 -12.081  18.974  0.00  0.00    +0.305 C 
BRANCH  21   3
ATOM      3  O   UNL     1      -5.311 -12.907  18.914  0.00  0.00    -0.481 OA
ATOM     34  H   UNL     1      -5.170 -13.728  19.432  0.00  0.00    +0.295 HD
ENDBRANCH  21   3
ENDBRANCH  15  21
ENDBRANCH   9  15
TORSDOF 8
ENDMDL
MODEL 3
REMARK VINA RESULT:      -6.8      1.824      4.841
REMARK  Name = 28959937
REMARK  8 active torsions:
REMARK  status: ('A' for Active; 'I' for Inactive)
REMARK    1  A    between atoms: O_3  and  C_21
REMARK    2  A    between atoms: N_6  and  C_14
REMARK    3  A    between atoms: N_7  and  C_23
REMARK    4  A    between atoms: C_8  and  C_12
REMARK    5  A    between atoms: C_9  and  C_15
REMARK    6  A    between atoms: C_12  and  C_14
REMARK    7  A    between atoms: C_15  and  C_21
REMARK    8  A    between atoms: C_20  and  C_22
REMARK                            x       y       z     vdW  Elec       q    Type
REMARK                         _______ _______ _______ _____ _____    ______ ____
ROOT
ATOM      2  O   UNL     1      11.866  13.562  23.206  0.00  0.00    -0.270 OA
ATOM      5  N   UNL     1      12.466  11.311  22.978  0.00  0.00    -0.297 N 
ATOM      8  C   UNL     1      12.940   9.350  21.528  0.00  0.00    +0.011 C 
ATOM      9  C   UNL     1      11.549   8.782  21.910  0.00  0.00    +0.006 C 
ATOM     10  C   UNL     1      13.454  10.274  22.647  0.00  0.00    +0.112 C 
ATOM     11  C   UNL     1      10.566   9.901  22.293  0.00  0.00    +0.023 C 
ATOM     13  C   UNL     1      11.153  10.806  23.373  0.00  0.00    +0.108 C 
ATOM     20  C   UNL     1      12.690  12.690  22.935  0.00  0.00    +0.247 C 
ENDROOT
BRANCH  20  22
ATOM     22  C   UNL     1      14.021  13.161  22.534  0.00  0.00    +0.037 A 
ATOM     24  C   UNL     1      14.304  13.389  21.188  0.00  0.00    +0.013 A 
ATOM     25  C   UNL     1      15.003  13.380  23.500  0.00  0.00    +0.013 A 
ATOM     28  C   UNL     1      15.569  13.838  20.807  0.00  0.00    +0.001 A 
ATOM     29  C   UNL     1      16.267  13.828  23.120  0.00  0.00    +0.001 A 
ATOM     33  C   UNL     1      16.550  14.058  21.773  0.00  0.00    +0.000 A 
ENDBRANCH  20  22
BRANCH   8  12
ATOM     12  C   UNL     1      12.965  10.080  20.180  0.00  0.00    +0.020 C 
BRANCH  12  14
ATOM     14  C   UNL     1      13.998   9.463  19.247  0.00  0.00    +0.085 C 
BRANCH  14   6
ATOM      6  N   UNL     1      14.964   8.684  20.020  0.00  0.00    -0.299 NA
ATOM      7  N   UNL     1      17.457   7.384  20.526  0.00  0.00    -0.327 N 
ATOM     16  C   UNL     1      16.176   9.473  20.273  0.00  0.00    +0.103 C 
ATOM     17  C   UNL     1      15.312   7.446  19.312  0.00  0.00    +0.103 C 
ATOM     18  C   UNL     1      17.174   8.690  21.130  0.00  0.00    +0.120 C 
ATOM     19  C   UNL     1      16.280   6.595  20.137  0.00  0.00    +0.120 C 
BRANCH   7  23
ATOM      1  F   UNL     1      22.066   4.663  21.911  0.00  0.00    -0.205 F 
ATOM     23  C   UNL     1      18.624   6.696  20.877  0.00  0.00    +0.030 A 
ATOM     26  C   UNL     1      19.339   7.069  22.014  0.00  0.00    +0.026 A 
ATOM     27  C   UNL     1      19.070   5.635  20.088  0.00  0.00    +0.026 A 
ATOM     30  C   UNL     1      20.502   6.383  22.363  0.00  0.00    +0.040 A 
ATOM     31  C   UNL     1      20.234   4.948  20.437  0.00  0.00    +0.040 A 
ATOM     32  C   UNL     1      20.949   5.323  21.575  0.00  0.00    +0.124 A 
ENDBRANCH   7  23
ENDBRANCH  14   6
ENDBRANCH  12  14
ENDBRANCH   8  12
BRANCH   9  15
ATOM     15  C   UNL     1      10.948   7.885  20.827  0.00  0.00    +0.124 C 
BRANCH  15  21
ATOM      4  O   UNL     1      11.440   5.722  21.837  0.00  0.00    -0.251 OA
ATOM     21  C   UNL     1      11.507   6.490  20.889  0.00  0.00    +0.305 C 
BRANCH  21   3
ATOM      3  O   UNL     1      12.115   6.188  19.713  0.00  0.00    -0.481 OA
ATOM     34  H   UNL     1      12.945   6.696  19.589  0.00  0.00    +0.295 HD
ENDBRANCH  21   3
ENDBRANCH  15  21
ENDBRANCH   9  15
TORSDOF 8
ENDMDL
MODEL 4
REMARK VINA RESULT:      -6.7     26.656     28.289
REMARK  Name = 28959937
REMARK  8 active torsions:
REMARK  status: ('A' for Active; 'I' for Inactive)
REMARK    1  A    between atoms: O_3  and  C_21
REMARK    2  A    between atoms: N_6  and  C_14
REMARK    3  A    between atoms: N_7  and  C_23
REMARK    4  A    between atoms: C_8  and  C_12
REMARK    5  A    between atoms: C_9  and  C_15
REMARK    6  A    between atoms: C_12  and  C_14
REMARK    7  A    between atoms: C_15  and  C_21
REMARK    8  A    between atoms: C_20  and  C_22
REMARK                            x       y       z     vdW  Elec       q    Type
REMARK                         _______ _______ _______ _____ _____    ______ ____
ROOT
ATOM      2  O   UNL     1      -9.709   9.216  17.802  0.00  0.00    -0.270 OA
ATOM      5  N   UNL     1     -11.826   8.515  18.513  0.00  0.00    -0.297 N 
ATOM      8  C   UNL     1     -13.595   8.451  20.256  0.00  0.00    +0.011 C 
ATOM      9  C   UNL     1     -13.174   6.993  20.574  0.00  0.00    +0.006 C 
ATOM     10  C   UNL     1     -13.241   8.793  18.797  0.00  0.00    +0.112 C 
ATOM     11  C   UNL     1     -11.700   6.740  20.216  0.00  0.00    +0.023 C 
ATOM     13  C   UNL     1     -11.405   7.140  18.772  0.00  0.00    +0.108 C 
ATOM     20  C   UNL     1     -10.895   9.443  18.037  0.00  0.00    +0.247 C 
ENDROOT
BRANCH  20  22
ATOM     22  C   UNL     1     -11.353  10.814  17.787  0.00  0.00    +0.037 A 
ATOM     24  C   UNL     1     -11.316  11.760  18.812  0.00  0.00    +0.013 A 
ATOM     25  C   UNL     1     -11.826  11.172  16.525  0.00  0.00    +0.013 A 
ATOM     28  C   UNL     1     -11.751  13.064  18.574  0.00  0.00    +0.001 A 
ATOM     29  C   UNL     1     -12.261  12.475  16.287  0.00  0.00    +0.001 A 
ATOM     33  C   UNL     1     -12.223  13.421  17.312  0.00  0.00    +0.000 A 
ENDBRANCH  20  22
BRANCH   8  12
ATOM     12  C   UNL     1     -12.997   9.493  21.208  0.00  0.00    +0.020 C 
BRANCH  12  14
ATOM     14  C   UNL     1     -14.019  10.570  21.546  0.00  0.00    +0.085 C 
BRANCH  14   6
ATOM      6  N   UNL     1     -13.785  11.069  22.901  0.00  0.00    -0.299 NA
ATOM      7  N   UNL     1     -12.649  11.066  25.521  0.00  0.00    -0.327 N 
ATOM     16  C   UNL     1     -12.365  11.385  23.095  0.00  0.00    +0.103 C 
ATOM     17  C   UNL     1     -14.219  10.081  23.896  0.00  0.00    +0.103 C 
ATOM     18  C   UNL     1     -12.116  11.963  24.491  0.00  0.00    +0.120 C 
ATOM     19  C   UNL     1     -14.033  10.616  25.318  0.00  0.00    +0.120 C 
BRANCH   7  23
ATOM      1  F   UNL     1     -10.772  11.428  30.709  0.00  0.00    -0.205 F 
ATOM     23  C   UNL     1     -12.174  11.158  26.835  0.00  0.00    +0.030 A 
ATOM     26  C   UNL     1     -11.754  10.010  27.506  0.00  0.00    +0.026 A 
ATOM     27  C   UNL     1     -12.120  12.398  27.471  0.00  0.00    +0.026 A 
ATOM     30  C   UNL     1     -11.280  10.101  28.814  0.00  0.00    +0.040 A 
ATOM     31  C   UNL     1     -11.647  12.489  28.781  0.00  0.00    +0.040 A 
ATOM     32  C   UNL     1     -11.227  11.341  29.452  0.00  0.00    +0.124 A 
ENDBRANCH   7  23
ENDBRANCH  14   6
ENDBRANCH  12  14
ENDBRANCH   8  12
BRANCH   9  15
ATOM     15  C   UNL     1     -13.453   6.589  22.022  0.00  0.00    +0.124 C 
BRANCH  15  21
ATOM      4  O   UNL     1     -14.659   4.478  21.835  0.00  0.00    -0.251 OA
ATOM     21  C   UNL     1     -13.659   5.105  22.153  0.00  0.00    +0.305 C 
BRANCH  21   3
ATOM      3  O   UNL     1     -12.550   4.535  22.691  0.00  0.00    -0.481 OA
ATOM     34  H   UNL     1     -11.727   4.954  22.359  0.00  0.00    +0.295 HD
ENDBRANCH  21   3
ENDBRANCH  15  21
ENDBRANCH   9  15
TORSDOF 8
ENDMDL
MODEL 5
REMARK VINA RESULT:      -6.6     29.233     32.392
REMARK  Name = 28959937
REMARK  8 active torsions:
REMARK  status: ('A' for Active; 'I' for Inactive)
REMARK    1  A    between atoms: O_3  and  C_21
REMARK    2  A    between atoms: N_6  and  C_14
REMARK    3  A    between atoms: N_7  and  C_23
REMARK    4  A    between atoms: C_8  and  C_12
REMARK    5  A    between atoms: C_9  and  C_15
REMARK    6  A    between atoms: C_12  and  C_14
REMARK    7  A    between atoms: C_15  and  C_21
REMARK    8  A    between atoms: C_20  and  C_22
REMARK                            x       y       z     vdW  Elec       q    Type
REMARK                         _______ _______ _______ _____ _____    ______ ____
ROOT
ATOM      2  O   UNL     1      -6.684 -11.689  20.332  0.00  0.00    -0.270 OA
ATOM      5  N   UNL     1      -8.554 -11.831  18.932  0.00  0.00    -0.297 N 
ATOM      8  C   UNL     1     -10.248 -10.725  17.490  0.00  0.00    +0.011 C 
ATOM      9  C   UNL     1     -11.280 -10.904  18.633  0.00  0.00    +0.006 C 
ATOM     10  C   UNL     1      -9.158 -11.808  17.593  0.00  0.00    +0.112 C 
ATOM     11  C   UNL     1     -10.596 -10.970  20.008  0.00  0.00    +0.023 C 
ATOM     13  C   UNL     1      -9.498 -12.031  20.029  0.00  0.00    +0.108 C 
ATOM     20  C   UNL     1      -7.194 -11.675  19.213  0.00  0.00    +0.247 C 
ENDROOT
BRANCH  20  22
ATOM     22  C   UNL     1      -6.275 -11.477  18.087  0.00  0.00    +0.037 A 
ATOM     24  C   UNL     1      -5.608 -12.567  17.529  0.00  0.00    +0.013 A 
ATOM     25  C   UNL     1      -6.070 -10.197  17.572  0.00  0.00    +0.013 A 
ATOM     28  C   UNL     1      -4.736 -12.379  16.457  0.00  0.00    +0.001 A 
ATOM     29  C   UNL     1      -5.198 -10.007  16.500  0.00  0.00    +0.001 A 
ATOM     33  C   UNL     1      -4.532 -11.099  15.943  0.00  0.00    +0.000 A 
ENDBRANCH  20  22
BRANCH   8  12
ATOM     12  C   UNL     1      -9.611  -9.331  17.441  0.00  0.00    +0.020 C 
BRANCH  12  14
ATOM     14  C   UNL     1      -9.445  -8.860  16.003  0.00  0.00    +0.085 C 
BRANCH  14   6
ATOM      6  N   UNL     1     -10.610  -8.073  15.600  0.00  0.00    -0.299 NA
ATOM      7  N   UNL     1     -12.048  -6.147  14.057  0.00  0.00    -0.327 N 
ATOM     16  C   UNL     1     -10.962  -8.353  14.203  0.00  0.00    +0.103 C 
ATOM     17  C   UNL     1     -10.347  -6.639  15.772  0.00  0.00    +0.103 C 
ATOM     18  C   UNL     1     -12.214  -7.577  13.784  0.00  0.00    +0.120 C 
ATOM     19  C   UNL     1     -11.579  -5.807  15.407  0.00  0.00    +0.120 C 
BRANCH   7  23
ATOM      1  F   UNL     1     -15.205  -2.465  11.403  0.00  0.00    -0.205 F 
ATOM     23  C   UNL     1     -12.848  -5.215  13.385  0.00  0.00    +0.030 A 
ATOM     26  C   UNL     1     -14.233  -5.245  13.539  0.00  0.00    +0.026 A 
ATOM     27  C   UNL     1     -12.257  -4.255  12.562  0.00  0.00    +0.026 A 
ATOM     30  C   UNL     1     -15.030  -4.317  12.869  0.00  0.00    +0.040 A 
ATOM     31  C   UNL     1     -13.054  -3.327  11.892  0.00  0.00    +0.040 A 
ATOM     32  C   UNL     1     -14.440  -3.357  12.045  0.00  0.00    +0.124 A 
ENDBRANCH   7  23
ENDBRANCH  14   6
ENDBRANCH  12  14
ENDBRANCH   8  12
BRANCH   9  15
ATOM     15  C   UNL     1     -12.375  -9.837  18.627  0.00  0.00    +0.124 C 
BRANCH  15  21
ATOM      4  O   UNL     1     -13.720 -10.884  16.884  0.00  0.00    -0.251 OA
ATOM     21  C   UNL     1     -13.196  -9.892  17.368  0.00  0.00    +0.305 C 
BRANCH  21   3
ATOM      3  O   UNL     1     -13.281  -8.651  16.822  0.00  0.00    -0.481 OA
ATOM     34  H   UNL     1     -13.930  -8.619  16.087  0.00  0.00    +0.295 HD
ENDBRANCH  21   3
ENDBRANCH  15  21
ENDBRANCH   9  15
TORSDOF 8
ENDMDL
MODEL 6
REMARK VINA RESULT:      -6.5     27.525     30.525
REMARK  Name = 28959937
REMARK  8 active torsions:
REMARK  status: ('A' for Active; 'I' for Inactive)
REMARK    1  A    between atoms: O_3  and  C_21
REMARK    2  A    between atoms: N_6  and  C_14
REMARK    3  A    between atoms: N_7  and  C_23
REMARK    4  A    between atoms: C_8  and  C_12
REMARK    5  A    between atoms: C_9  and  C_15
REMARK    6  A    between atoms: C_12  and  C_14
REMARK    7  A    between atoms: C_15  and  C_21
REMARK    8  A    between atoms: C_20  and  C_22
REMARK                            x       y       z     vdW  Elec       q    Type
REMARK                         _______ _______ _______ _____ _____    ______ ____
ROOT
ATOM      2  O   UNL     1      -8.866 -11.647  17.822  0.00  0.00    -0.270 OA
ATOM      5  N   UNL     1      -6.852 -10.564  17.330  0.00  0.00    -0.297 N 
ATOM      8  C   UNL     1      -5.069  -9.977  15.702  0.00  0.00    +0.011 C 
ATOM      9  C   UNL     1      -4.158 -11.034  16.378  0.00  0.00    +0.006 C 
ATOM     10  C   UNL     1      -6.108  -9.457  16.711  0.00  0.00    +0.112 C 
ATOM     11  C   UNL     1      -4.983 -12.144  17.051  0.00  0.00    +0.023 C 
ATOM     13  C   UNL     1      -6.022 -11.560  18.004  0.00  0.00    +0.108 C 
ATOM     20  C   UNL     1      -8.240 -10.721  17.310  0.00  0.00    +0.247 C 
ENDROOT
BRANCH  20  22
ATOM     22  C   UNL     1      -9.040  -9.700  16.624  0.00  0.00    +0.037 A 
ATOM     24  C   UNL     1      -9.315  -9.828  15.263  0.00  0.00    +0.013 A 
ATOM     25  C   UNL     1      -9.527  -8.603  17.334  0.00  0.00    +0.013 A 
ATOM     28  C   UNL     1     -10.078  -8.858  14.611  0.00  0.00    +0.001 A 
ATOM     29  C   UNL     1     -10.289  -7.633  16.683  0.00  0.00    +0.001 A 
ATOM     33  C   UNL     1     -10.564  -7.761  15.321  0.00  0.00    +0.000 A 
ENDBRANCH  20  22
BRANCH   8  12
ATOM     12  C   UNL     1      -5.765 -10.479  14.430  0.00  0.00    +0.020 C 
BRANCH  12  14
ATOM     14  C   UNL     1      -4.842 -10.369  13.225  0.00  0.00    +0.085 C 
BRANCH  14   6
ATOM      6  N   UNL     1      -5.444  -9.500  12.215  0.00  0.00    -0.299 NA
ATOM      7  N   UNL     1      -6.603  -8.858   9.684  0.00  0.00    -0.327 N 
ATOM     16  C   UNL     1      -6.795  -9.962  11.878  0.00  0.00    +0.103 C 
ATOM     17  C   UNL     1      -4.612  -9.464  11.006  0.00  0.00    +0.103 C 
ATOM     18  C   UNL     1      -7.460  -9.029  10.862  0.00  0.00    +0.120 C 
ATOM     19  C   UNL     1      -5.203  -8.513   9.962  0.00  0.00    +0.120 C 
BRANCH   7  23
ATOM      1  F   UNL     1      -8.810  -7.134   4.918  0.00  0.00    -0.205 F 
ATOM     23  C   UNL     1      -7.162  -8.422   8.478  0.00  0.00    +0.030 A 
ATOM     26  C   UNL     1      -6.870  -9.093   7.291  0.00  0.00    +0.026 A 
ATOM     27  C   UNL     1      -8.012  -7.316   8.463  0.00  0.00    +0.026 A 
ATOM     30  C   UNL     1      -7.426  -8.658   6.089  0.00  0.00    +0.040 A 
ATOM     31  C   UNL     1      -8.569  -6.880   7.260  0.00  0.00    +0.040 A 
ATOM     32  C   UNL     1      -8.276  -7.551   6.073  0.00  0.00    +0.124 A 
ENDBRANCH   7  23
ENDBRANCH  14   6
ENDBRANCH  12  14
ENDBRANCH   8  12
BRANCH   9  15
ATOM     15  C   UNL     1      -3.123 -11.634  15.426  0.00  0.00    +0.124 C 
BRANCH  15  21
ATOM      4  O   UNL     1      -1.487 -10.086  14.493  0.00  0.00    -0.251 OA
ATOM     21  C   UNL     1      -1.859 -10.819  15.396  0.00  0.00    +0.305 C 
BRANCH  21   3
ATOM      3  O   UNL     1      -1.163 -11.013  16.546  0.00  0.00    -0.481 OA
ATOM     34  H   UNL     1      -1.446 -11.830  17.011  0.00  0.00    +0.295 HD
ENDBRANCH  21   3
ENDBRANCH  15  21
ENDBRANCH   9  15
TORSDOF 8
ENDMDL
MODEL 7
REMARK VINA RESULT:      -6.5     27.694     30.546
REMARK  Name = 28959937
REMARK  8 active torsions:
REMARK  status: ('A' for Active; 'I' for Inactive)
REMARK    1  A    between atoms: O_3  and  C_21
REMARK    2  A    between atoms: N_6  and  C_14
REMARK    3  A    between atoms: N_7  and  C_23
REMARK    4  A    between atoms: C_8  and  C_12
REMARK    5  A    between atoms: C_9  and  C_15
REMARK    6  A    between atoms: C_12  and  C_14
REMARK    7  A    between atoms: C_15  and  C_21
REMARK    8  A    between atoms: C_20  and  C_22
REMARK                            x       y       z     vdW  Elec       q    Type
REMARK                         _______ _______ _______ _____ _____    ______ ____
ROOT
ATOM      2  O   UNL     1      -9.073 -10.942  18.655  0.00  0.00    -0.270 OA
ATOM      5  N   UNL     1      -7.109 -10.055  17.745  0.00  0.00    -0.297 N 
ATOM      8  C   UNL     1      -5.448  -9.956  15.899  0.00  0.00    +0.011 C 
ATOM      9  C   UNL     1      -4.483 -10.794  16.776  0.00  0.00    +0.006 C 
ATOM     10  C   UNL     1      -6.421  -9.168  16.795  0.00  0.00    +0.112 C 
ATOM     11  C   UNL     1      -5.248 -11.668  17.784  0.00  0.00    +0.023 C 
ATOM     13  C   UNL     1      -6.225 -10.834  18.609  0.00  0.00    +0.108 C 
ATOM     20  C   UNL     1      -8.494 -10.198  17.865  0.00  0.00    +0.247 C 
ENDROOT
BRANCH  20  22
ATOM     22  C   UNL     1      -9.350  -9.400  16.981  0.00  0.00    +0.037 A 
ATOM     24  C   UNL     1      -9.702  -8.098  17.339  0.00  0.00    +0.013 A 
ATOM     25  C   UNL     1      -9.811  -9.942  15.782  0.00  0.00    +0.013 A 
ATOM     28  C   UNL     1     -10.515  -7.338  16.498  0.00  0.00    +0.001 A 
ATOM     29  C   UNL     1     -10.624  -9.183  14.940  0.00  0.00    +0.001 A 
ATOM     33  C   UNL     1     -10.975  -7.881  15.299  0.00  0.00    +0.000 A 
ENDBRANCH  20  22
BRANCH   8  12
ATOM     12  C   UNL     1      -6.225 -10.783  14.867  0.00  0.00    +0.020 C 
BRANCH  12  14
ATOM     14  C   UNL     1      -6.754  -9.896  13.748  0.00  0.00    +0.085 C 
BRANCH  14   6
ATOM      6  N   UNL     1      -6.028 -10.174  12.508  0.00  0.00    -0.299 NA
ATOM      7  N   UNL     1      -5.736 -10.622   9.703  0.00  0.00    -0.327 N 
ATOM     16  C   UNL     1      -6.190  -9.067  11.559  0.00  0.00    +0.103 C 
ATOM     17  C   UNL     1      -6.502 -11.425  11.904  0.00  0.00    +0.103 C 
ATOM     18  C   UNL     1      -5.390  -9.319  10.278  0.00  0.00    +0.120 C 
ATOM     19  C   UNL     1      -5.711 -11.756  10.636  0.00  0.00    +0.120 C 
BRANCH   7  23
ATOM      1  F   UNL     1      -4.696 -11.626   4.366  0.00  0.00    -0.205 F 
ATOM     23  C   UNL     1      -5.473 -10.876   8.352  0.00  0.00    +0.030 A 
ATOM     26  C   UNL     1      -6.108 -10.124   7.364  0.00  0.00    +0.026 A 
ATOM     27  C   UNL     1      -4.574 -11.881   7.994  0.00  0.00    +0.026 A 
ATOM     30  C   UNL     1      -5.846 -10.378   6.018  0.00  0.00    +0.040 A 
ATOM     31  C   UNL     1      -4.312 -12.135   6.648  0.00  0.00    +0.040 A 
ATOM     32  C   UNL     1      -4.948 -11.383   5.659  0.00  0.00    +0.124 A 
ENDBRANCH   7  23
ENDBRANCH  14   6
ENDBRANCH  12  14
ENDBRANCH   8  12
BRANCH   9  15
ATOM     15  C   UNL     1      -3.510 -11.642  15.957  0.00  0.00    +0.124 C 
BRANCH  15  21
ATOM      4  O   UNL     1      -1.913 -10.308  14.686  0.00  0.00    -0.251 OA
ATOM     21  C   UNL     1      -2.218 -10.914  15.702  0.00  0.00    +0.305 C 
BRANCH  21   3
ATOM      3  O   UNL     1      -1.409 -11.024  16.788  0.00  0.00    -0.481 OA
ATOM     34  H   UNL     1      -1.090 -11.942  16.914  0.00  0.00    +0.295 HD
ENDBRANCH  21   3
ENDBRANCH  15  21
ENDBRANCH   9  15
TORSDOF 8
ENDMDL
MODEL 8
REMARK VINA RESULT:      -6.4     28.829     30.686
REMARK  Name = 28959937
REMARK  8 active torsions:
REMARK  status: ('A' for Active; 'I' for Inactive)
REMARK    1  A    between atoms: O_3  and  C_21
REMARK    2  A    between atoms: N_6  and  C_14
REMARK    3  A    between atoms: N_7  and  C_23
REMARK    4  A    between atoms: C_8  and  C_12
REMARK    5  A    between atoms: C_9  and  C_15
REMARK    6  A    between atoms: C_12  and  C_14
REMARK    7  A    between atoms: C_15  and  C_21
REMARK    8  A    between atoms: C_20  and  C_22
REMARK                            x       y       z     vdW  Elec       q    Type
REMARK                         _______ _______ _______ _____ _____    ______ ____
ROOT
ATOM      2  O   UNL     1     -11.052 -11.310  18.029  0.00  0.00    -0.270 OA
ATOM      5  N   UNL     1      -8.840 -10.747  18.546  0.00  0.00    -0.297 N 
ATOM      8  C   UNL     1      -6.440 -10.656  17.909  0.00  0.00    +0.011 C 
ATOM      9  C   UNL     1      -6.188 -11.871  18.839  0.00  0.00    +0.006 C 
ATOM     10  C   UNL     1      -7.671  -9.869  18.395  0.00  0.00    +0.112 C 
ATOM     11  C   UNL     1      -7.452 -12.731  19.002  0.00  0.00    +0.023 C 
ATOM     13  C   UNL     1      -8.643 -11.884  19.443  0.00  0.00    +0.108 C 
ATOM     20  C   UNL     1     -10.072 -10.576  17.910  0.00  0.00    +0.247 C 
ENDROOT
BRANCH  20  22
ATOM     22  C   UNL     1     -10.233  -9.423  17.017  0.00  0.00    +0.037 A 
ATOM     24  C   UNL     1     -10.672  -8.201  17.526  0.00  0.00    +0.013 A 
ATOM     25  C   UNL     1      -9.946  -9.549  15.658  0.00  0.00    +0.013 A 
ATOM     28  C   UNL     1     -10.823  -7.104  16.678  0.00  0.00    +0.001 A 
ATOM     29  C   UNL     1     -10.097  -8.453  14.809  0.00  0.00    +0.001 A 
ATOM     33  C   UNL     1     -10.535  -7.231  15.319  0.00  0.00    +0.000 A 
ENDBRANCH  20  22
BRANCH   8  12
ATOM     12  C   UNL     1      -6.596 -11.028  16.429  0.00  0.00    +0.020 C 
BRANCH  12  14
ATOM     14  C   UNL     1      -5.520 -10.361  15.584  0.00  0.00    +0.085 C 
BRANCH  14   6
ATOM      6  N   UNL     1      -5.717 -10.694  14.174  0.00  0.00    -0.299 NA
ATOM      7  N   UNL     1      -5.711 -10.219  11.357  0.00  0.00    -0.327 N 
ATOM     16  C   UNL     1      -4.450 -10.595  13.440  0.00  0.00    +0.103 C 
ATOM     17  C   UNL     1      -6.716  -9.804  13.570  0.00  0.00    +0.103 C 
ATOM     18  C   UNL     1      -4.630 -10.995  11.973  0.00  0.00    +0.120 C 
ATOM     19  C   UNL     1      -6.973 -10.179  12.108  0.00  0.00    +0.120 C 
BRANCH   7  23
ATOM      1  F   UNL     1      -5.945  -9.733   5.855  0.00  0.00    -0.205 F 
ATOM     23  C   UNL     1      -5.770 -10.096   9.965  0.00  0.00    +0.030 A 
ATOM     26  C   UNL     1      -6.806  -9.375   9.372  0.00  0.00    +0.026 A 
ATOM     27  C   UNL     1      -4.792 -10.695   9.170  0.00  0.00    +0.026 A 
ATOM     30  C   UNL     1      -6.865  -9.252   7.984  0.00  0.00    +0.040 A 
ATOM     31  C   UNL     1      -4.851 -10.573   7.781  0.00  0.00    +0.040 A 
ATOM     32  C   UNL     1      -5.888  -9.851   7.188  0.00  0.00    +0.124 A 
ENDBRANCH   7  23
ENDBRANCH  14   6
ENDBRANCH  12  14
ENDBRANCH   8  12
BRANCH   9  15
ATOM     15  C   UNL     1      -5.004 -12.731  18.396  0.00  0.00    +0.124 C 
BRANCH  15  21
ATOM      4  O   UNL     1      -3.255 -12.193  20.006  0.00  0.00    -0.251 OA
ATOM     21  C   UNL     1      -3.695 -12.159  18.867  0.00  0.00    +0.305 C 
BRANCH  21   3
ATOM      3  O   UNL     1      -3.047 -11.580  17.823  0.00  0.00    -0.481 OA
ATOM     34  H   UNL     1      -3.602 -10.905  17.378  0.00  0.00    +0.295 HD
ENDBRANCH  21   3
ENDBRANCH  15  21
ENDBRANCH   9  15
TORSDOF 8
ENDMDL
MODEL 9
REMARK VINA RESULT:      -6.3     15.912     19.963
REMARK  Name = 28959937
REMARK  8 active torsions:
REMARK  status: ('A' for Active; 'I' for Inactive)
REMARK    1  A    between atoms: O_3  and  C_21
REMARK    2  A    between atoms: N_6  and  C_14
REMARK    3  A    between atoms: N_7  and  C_23
REMARK    4  A    between atoms: C_8  and  C_12
REMARK    5  A    between atoms: C_9  and  C_15
REMARK    6  A    between atoms: C_12  and  C_14
REMARK    7  A    between atoms: C_15  and  C_21
REMARK    8  A    between atoms: C_20  and  C_22
REMARK                            x       y       z     vdW  Elec       q    Type
REMARK                         _______ _______ _______ _____ _____    ______ ____
ROOT
ATOM      2  O   UNL     1      12.114  10.821   5.188  0.00  0.00    -0.270 OA
ATOM      5  N   UNL     1      12.220   8.692   6.153  0.00  0.00    -0.297 N 
ATOM      8  C   UNL     1      11.453   6.330   6.240  0.00  0.00    +0.011 C 
ATOM      9  C   UNL     1      10.615   6.690   7.494  0.00  0.00    +0.006 C 
ATOM     10  C   UNL     1      12.653   7.288   6.118  0.00  0.00    +0.112 C 
ATOM     11  C   UNL     1      10.229   8.178   7.508  0.00  0.00    +0.023 C 
ATOM     13  C   UNL     1      11.456   9.070   7.340  0.00  0.00    +0.108 C 
ATOM     20  C   UNL     1      12.477   9.646   5.165  0.00  0.00    +0.247 C 
ENDROOT
BRANCH  20  22
ATOM     22  C   UNL     1      13.248   9.230   3.988  0.00  0.00    +0.037 A 
ATOM     24  C   UNL     1      12.593   8.704   2.875  0.00  0.00    +0.013 A 
ATOM     25  C   UNL     1      14.637   9.362   3.982  0.00  0.00    +0.013 A 
ATOM     28  C   UNL     1      13.326   8.310   1.755  0.00  0.00    +0.001 A 
ATOM     29  C   UNL     1      15.370   8.968   2.864  0.00  0.00    +0.001 A 
ATOM     33  C   UNL     1      14.714   8.443   1.750  0.00  0.00    +0.000 A 
ENDBRANCH  20  22
BRANCH   8  12
ATOM     12  C   UNL     1      10.646   6.318   4.936  0.00  0.00    +0.020 C 
BRANCH  12  14
ATOM     14  C   UNL     1      10.569   4.913   4.357  0.00  0.00    +0.085 C 
BRANCH  14   6
ATOM      6  N   UNL     1      11.105   4.906   2.996  0.00  0.00    -0.299 NA
ATOM      7  N   UNL     1      11.177   4.215   0.225  0.00  0.00    -0.327 N 
ATOM     16  C   UNL     1      10.139   5.491   2.059  0.00  0.00    +0.103 C 
ATOM     17  C   UNL     1      11.439   3.538   2.581  0.00  0.00    +0.103 C 
ATOM     18  C   UNL     1      10.709   5.541   0.639  0.00  0.00    +0.120 C 
ATOM     19  C   UNL     1      12.054   3.523   1.180  0.00  0.00    +0.120 C 
BRANCH   7  23
ATOM      1  F   UNL     1      11.778   3.073  -5.151  0.00  0.00    -0.205 F 
ATOM     23  C   UNL     1      11.329   3.926  -1.135  0.00  0.00    +0.030 A 
ATOM     26  C   UNL     1      10.523   4.564  -2.078  0.00  0.00    +0.026 A 
ATOM     27  C   UNL     1      12.288   3.000  -1.548  0.00  0.00    +0.026 A 
ATOM     30  C   UNL     1      10.674   4.275  -3.434  0.00  0.00    +0.040 A 
ATOM     31  C   UNL     1      12.439   2.712  -2.905  0.00  0.00    +0.040 A 
ATOM     32  C   UNL     1      11.632   3.349  -3.848  0.00  0.00    +0.124 A 
ENDBRANCH   7  23
ENDBRANCH  14   6
ENDBRANCH  12  14
ENDBRANCH   8  12
BRANCH   9  15
ATOM     15  C   UNL     1       9.377   5.810   7.662  0.00  0.00    +0.124 C 
BRANCH  15  21
ATOM      4  O   UNL     1       9.084   4.583   9.749  0.00  0.00    -0.251 OA
ATOM     21  C   UNL     1       9.613   4.704   8.654  0.00  0.00    +0.305 C 
BRANCH  21   3
ATOM      3  O   UNL     1      10.522   3.827   8.153  0.00  0.00    -0.481 OA
ATOM     34  H   UNL     1      11.395   3.917   8.591  0.00  0.00    +0.295 HD
ENDBRANCH  21   3
ENDBRANCH  15  21
ENDBRANCH   9  15
TORSDOF 8
ENDMDL
MODEL 10
REMARK VINA RESULT:      -6.3     30.449     32.666
REMARK  Name = 28959937
REMARK  8 active torsions:
REMARK  status: ('A' for Active; 'I' for Inactive)
REMARK    1  A    between atoms: O_3  and  C_21
REMARK    2  A    between atoms: N_6  and  C_14
REMARK    3  A    between atoms: N_7  and  C_23
REMARK    4  A    between atoms: C_8  and  C_12
REMARK    5  A    between atoms: C_9  and  C_15
REMARK    6  A    between atoms: C_12  and  C_14
REMARK    7  A    between atoms: C_15  and  C_21
REMARK    8  A    between atoms: C_20  and  C_22
REMARK                            x       y       z     vdW  Elec       q    Type
REMARK                         _______ _______ _______ _____ _____    ______ ____
ROOT
ATOM      2  O   UNL     1     -12.351   3.567  32.065  0.00  0.00    -0.270 OA
ATOM      5  N   UNL     1     -14.532   4.355  32.380  0.00  0.00    -0.297 N 
ATOM      8  C   UNL     1     -16.646   5.263  31.441  0.00  0.00    +0.011 C 
ATOM      9  C   UNL     1     -16.228   6.664  31.959  0.00  0.00    +0.006 C 
ATOM     10  C   UNL     1     -15.988   4.168  32.300  0.00  0.00    +0.112 C 
ATOM     11  C   UNL     1     -14.700   6.793  32.069  0.00  0.00    +0.023 C 
ATOM     13  C   UNL     1     -14.107   5.655  32.895  0.00  0.00    +0.108 C 
ATOM     20  C   UNL     1     -13.570   3.413  32.005  0.00  0.00    +0.247 C 
ENDROOT
BRANCH  20  22
ATOM     22  C   UNL     1     -14.035   2.120  31.492  0.00  0.00    +0.037 A 
ATOM     24  C   UNL     1     -13.923   1.827  30.133  0.00  0.00    +0.013 A 
ATOM     25  C   UNL     1     -14.587   1.182  32.364  0.00  0.00    +0.013 A 
ATOM     28  C   UNL     1     -14.364   0.596  29.646  0.00  0.00    +0.001 A 
ATOM     29  C   UNL     1     -15.028  -0.048  31.878  0.00  0.00    +0.001 A 
ATOM     33  C   UNL     1     -14.915  -0.341  30.518  0.00  0.00    +0.000 A 
ENDBRANCH  20  22
BRANCH   8  12
ATOM     12  C   UNL     1     -16.338   5.032  29.956  0.00  0.00    +0.020 C 
BRANCH  12  14
ATOM     14  C   UNL     1     -17.058   3.795  29.439  0.00  0.00    +0.085 C 
BRANCH  14   6
ATOM      6  N   UNL     1     -17.185   3.865  27.983  0.00  0.00    -0.299 NA
ATOM      7  N   UNL     1     -16.427   4.613  25.333  0.00  0.00    -0.327 N 
ATOM     16  C   UNL     1     -16.030   3.234  27.335  0.00  0.00    +0.103 C 
ATOM     17  C   UNL     1     -17.304   5.261  27.544  0.00  0.00    +0.103 C 
ATOM     18  C   UNL     1     -16.176   3.250  25.811  0.00  0.00    +0.120 C 
ATOM     19  C   UNL     1     -17.495   5.345  26.028  0.00  0.00    +0.120 C 
BRANCH   7  23
ATOM      1  F   UNL     1     -15.408   5.899  20.053  0.00  0.00    -0.205 F 
ATOM     23  C   UNL     1     -16.169   4.939  23.997  0.00  0.00    +0.030 A 
ATOM     26  C   UNL     1     -17.210   5.353  23.166  0.00  0.00    +0.026 A 
ATOM     27  C   UNL     1     -14.870   4.850  23.496  0.00  0.00    +0.026 A 
ATOM     30  C   UNL     1     -16.954   5.676  21.835  0.00  0.00    +0.040 A 
ATOM     31  C   UNL     1     -14.613   5.174  22.163  0.00  0.00    +0.040 A 
ATOM     32  C   UNL     1     -15.655   5.587  21.333  0.00  0.00    +0.124 A 
ENDBRANCH   7  23
ENDBRANCH  14   6
ENDBRANCH  12  14
ENDBRANCH   8  12
BRANCH   9  15
ATOM     15  C   UNL     1     -16.807   7.809  31.128  0.00  0.00    +0.124 C 
BRANCH  15  21
ATOM      4  O   UNL     1     -18.962   8.028  32.247  0.00  0.00    -0.251 OA
ATOM     21  C   UNL     1     -18.307   7.864  31.229  0.00  0.00    +0.305 C 
BRANCH  21   3
ATOM      3  O   UNL     1     -18.854   7.703  29.997  0.00  0.00    -0.481 OA
ATOM     34  H   UNL     1     -19.388   8.482  29.729  0.00  0.00    +0.295 HD
ENDBRANCH  21   3
ENDBRANCH  15  21
ENDBRANCH   9  15
TORSDOF 8
ENDMDL
