MODEL 1
REMARK VINA RESULT:      -7.9      0.000      0.000
REMARK  Name = 40780671
REMARK  10 active torsions:
REMARK  status: ('A' for Active; 'I' for Inactive)
REMARK    1  A    between atoms: S_1  and  C_28
REMARK    2  A    between atoms: S_1  and  C_32
REMARK    3  A    between atoms: O_4  and  C_13
REMARK    4  A    between atoms: O_5  and  C_14
REMARK    5  A    between atoms: N_8  and  C_23
REMARK    6  A    between atoms: N_9  and  C_17
REMARK    7  A    between atoms: C_12  and  C_16
REMARK    8  A    between atoms: C_15  and  C_17
REMARK    9  A    between atoms: C_16  and  C_18
REMARK   10  A    between atoms: C_25  and  C_28
REMARK                            x       y       z     vdW  Elec       q    Type
REMARK                         _______ _______ _______ _____ _____    ______ ____
ROOT
ATOM      3  O   UNL     1     -15.778   2.089  26.295  0.00  0.00    -0.366 OA
ATOM     12  C   UNL     1     -16.531   0.968  26.813  0.00  0.00    +0.159 C 
ATOM     13  C   UNL     1     -17.687   0.744  25.845  0.00  0.00    +0.175 C 
ATOM     14  C   UNL     1     -17.912   2.137  25.293  0.00  0.00    +0.176 C 
ATOM     15  C   UNL     1     -16.487   2.652  25.177  0.00  0.00    +0.171 C 
ENDROOT
BRANCH  13   4
ATOM      4  O   UNL     1     -17.236  -0.131  24.812  0.00  0.00    -0.387 OA
ATOM     38  H   UNL     1     -18.020  -0.430  24.321  0.00  0.00    +0.210 HD
ENDBRANCH  13   4
BRANCH  14   5
ATOM      5  O   UNL     1     -18.581   2.144  24.051  0.00  0.00    -0.387 OA
ATOM     39  H   UNL     1     -19.350   1.556  24.129  0.00  0.00    +0.210 HD
ENDBRANCH  14   5
BRANCH  12  16
ATOM     16  C   UNL     1     -16.992   1.327  28.219  0.00  0.00    +0.130 C 
BRANCH  16  18
ATOM      6  O   UNL     1     -15.373  -0.145  29.141  0.00  0.00    -0.276 OA
ATOM      7  N   UNL     1     -15.639   1.907  30.198  0.00  0.00    -0.298 N 
ATOM      8  N   UNL     1     -14.810   3.895  32.134  0.00  0.00    -0.327 N 
ATOM     18  C   UNL     1     -15.927   0.954  29.220  0.00  0.00    +0.218 C 
ATOM     19  C   UNL     1     -16.298   3.213  30.291  0.00  0.00    +0.126 C 
ATOM     20  C   UNL     1     -14.615   1.625  31.200  0.00  0.00    +0.126 C 
ATOM     21  C   UNL     1     -16.204   3.824  31.688  0.00  0.00    +0.124 C 
ATOM     22  C   UNL     1     -13.872   2.887  31.631  0.00  0.00    +0.124 C 
BRANCH   8  23
ATOM      2  F   UNL     1     -13.151   7.750  35.721  0.00  0.00    -0.205 F 
ATOM     23  C   UNL     1     -14.392   4.867  33.038  0.00  0.00    +0.030 A 
ATOM     26  C   UNL     1     -14.014   6.130  32.580  0.00  0.00    +0.026 A 
ATOM     27  C   UNL     1     -14.350   4.580  34.402  0.00  0.00    +0.026 A 
ATOM     29  C   UNL     1     -13.596   7.104  33.486  0.00  0.00    +0.040 A 
ATOM     30  C   UNL     1     -13.930   5.553  35.308  0.00  0.00    +0.040 A 
ATOM     31  C   UNL     1     -13.554   6.815  34.850  0.00  0.00    +0.124 A 
ENDBRANCH   8  23
ENDBRANCH  16  18
ENDBRANCH  12  16
BRANCH  15  17
ATOM     17  C   UNL     1     -16.388   4.167  25.219  0.00  0.00    +0.179 C 
BRANCH  17   9
ATOM      9  N   UNL     1     -16.063   4.743  23.867  0.00  0.00    -0.249 N 
ATOM     10  N   UNL     1     -15.940   3.946  22.793  0.00  0.00    -0.065 NA
ATOM     11  N   UNL     1     -15.649   4.725  21.756  0.00  0.00    -0.134 NA
ATOM     24  C   UNL     1     -15.855   6.050  23.550  0.00  0.00    +0.134 A 
ATOM     25  C   UNL     1     -15.593   6.016  22.203  0.00  0.00    +0.093 A 
BRANCH  25  28
ATOM     28  C   UNL     1     -15.288   7.125  21.290  0.00  0.00    +0.133 C 
BRANCH  28   1
ATOM      1  S   UNL     1     -14.436   8.519  22.110  0.00  0.00    -0.119 S 
BRANCH   1  32
ATOM     32  C   UNL     1     -12.964   8.659  21.107  0.00  0.00    +0.008 A 
ATOM     33  C   UNL     1     -12.407   9.912  20.857  0.00  0.00    +0.015 A 
ATOM     34  C   UNL     1     -12.373   7.513  20.573  0.00  0.00    +0.015 A 
ATOM     35  C   UNL     1     -11.259  10.021  20.072  0.00  0.00    +0.001 A 
ATOM     36  C   UNL     1     -11.224   7.622  19.790  0.00  0.00    +0.001 A 
ATOM     37  C   UNL     1     -10.667   8.876  19.539  0.00  0.00    +0.000 A 
ENDBRANCH   1  32
ENDBRANCH  28   1
ENDBRANCH  25  28
ENDBRANCH  17   9
ENDBRANCH  15  17
TORSDOF 10
ENDMDL
MODEL 2
REMARK VINA RESULT:      -7.6     28.106     30.930
REMARK  Name = 40780671
REMARK  10 active torsions:
REMARK  status: ('A' for Active; 'I' for Inactive)
REMARK    1  A    between atoms: S_1  and  C_28
REMARK    2  A    between atoms: S_1  and  C_32
REMARK    3  A    between atoms: O_4  and  C_13
REMARK    4  A    between atoms: O_5  and  C_14
REMARK    5  A    between atoms: N_8  and  C_23
REMARK    6  A    between atoms: N_9  and  C_17
REMARK    7  A    between atoms: C_12  and  C_16
REMARK    8  A    between atoms: C_15  and  C_17
REMARK    9  A    between atoms: C_16  and  C_18
REMARK   10  A    between atoms: C_25  and  C_28
REMARK                            x       y       z     vdW  Elec       q    Type
REMARK                         _______ _______ _______ _____ _____    ______ ____
ROOT
ATOM      3  O   UNL     1      11.391  13.482  23.588  0.00  0.00    -0.366 OA
ATOM     12  C   UNL     1      10.930  12.113  23.512  0.00  0.00    +0.159 C 
ATOM     13  C   UNL     1      11.603  11.370  24.661  0.00  0.00    +0.175 C 
ATOM     14  C   UNL     1      12.887  12.153  24.835  0.00  0.00    +0.176 C 
ATOM     15  C   UNL     1      12.410  13.576  24.598  0.00  0.00    +0.171 C 
ENDROOT
BRANCH  13   4
ATOM      4  O   UNL     1      10.778  11.505  25.818  0.00  0.00    -0.387 OA
ATOM     38  H   UNL     1      10.166  10.750  25.829  0.00  0.00    +0.210 HD
ENDBRANCH  13   4
BRANCH  14   5
ATOM      5  O   UNL     1      13.470  11.994  26.110  0.00  0.00    -0.387 OA
ATOM     39  H   UNL     1      12.854  11.471  26.650  0.00  0.00    +0.210 HD
ENDBRANCH  14   5
BRANCH  12  16
ATOM     16  C   UNL     1      11.314  11.568  22.143  0.00  0.00    +0.130 C 
BRANCH  16  18
ATOM      6  O   UNL     1      10.191   9.493  22.407  0.00  0.00    -0.276 OA
ATOM      7  N   UNL     1      12.451   9.396  21.875  0.00  0.00    -0.298 N 
ATOM      8  N   UNL     1      14.817   7.920  21.096  0.00  0.00    -0.327 N 
ATOM     18  C   UNL     1      11.256  10.061  22.154  0.00  0.00    +0.218 C 
ATOM     19  C   UNL     1      13.716  10.072  21.576  0.00  0.00    +0.126 C 
ATOM     20  C   UNL     1      12.477   7.936  21.861  0.00  0.00    +0.126 C 
ATOM     21  C   UNL     1      14.934   9.184  21.826  0.00  0.00    +0.124 C 
ATOM     22  C   UNL     1      13.474   7.391  20.841  0.00  0.00    +0.124 C 
BRANCH   8  23
ATOM      2  F   UNL     1      19.299   5.136  19.471  0.00  0.00    -0.205 F 
ATOM     23  C   UNL     1      15.947   7.218  20.686  0.00  0.00    +0.030 A 
ATOM     26  C   UNL     1      17.100   7.233  21.471  0.00  0.00    +0.026 A 
ATOM     27  C   UNL     1      15.927   6.499  19.492  0.00  0.00    +0.026 A 
ATOM     29  C   UNL     1      18.233   6.530  21.062  0.00  0.00    +0.040 A 
ATOM     30  C   UNL     1      17.060   5.796  19.081  0.00  0.00    +0.040 A 
ATOM     31  C   UNL     1      18.212   5.811  19.866  0.00  0.00    +0.124 A 
ENDBRANCH   8  23
ENDBRANCH  16  18
ENDBRANCH  12  16
BRANCH  15  17
ATOM     17  C   UNL     1      13.511  14.510  24.129  0.00  0.00    +0.179 C 
BRANCH  17   9
ATOM      9  N   UNL     1      14.265  13.942  22.956  0.00  0.00    -0.249 N 
ATOM     10  N   UNL     1      15.457  13.348  23.130  0.00  0.00    -0.065 NA
ATOM     11  N   UNL     1      15.878  12.954  21.933  0.00  0.00    -0.134 NA
ATOM     24  C   UNL     1      13.891  13.945  21.648  0.00  0.00    +0.134 A 
ATOM     25  C   UNL     1      14.931  13.313  21.014  0.00  0.00    +0.093 A 
BRANCH  25  28
ATOM     28  C   UNL     1      15.104  13.016  19.586  0.00  0.00    +0.133 C 
BRANCH  28   1
ATOM      1  S   UNL     1      13.523  12.927  18.674  0.00  0.00    -0.119 S 
BRANCH   1  32
ATOM     32  C   UNL     1      13.759  11.430  17.725  0.00  0.00    +0.008 A 
ATOM     33  C   UNL     1      13.148  10.245  18.130  0.00  0.00    +0.015 A 
ATOM     34  C   UNL     1      14.555  11.450  16.581  0.00  0.00    +0.015 A 
ATOM     35  C   UNL     1      13.334   9.076  17.391  0.00  0.00    +0.001 A 
ATOM     36  C   UNL     1      14.740  10.282  15.840  0.00  0.00    +0.001 A 
ATOM     37  C   UNL     1      14.129   9.095  16.246  0.00  0.00    +0.000 A 
ENDBRANCH   1  32
ENDBRANCH  28   1
ENDBRANCH  25  28
ENDBRANCH  17   9
ENDBRANCH  15  17
TORSDOF 10
ENDMDL
MODEL 3
REMARK VINA RESULT:      -7.5     32.323     37.273
REMARK  Name = 40780671
REMARK  10 active torsions:
REMARK  status: ('A' for Active; 'I' for Inactive)
REMARK    1  A    between atoms: S_1  and  C_28
REMARK    2  A    between atoms: S_1  and  C_32
REMARK    3  A    between atoms: O_4  and  C_13
REMARK    4  A    between atoms: O_5  and  C_14
REMARK    5  A    between atoms: N_8  and  C_23
REMARK    6  A    between atoms: N_9  and  C_17
REMARK    7  A    between atoms: C_12  and  C_16
REMARK    8  A    between atoms: C_15  and  C_17
REMARK    9  A    between atoms: C_16  and  C_18
REMARK   10  A    between atoms: C_25  and  C_28
REMARK                            x       y       z     vdW  Elec       q    Type
REMARK                         _______ _______ _______ _____ _____    ______ ____
ROOT
ATOM      3  O   UNL     1      10.314   7.545   6.252  0.00  0.00    -0.366 OA
ATOM     12  C   UNL     1       8.938   7.121   6.393  0.00  0.00    +0.159 C 
ATOM     13  C   UNL     1       8.850   6.388   7.726  0.00  0.00    +0.175 C 
ATOM     14  C   UNL     1      10.253   5.840   7.879  0.00  0.00    +0.176 C 
ATOM     15  C   UNL     1      11.088   6.982   7.326  0.00  0.00    +0.171 C 
ENDROOT
BRANCH  13   4
ATOM      4  O   UNL     1       8.580   7.351   8.744  0.00  0.00    -0.387 OA
ATOM     38  H   UNL     1       7.637   7.577   8.688  0.00  0.00    +0.210 HD
ENDBRANCH  13   4
BRANCH  14   5
ATOM      5  O   UNL     1      10.592   5.535   9.215  0.00  0.00    -0.387 OA
ATOM     39  H   UNL     1      10.981   4.645   9.222  0.00  0.00    +0.210 HD
ENDBRANCH  14   5
BRANCH  12  16
ATOM     16  C   UNL     1       8.600   6.235   5.201  0.00  0.00    +0.130 C 
BRANCH  16  18
ATOM      6  O   UNL     1       8.352   7.921   3.547  0.00  0.00    -0.276 OA
ATOM      7  N   UNL     1      10.061   6.381   3.220  0.00  0.00    -0.298 N 
ATOM      8  N   UNL     1      12.414   5.457   1.807  0.00  0.00    -0.327 N 
ATOM     18  C   UNL     1       8.985   6.929   3.919  0.00  0.00    +0.218 C 
ATOM     19  C   UNL     1      10.813   5.203   3.663  0.00  0.00    +0.126 C 
ATOM     20  C   UNL     1      10.501   6.999   1.972  0.00  0.00    +0.126 C 
ATOM     21  C   UNL     1      11.553   4.510   2.520  0.00  0.00    +0.124 C 
ATOM     22  C   UNL     1      12.008   6.865   1.767  0.00  0.00    +0.124 C 
BRANCH   8  23
ATOM      2  F   UNL     1      16.982   3.766  -0.792  0.00  0.00    -0.205 F 
ATOM     23  C   UNL     1      13.566   5.031   1.151  0.00  0.00    +0.030 A 
ATOM     26  C   UNL     1      13.973   5.662  -0.024  0.00  0.00    +0.026 A 
ATOM     27  C   UNL     1      14.313   3.974   1.670  0.00  0.00    +0.026 A 
ATOM     29  C   UNL     1      15.127   5.235  -0.681  0.00  0.00    +0.040 A 
ATOM     30  C   UNL     1      15.467   3.546   1.013  0.00  0.00    +0.040 A 
ATOM     31  C   UNL     1      15.874   4.177  -0.162  0.00  0.00    +0.124 A 
ENDBRANCH   8  23
ENDBRANCH  16  18
ENDBRANCH  12  16
BRANCH  15  17
ATOM     17  C   UNL     1      12.443   6.540   6.802  0.00  0.00    +0.179 C 
BRANCH  17   9
ATOM      9  N   UNL     1      13.365   7.709   6.579  0.00  0.00    -0.249 N 
ATOM     10  N   UNL     1      13.098   8.907   7.124  0.00  0.00    -0.065 NA
ATOM     11  N   UNL     1      14.071   9.733   6.755  0.00  0.00    -0.134 NA
ATOM     24  C   UNL     1      14.513   7.734   5.848  0.00  0.00    +0.134 A 
ATOM     25  C   UNL     1      14.946   9.030   5.973  0.00  0.00    +0.093 A 
BRANCH  25  28
ATOM     28  C   UNL     1      16.139   9.668   5.402  0.00  0.00    +0.133 C 
BRANCH  28   1
ATOM      1  S   UNL     1      17.002   8.617   4.181  0.00  0.00    -0.119 S 
BRANCH   1  32
ATOM     32  C   UNL     1      18.553   8.322   5.017  0.00  0.00    +0.008 A 
ATOM     33  C   UNL     1      19.597   7.686   4.346  0.00  0.00    +0.015 A 
ATOM     34  C   UNL     1      18.719   8.728   6.341  0.00  0.00    +0.015 A 
ATOM     35  C   UNL     1      20.807   7.454   5.000  0.00  0.00    +0.001 A 
ATOM     36  C   UNL     1      19.930   8.497   6.994  0.00  0.00    +0.001 A 
ATOM     37  C   UNL     1      20.974   7.860   6.323  0.00  0.00    +0.000 A 
ENDBRANCH   1  32
ENDBRANCH  28   1
ENDBRANCH  25  28
ENDBRANCH  17   9
ENDBRANCH  15  17
TORSDOF 10
ENDMDL
MODEL 4
REMARK VINA RESULT:      -7.5     32.705     37.009
REMARK  Name = 40780671
REMARK  10 active torsions:
REMARK  status: ('A' for Active; 'I' for Inactive)
REMARK    1  A    between atoms: S_1  and  C_28
REMARK    2  A    between atoms: S_1  and  C_32
REMARK    3  A    between atoms: O_4  and  C_13
REMARK    4  A    between atoms: O_5  and  C_14
REMARK    5  A    between atoms: N_8  and  C_23
REMARK    6  A    between atoms: N_9  and  C_17
REMARK    7  A    between atoms: C_12  and  C_16
REMARK    8  A    between atoms: C_15  and  C_17
REMARK    9  A    between atoms: C_16  and  C_18
REMARK   10  A    between atoms: C_25  and  C_28
REMARK                            x       y       z     vdW  Elec       q    Type
REMARK                         _______ _______ _______ _____ _____    ______ ____
ROOT
ATOM      3  O   UNL     1      15.044   5.062   1.286  0.00  0.00    -0.366 OA
ATOM     12  C   UNL     1      15.043   4.106   0.200  0.00  0.00    +0.159 C 
ATOM     13  C   UNL     1      15.819   4.754  -0.942  0.00  0.00    +0.175 C 
ATOM     14  C   UNL     1      15.574   6.227  -0.694  0.00  0.00    +0.176 C 
ATOM     15  C   UNL     1      15.625   6.294   0.823  0.00  0.00    +0.171 C 
ENDROOT
BRANCH  13   4
ATOM      4  O   UNL     1      17.202   4.445  -0.768  0.00  0.00    -0.387 OA
ATOM     38  H   UNL     1      17.525   4.971  -0.017  0.00  0.00    +0.210 HD
ENDBRANCH  13   4
BRANCH  14   5
ATOM      5  O   UNL     1      16.541   7.063  -1.294  0.00  0.00    -0.387 OA
ATOM     39  H   UNL     1      17.220   6.490  -1.685  0.00  0.00    +0.210 HD
ENDBRANCH  14   5
BRANCH  12  16
ATOM     16  C   UNL     1      13.594   3.809  -0.158  0.00  0.00    +0.130 C 
BRANCH  16  18
ATOM      6  O   UNL     1      13.045   2.453   1.713  0.00  0.00    -0.276 OA
ATOM      7  N   UNL     1      11.843   4.426   1.466  0.00  0.00    -0.298 N 
ATOM      8  N   UNL     1       9.964   6.398   2.450  0.00  0.00    -0.327 N 
ATOM     18  C   UNL     1      12.810   3.493   1.092  0.00  0.00    +0.218 C 
ATOM     19  C   UNL     1      11.565   5.661   0.727  0.00  0.00    +0.126 C 
ATOM     20  C   UNL     1      11.046   4.197   2.668  0.00  0.00    +0.126 C 
ATOM     21  C   UNL     1      10.171   6.219   1.011  0.00  0.00    +0.124 C 
ATOM     22  C   UNL     1      10.676   5.502   3.367  0.00  0.00    +0.124 C 
BRANCH   8  23
ATOM      2  F   UNL     1       6.494  10.233   4.382  0.00  0.00    -0.205 F 
ATOM     23  C   UNL     1       9.090   7.365   2.937  0.00  0.00    +0.030 A 
ATOM     26  C   UNL     1       8.710   7.350   4.280  0.00  0.00    +0.026 A 
ATOM     27  C   UNL     1       8.593   8.350   2.084  0.00  0.00    +0.026 A 
ATOM     29  C   UNL     1       7.834   8.318   4.768  0.00  0.00    +0.040 A 
ATOM     30  C   UNL     1       7.715   9.319   2.572  0.00  0.00    +0.040 A 
ATOM     31  C   UNL     1       7.337   9.303   3.914  0.00  0.00    +0.124 A 
ENDBRANCH   8  23
ENDBRANCH  16  18
ENDBRANCH  12  16
BRANCH  15  17
ATOM     17  C   UNL     1      14.857   7.470   1.401  0.00  0.00    +0.179 C 
BRANCH  17   9
ATOM      9  N   UNL     1      14.925   7.498   2.904  0.00  0.00    -0.249 N 
ATOM     10  N   UNL     1      16.093   7.703   3.534  0.00  0.00    -0.065 NA
ATOM     11  N   UNL     1      15.848   7.672   4.839  0.00  0.00    -0.134 NA
ATOM     24  C   UNL     1      13.902   7.330   3.786  0.00  0.00    +0.134 A 
ATOM     25  C   UNL     1      14.511   7.443   5.010  0.00  0.00    +0.093 A 
BRANCH  25  28
ATOM     28  C   UNL     1      13.919   7.351   6.351  0.00  0.00    +0.133 C 
BRANCH  28   1
ATOM      1  S   UNL     1      12.689   8.660   6.686  0.00  0.00    -0.119 S 
BRANCH   1  32
ATOM     32  C   UNL     1      11.267   7.683   7.153  0.00  0.00    +0.008 A 
ATOM     33  C   UNL     1      10.151   8.301   7.715  0.00  0.00    +0.015 A 
ATOM     34  C   UNL     1      11.275   6.303   6.955  0.00  0.00    +0.015 A 
ATOM     35  C   UNL     1       9.042   7.537   8.082  0.00  0.00    +0.001 A 
ATOM     36  C   UNL     1      10.165   5.539   7.319  0.00  0.00    +0.001 A 
ATOM     37  C   UNL     1       9.049   6.157   7.883  0.00  0.00    +0.000 A 
ENDBRANCH   1  32
ENDBRANCH  28   1
ENDBRANCH  25  28
ENDBRANCH  17   9
ENDBRANCH  15  17
TORSDOF 10
ENDMDL
MODEL 5
REMARK VINA RESULT:      -7.3     19.081     21.494
REMARK  Name = 40780671
REMARK  10 active torsions:
REMARK  status: ('A' for Active; 'I' for Inactive)
REMARK    1  A    between atoms: S_1  and  C_28
REMARK    2  A    between atoms: S_1  and  C_32
REMARK    3  A    between atoms: O_4  and  C_13
REMARK    4  A    between atoms: O_5  and  C_14
REMARK    5  A    between atoms: N_8  and  C_23
REMARK    6  A    between atoms: N_9  and  C_17
REMARK    7  A    between atoms: C_12  and  C_16
REMARK    8  A    between atoms: C_15  and  C_17
REMARK    9  A    between atoms: C_16  and  C_18
REMARK   10  A    between atoms: C_25  and  C_28
REMARK                            x       y       z     vdW  Elec       q    Type
REMARK                         _______ _______ _______ _____ _____    ______ ____
ROOT
ATOM      3  O   UNL     1      -3.729 -11.537  18.028  0.00  0.00    -0.366 OA
ATOM     12  C   UNL     1      -4.934 -12.011  18.674  0.00  0.00    +0.159 C 
ATOM     13  C   UNL     1      -5.675 -12.848  17.637  0.00  0.00    +0.175 C 
ATOM     14  C   UNL     1      -5.230 -12.209  16.339  0.00  0.00    +0.176 C 
ATOM     15  C   UNL     1      -3.773 -11.896  16.636  0.00  0.00    +0.171 C 
ENDROOT
BRANCH  13   4
ATOM      4  O   UNL     1      -5.190 -14.188  17.722  0.00  0.00    -0.387 OA
ATOM     38  H   UNL     1      -4.229 -14.141  17.859  0.00  0.00    +0.210 HD
ENDBRANCH  13   4
BRANCH  14   5
ATOM      5  O   UNL     1      -5.372 -13.059  15.220  0.00  0.00    -0.387 OA
ATOM     39  H   UNL     1      -5.435 -12.496  14.431  0.00  0.00    +0.210 HD
ENDBRANCH  14   5
BRANCH  12  16
ATOM     16  C   UNL     1      -5.725 -10.794  19.134  0.00  0.00    +0.130 C 
BRANCH  16  18
ATOM      6  O   UNL     1      -7.466 -12.075  20.117  0.00  0.00    -0.276 OA
ATOM      7  N   UNL     1      -8.106 -10.441  18.593  0.00  0.00    -0.298 N 
ATOM      8  N   UNL     1     -10.135  -8.854  17.272  0.00  0.00    -0.327 N 
ATOM     18  C   UNL     1      -7.173 -11.168  19.334  0.00  0.00    +0.218 C 
ATOM     19  C   UNL     1      -7.756  -9.364  17.663  0.00  0.00    +0.126 C 
ATOM     20  C   UNL     1      -9.528 -10.738  18.736  0.00  0.00    +0.126 C 
ATOM     21  C   UNL     1      -8.845  -9.104  16.624  0.00  0.00    +0.124 C 
ATOM     22  C   UNL     1     -10.393  -9.492  18.566  0.00  0.00    +0.124 C 
BRANCH   8  23
ATOM      2  F   UNL     1     -13.986  -5.724  14.853  0.00  0.00    -0.205 F 
ATOM     23  C   UNL     1     -11.106  -8.065  16.662  0.00  0.00    +0.030 A 
ATOM     26  C   UNL     1     -10.764  -6.818  16.138  0.00  0.00    +0.026 A 
ATOM     27  C   UNL     1     -12.421  -8.521  16.573  0.00  0.00    +0.026 A 
ATOM     29  C   UNL     1     -11.736  -6.027  15.526  0.00  0.00    +0.040 A 
ATOM     30  C   UNL     1     -13.394  -7.729  15.962  0.00  0.00    +0.040 A 
ATOM     31  C   UNL     1     -13.052  -6.483  15.439  0.00  0.00    +0.124 A 
ENDBRANCH   8  23
ENDBRANCH  16  18
ENDBRANCH  12  16
BRANCH  15  17
ATOM     17  C   UNL     1      -3.217 -10.760  15.797  0.00  0.00    +0.179 C 
BRANCH  17   9
ATOM      9  N   UNL     1      -3.038 -11.163  14.357  0.00  0.00    -0.249 N 
ATOM     10  N   UNL     1      -2.379 -12.289  14.038  0.00  0.00    -0.065 NA
ATOM     11  N   UNL     1      -2.376 -12.380  12.712  0.00  0.00    -0.134 NA
ATOM     24  C   UNL     1      -3.474 -10.504  13.250  0.00  0.00    +0.134 A 
ATOM     25  C   UNL     1      -3.042 -11.294  12.214  0.00  0.00    +0.093 A 
BRANCH  25  28
ATOM     28  C   UNL     1      -3.211 -11.101  10.768  0.00  0.00    +0.133 C 
BRANCH  28   1
ATOM      1  S   UNL     1      -3.146  -9.346  10.264  0.00  0.00    -0.119 S 
BRANCH   1  32
ATOM     32  C   UNL     1      -4.660  -9.203   9.325  0.00  0.00    +0.008 A 
ATOM     33  C   UNL     1      -4.827  -9.944   8.155  0.00  0.00    +0.015 A 
ATOM     34  C   UNL     1      -5.673  -8.350   9.762  0.00  0.00    +0.015 A 
ATOM     35  C   UNL     1      -6.008  -9.830   7.421  0.00  0.00    +0.001 A 
ATOM     36  C   UNL     1      -6.854  -8.238   9.028  0.00  0.00    +0.001 A 
ATOM     37  C   UNL     1      -7.022  -8.978   7.858  0.00  0.00    +0.000 A 
ENDBRANCH   1  32
ENDBRANCH  28   1
ENDBRANCH  25  28
ENDBRANCH  17   9
ENDBRANCH  15  17
TORSDOF 10
ENDMDL
MODEL 6
REMARK VINA RESULT:      -7.2     33.423     36.884
REMARK  Name = 40780671
REMARK  10 active torsions:
REMARK  status: ('A' for Active; 'I' for Inactive)
REMARK    1  A    between atoms: S_1  and  C_28
REMARK    2  A    between atoms: S_1  and  C_32
REMARK    3  A    between atoms: O_4  and  C_13
REMARK    4  A    between atoms: O_5  and  C_14
REMARK    5  A    between atoms: N_8  and  C_23
REMARK    6  A    between atoms: N_9  and  C_17
REMARK    7  A    between atoms: C_12  and  C_16
REMARK    8  A    between atoms: C_15  and  C_17
REMARK    9  A    between atoms: C_16  and  C_18
REMARK   10  A    between atoms: C_25  and  C_28
REMARK                            x       y       z     vdW  Elec       q    Type
REMARK                         _______ _______ _______ _____ _____    ______ ____
ROOT
ATOM      3  O   UNL     1      22.640   3.041  22.824  0.00  0.00    -0.366 OA
ATOM     12  C   UNL     1      22.850   3.634  21.521  0.00  0.00    +0.159 C 
ATOM     13  C   UNL     1      23.943   2.812  20.847  0.00  0.00    +0.175 C 
ATOM     14  C   UNL     1      24.738   2.311  22.034  0.00  0.00    +0.176 C 
ATOM     15  C   UNL     1      23.637   2.026  23.041  0.00  0.00    +0.171 C 
ENDROOT
BRANCH  13   4
ATOM      4  O   UNL     1      23.322   1.721  20.169  0.00  0.00    -0.387 OA
ATOM     38  H   UNL     1      22.997   2.056  19.316  0.00  0.00    +0.210 HD
ENDBRANCH  13   4
BRANCH  14   5
ATOM      5  O   UNL     1      25.505   1.160  21.747  0.00  0.00    -0.387 OA
ATOM     39  H   UNL     1      24.962   0.385  21.968  0.00  0.00    +0.210 HD
ENDBRANCH  14   5
BRANCH  12  16
ATOM     16  C   UNL     1      23.241   5.091  21.730  0.00  0.00    +0.130 C 
BRANCH  16  18
ATOM      6  O   UNL     1      22.542   6.032  23.795  0.00  0.00    -0.276 OA
ATOM      7  N   UNL     1      20.995   6.053  22.062  0.00  0.00    -0.298 N 
ATOM      8  N   UNL     1      18.466   6.886  20.924  0.00  0.00    -0.327 N 
ATOM     18  C   UNL     1      22.237   5.768  22.629  0.00  0.00    +0.218 C 
ATOM     19  C   UNL     1      20.634   5.740  20.677  0.00  0.00    +0.126 C 
ATOM     20  C   UNL     1      19.971   6.715  22.865  0.00  0.00    +0.126 C 
ATOM     21  C   UNL     1      19.123   5.660  20.464  0.00  0.00    +0.124 C 
ATOM     22  C   UNL     1      19.086   7.631  22.023  0.00  0.00    +0.124 C 
BRANCH   8  23
ATOM      2  F   UNL     1      13.711   8.587  18.693  0.00  0.00    -0.205 F 
ATOM     23  C   UNL     1      17.267   7.315  20.361  0.00  0.00    +0.030 A 
ATOM     26  C   UNL     1      16.568   6.481  19.488  0.00  0.00    +0.026 A 
ATOM     27  C   UNL     1      16.763   8.578  20.671  0.00  0.00    +0.026 A 
ATOM     29  C   UNL     1      15.367   6.910  18.925  0.00  0.00    +0.040 A 
ATOM     30  C   UNL     1      15.562   9.008  20.106  0.00  0.00    +0.040 A 
ATOM     31  C   UNL     1      14.864   8.174  19.234  0.00  0.00    +0.124 A 
ENDBRANCH   8  23
ENDBRANCH  16  18
ENDBRANCH  12  16
BRANCH  15  17
ATOM     17  C   UNL     1      24.110   2.074  24.482  0.00  0.00    +0.179 C 
BRANCH  17   9
ATOM      9  N   UNL     1      23.246   1.234  25.383  0.00  0.00    -0.249 N 
ATOM     10  N   UNL     1      23.498   1.158  26.700  0.00  0.00    -0.065 NA
ATOM     11  N   UNL     1      22.586   0.351  27.230  0.00  0.00    -0.134 NA
ATOM     24  C   UNL     1      22.169   0.479  25.034  0.00  0.00    +0.134 A 
ATOM     25  C   UNL     1      21.764  -0.074  26.223  0.00  0.00    +0.093 A 
BRANCH  25  28
ATOM     28  C   UNL     1      20.645  -0.988  26.486  0.00  0.00    +0.133 C 
BRANCH  28   1
ATOM      1  S   UNL     1      20.618  -2.433  25.368  0.00  0.00    -0.119 S 
BRANCH   1  32
ATOM     32  C   UNL     1      19.133  -2.110  24.427  0.00  0.00    +0.008 A 
ATOM     33  C   UNL     1      18.337  -1.009  24.738  0.00  0.00    +0.015 A 
ATOM     34  C   UNL     1      18.772  -2.961  23.382  0.00  0.00    +0.015 A 
ATOM     35  C   UNL     1      17.177  -0.759  24.004  0.00  0.00    +0.001 A 
ATOM     36  C   UNL     1      17.613  -2.709  22.648  0.00  0.00    +0.001 A 
ATOM     37  C   UNL     1      16.815  -1.608  22.959  0.00  0.00    +0.000 A 
ENDBRANCH   1  32
ENDBRANCH  28   1
ENDBRANCH  25  28
ENDBRANCH  17   9
ENDBRANCH  15  17
TORSDOF 10
ENDMDL
MODEL 7
REMARK VINA RESULT:      -7.2      3.693     10.334
REMARK  Name = 40780671
REMARK  10 active torsions:
REMARK  status: ('A' for Active; 'I' for Inactive)
REMARK    1  A    between atoms: S_1  and  C_28
REMARK    2  A    between atoms: S_1  and  C_32
REMARK    3  A    between atoms: O_4  and  C_13
REMARK    4  A    between atoms: O_5  and  C_14
REMARK    5  A    between atoms: N_8  and  C_23
REMARK    6  A    between atoms: N_9  and  C_17
REMARK    7  A    between atoms: C_12  and  C_16
REMARK    8  A    between atoms: C_15  and  C_17
REMARK    9  A    between atoms: C_16  and  C_18
REMARK   10  A    between atoms: C_25  and  C_28
REMARK                            x       y       z     vdW  Elec       q    Type
REMARK                         _______ _______ _______ _____ _____    ______ ____
ROOT
ATOM      3  O   UNL     1     -16.367   3.337  27.190  0.00  0.00    -0.366 OA
ATOM     12  C   UNL     1     -17.088   3.117  25.956  0.00  0.00    +0.159 C 
ATOM     13  C   UNL     1     -17.975   1.899  26.188  0.00  0.00    +0.175 C 
ATOM     14  C   UNL     1     -17.185   1.126  27.222  0.00  0.00    +0.176 C 
ATOM     15  C   UNL     1     -16.637   2.247  28.089  0.00  0.00    +0.171 C 
ENDROOT
BRANCH  13   4
ATOM      4  O   UNL     1     -19.210   2.350  26.744  0.00  0.00    -0.387 OA
ATOM     38  H   UNL     1     -19.030   2.644  27.653  0.00  0.00    +0.210 HD
ENDBRANCH  13   4
BRANCH  14   5
ATOM      5  O   UNL     1     -17.972   0.218  27.964  0.00  0.00    -0.387 OA
ATOM     39  H   UNL     1     -17.590  -0.667  27.842  0.00  0.00    +0.210 HD
ENDBRANCH  14   5
BRANCH  12  16
ATOM     16  C   UNL     1     -16.064   2.907  24.849  0.00  0.00    +0.130 C 
BRANCH  16  18
ATOM      6  O   UNL     1     -17.655   3.382  23.151  0.00  0.00    -0.276 OA
ATOM      7  N   UNL     1     -15.599   4.452  22.983  0.00  0.00    -0.298 N 
ATOM      8  N   UNL     1     -13.846   6.411  21.770  0.00  0.00    -0.327 N 
ATOM     18  C   UNL     1     -16.522   3.597  23.588  0.00  0.00    +0.218 C 
ATOM     19  C   UNL     1     -14.253   4.706  23.503  0.00  0.00    +0.126 C 
ATOM     20  C   UNL     1     -15.968   5.163  21.762  0.00  0.00    +0.126 C 
ATOM     21  C   UNL     1     -13.295   5.226  22.432  0.00  0.00    +0.124 C 
ATOM     22  C   UNL     1     -15.303   6.534  21.675  0.00  0.00    +0.124 C 
BRANCH   8  23
ATOM      2  F   UNL     1     -10.541  10.242  19.560  0.00  0.00    -0.205 F 
ATOM     23  C   UNL     1     -13.013   7.377  21.213  0.00  0.00    +0.030 A 
ATOM     26  C   UNL     1     -11.931   6.992  20.420  0.00  0.00    +0.026 A 
ATOM     27  C   UNL     1     -13.259   8.730  21.446  0.00  0.00    +0.026 A 
ATOM     29  C   UNL     1     -11.096   7.959  19.861  0.00  0.00    +0.040 A 
ATOM     30  C   UNL     1     -12.424   9.698  20.888  0.00  0.00    +0.040 A 
ATOM     31  C   UNL     1     -11.343   9.312  20.095  0.00  0.00    +0.124 A 
ENDBRANCH   8  23
ENDBRANCH  16  18
ENDBRANCH  12  16
BRANCH  15  17
ATOM     17  C   UNL     1     -15.368   1.870  28.832  0.00  0.00    +0.179 C 
BRANCH  17   9
ATOM      9  N   UNL     1     -15.257   2.588  30.150  0.00  0.00    -0.249 N 
ATOM     10  N   UNL     1     -16.273   3.335  30.612  0.00  0.00    -0.065 NA
ATOM     11  N   UNL     1     -15.890   3.843  31.778  0.00  0.00    -0.134 NA
ATOM     24  C   UNL     1     -14.198   2.596  31.005  0.00  0.00    +0.134 A 
ATOM     25  C   UNL     1     -14.621   3.401  32.033  0.00  0.00    +0.093 A 
BRANCH  25  28
ATOM     28  C   UNL     1     -13.910   3.791  33.257  0.00  0.00    +0.133 C 
BRANCH  28   1
ATOM      1  S   UNL     1     -14.829   5.006  34.267  0.00  0.00    -0.119 S 
BRANCH   1  32
ATOM     32  C   UNL     1     -13.858   6.481  33.995  0.00  0.00    +0.008 A 
ATOM     33  C   UNL     1     -13.354   7.194  35.083  0.00  0.00    +0.015 A 
ATOM     34  C   UNL     1     -13.605   6.920  32.696  0.00  0.00    +0.015 A 
ATOM     35  C   UNL     1     -12.597   8.347  34.870  0.00  0.00    +0.001 A 
ATOM     36  C   UNL     1     -12.847   8.072  32.483  0.00  0.00    +0.001 A 
ATOM     37  C   UNL     1     -12.343   8.785  33.571  0.00  0.00    +0.000 A 
ENDBRANCH   1  32
ENDBRANCH  28   1
ENDBRANCH  25  28
ENDBRANCH  17   9
ENDBRANCH  15  17
TORSDOF 10
ENDMDL
MODEL 8
REMARK VINA RESULT:      -7.2     21.215     24.318
REMARK  Name = 40780671
REMARK  10 active torsions:
REMARK  status: ('A' for Active; 'I' for Inactive)
REMARK    1  A    between atoms: S_1  and  C_28
REMARK    2  A    between atoms: S_1  and  C_32
REMARK    3  A    between atoms: O_4  and  C_13
REMARK    4  A    between atoms: O_5  and  C_14
REMARK    5  A    between atoms: N_8  and  C_23
REMARK    6  A    between atoms: N_9  and  C_17
REMARK    7  A    between atoms: C_12  and  C_16
REMARK    8  A    between atoms: C_15  and  C_17
REMARK    9  A    between atoms: C_16  and  C_18
REMARK   10  A    between atoms: C_25  and  C_28
REMARK                            x       y       z     vdW  Elec       q    Type
REMARK                         _______ _______ _______ _____ _____    ______ ____
ROOT
ATOM      3  O   UNL     1      -6.379 -10.980  16.875  0.00  0.00    -0.366 OA
ATOM     12  C   UNL     1      -7.759 -11.411  16.920  0.00  0.00    +0.159 C 
ATOM     13  C   UNL     1      -8.129 -11.514  18.395  0.00  0.00    +0.175 C 
ATOM     14  C   UNL     1      -6.794 -11.833  19.034  0.00  0.00    +0.176 C 
ATOM     15  C   UNL     1      -5.849 -10.972  18.213  0.00  0.00    +0.171 C 
ENDROOT
BRANCH  13   4
ATOM      4  O   UNL     1      -8.592 -10.234  18.825  0.00  0.00    -0.387 OA
ATOM     38  H   UNL     1      -7.809  -9.678  18.979  0.00  0.00    +0.210 HD
ENDBRANCH  13   4
BRANCH  14   5
ATOM      5  O   UNL     1      -6.743 -11.515  20.409  0.00  0.00    -0.387 OA
ATOM     39  H   UNL     1      -5.843 -11.203  20.602  0.00  0.00    +0.210 HD
ENDBRANCH  14   5
BRANCH  12  16
ATOM     16  C   UNL     1      -7.855 -12.742  16.186  0.00  0.00    +0.130 C 
BRANCH  16  18
ATOM      6  O   UNL     1      -9.938 -12.465  15.081  0.00  0.00    -0.276 OA
ATOM      7  N   UNL     1      -8.052 -12.610  13.731  0.00  0.00    -0.298 N 
ATOM      8  N   UNL     1      -6.753 -12.418  11.151  0.00  0.00    -0.327 N 
ATOM     18  C   UNL     1      -8.717 -12.591  14.958  0.00  0.00    +0.218 C 
ATOM     19  C   UNL     1      -6.602 -12.760  13.587  0.00  0.00    +0.126 C 
ATOM     20  C   UNL     1      -8.815 -12.463  12.495  0.00  0.00    +0.126 C 
ATOM     21  C   UNL     1      -6.195 -13.269  12.204  0.00  0.00    +0.124 C 
ATOM     22  C   UNL     1      -8.021 -11.732  11.416  0.00  0.00    +0.124 C 
BRANCH   8  23
ATOM      2  F   UNL     1      -4.241 -11.912   6.260  0.00  0.00    -0.205 F 
ATOM     23  C   UNL     1      -6.120 -12.290   9.918  0.00  0.00    +0.030 A 
ATOM     26  C   UNL     1      -4.910 -12.945   9.683  0.00  0.00    +0.026 A 
ATOM     27  C   UNL     1      -6.694 -11.509   8.915  0.00  0.00    +0.026 A 
ATOM     29  C   UNL     1      -4.276 -12.819   8.448  0.00  0.00    +0.040 A 
ATOM     30  C   UNL     1      -6.059 -11.381   7.680  0.00  0.00    +0.040 A 
ATOM     31  C   UNL     1      -4.851 -12.036   7.446  0.00  0.00    +0.124 A 
ENDBRANCH   8  23
ENDBRANCH  16  18
ENDBRANCH  12  16
BRANCH  15  17
ATOM     17  C   UNL     1      -4.421 -11.487  18.201  0.00  0.00    +0.179 C 
BRANCH  17   9
ATOM      9  N   UNL     1      -3.835 -11.479  16.815  0.00  0.00    -0.249 N 
ATOM     10  N   UNL     1      -4.003 -12.528  15.993  0.00  0.00    -0.065 NA
ATOM     11  N   UNL     1      -3.379 -12.241  14.856  0.00  0.00    -0.134 NA
ATOM     24  C   UNL     1      -3.103 -10.494  16.228  0.00  0.00    +0.134 A 
ATOM     25  C   UNL     1      -2.822 -10.999  14.983  0.00  0.00    +0.093 A 
BRANCH  25  28
ATOM     28  C   UNL     1      -2.058 -10.391  13.887  0.00  0.00    +0.133 C 
BRANCH  28   1
ATOM      1  S   UNL     1      -2.271 -11.258  12.293  0.00  0.00    -0.119 S 
BRANCH   1  32
ATOM     32  C   UNL     1      -3.415 -10.166  11.460  0.00  0.00    +0.008 A 
ATOM     33  C   UNL     1      -3.111  -9.675  10.191  0.00  0.00    +0.015 A 
ATOM     34  C   UNL     1      -4.611  -9.806  12.080  0.00  0.00    +0.015 A 
ATOM     35  C   UNL     1      -4.003  -8.821   9.541  0.00  0.00    +0.001 A 
ATOM     36  C   UNL     1      -5.504  -8.953  11.429  0.00  0.00    +0.001 A 
ATOM     37  C   UNL     1      -5.199  -8.461  10.160  0.00  0.00    +0.000 A 
ENDBRANCH   1  32
ENDBRANCH  28   1
ENDBRANCH  25  28
ENDBRANCH  17   9
ENDBRANCH  15  17
TORSDOF 10
ENDMDL
MODEL 9
REMARK VINA RESULT:      -7.1     19.834     23.196
REMARK  Name = 40780671
REMARK  10 active torsions:
REMARK  status: ('A' for Active; 'I' for Inactive)
REMARK    1  A    between atoms: S_1  and  C_28
REMARK    2  A    between atoms: S_1  and  C_32
REMARK    3  A    between atoms: O_4  and  C_13
REMARK    4  A    between atoms: O_5  and  C_14
REMARK    5  A    between atoms: N_8  and  C_23
REMARK    6  A    between atoms: N_9  and  C_17
REMARK    7  A    between atoms: C_12  and  C_16
REMARK    8  A    between atoms: C_15  and  C_17
REMARK    9  A    between atoms: C_16  and  C_18
REMARK   10  A    between atoms: C_25  and  C_28
REMARK                            x       y       z     vdW  Elec       q    Type
REMARK                         _______ _______ _______ _____ _____    ______ ____
ROOT
ATOM      3  O   UNL     1      -5.466 -12.574  17.445  0.00  0.00    -0.366 OA
ATOM     12  C   UNL     1      -4.211 -11.869  17.592  0.00  0.00    +0.159 C 
ATOM     13  C   UNL     1      -4.099 -11.496  19.066  0.00  0.00    +0.175 C 
ATOM     14  C   UNL     1      -5.553 -11.373  19.472  0.00  0.00    +0.176 C 
ATOM     15  C   UNL     1      -6.185 -12.511  18.689  0.00  0.00    +0.171 C 
ENDROOT
BRANCH  13   4
ATOM      4  O   UNL     1      -3.483 -12.584  19.752  0.00  0.00    -0.387 OA
ATOM     38  H   UNL     1      -2.521 -12.451  19.704  0.00  0.00    +0.210 HD
ENDBRANCH  13   4
BRANCH  14   5
ATOM      5  O   UNL     1      -5.758 -11.507  20.862  0.00  0.00    -0.387 OA
ATOM     39  H   UNL     1      -5.850 -10.613  21.231  0.00  0.00    +0.210 HD
ENDBRANCH  14   5
BRANCH  12  16
ATOM     16  C   UNL     1      -4.248 -10.657  16.670  0.00  0.00    +0.130 C 
BRANCH  16  18
ATOM      6  O   UNL     1      -1.934 -10.780  16.152  0.00  0.00    -0.276 OA
ATOM      7  N   UNL     1      -3.401 -10.652  14.354  0.00  0.00    -0.298 N 
ATOM      8  N   UNL     1      -3.957 -10.770  11.515  0.00  0.00    -0.327 N 
ATOM     18  C   UNL     1      -3.084 -10.704  15.712  0.00  0.00    +0.218 C 
ATOM     19  C   UNL     1      -4.768 -10.561  13.833  0.00  0.00    +0.126 C 
ATOM     20  C   UNL     1      -2.331 -10.700  13.362  0.00  0.00    +0.126 C 
ATOM     21  C   UNL     1      -4.823 -10.001  12.413  0.00  0.00    +0.124 C 
ATOM     22  C   UNL     1      -2.767 -11.409  12.083  0.00  0.00    +0.124 C 
BRANCH   8  23
ATOM      2  F   UNL     1      -5.050 -11.134   6.115  0.00  0.00    -0.205 F 
ATOM     23  C   UNL     1      -4.232 -10.862  10.154  0.00  0.00    +0.030 A 
ATOM     26  C   UNL     1      -4.601  -9.722   9.438  0.00  0.00    +0.026 A 
ATOM     27  C   UNL     1      -4.139 -12.092   9.504  0.00  0.00    +0.026 A 
ATOM     29  C   UNL     1      -4.877  -9.814   8.074  0.00  0.00    +0.040 A 
ATOM     30  C   UNL     1      -4.416 -12.184   8.140  0.00  0.00    +0.040 A 
ATOM     31  C   UNL     1      -4.784 -11.045   7.425  0.00  0.00    +0.124 A 
ENDBRANCH   8  23
ENDBRANCH  16  18
ENDBRANCH  12  16
BRANCH  15  17
ATOM     17  C   UNL     1      -7.664 -12.305  18.415  0.00  0.00    +0.179 C 
BRANCH  17   9
ATOM      9  N   UNL     1      -7.902 -11.175  17.449  0.00  0.00    -0.249 N 
ATOM     10  N   UNL     1      -7.680  -9.903  17.815  0.00  0.00    -0.065 NA
ATOM     11  N   UNL     1      -7.977  -9.135  16.772  0.00  0.00    -0.134 NA
ATOM     24  C   UNL     1      -8.347 -11.259  16.166  0.00  0.00    +0.134 A 
ATOM     25  C   UNL     1      -8.388  -9.951  15.754  0.00  0.00    +0.093 A 
BRANCH  25  28
ATOM     28  C   UNL     1      -8.791  -9.401  14.453  0.00  0.00    +0.133 C 
BRANCH  28   1
ATOM      1  S   UNL     1     -10.522  -9.788  14.014  0.00  0.00    -0.119 S 
BRANCH   1  32
ATOM     32  C   UNL     1     -11.380  -8.404  14.749  0.00  0.00    +0.008 A 
ATOM     33  C   UNL     1     -10.663  -7.289  15.182  0.00  0.00    +0.015 A 
ATOM     34  C   UNL     1     -12.768  -8.439  14.890  0.00  0.00    +0.015 A 
ATOM     35  C   UNL     1     -11.333  -6.209  15.758  0.00  0.00    +0.001 A 
ATOM     36  C   UNL     1     -13.438  -7.358  15.465  0.00  0.00    +0.001 A 
ATOM     37  C   UNL     1     -12.720  -6.244  15.898  0.00  0.00    +0.000 A 
ENDBRANCH   1  32
ENDBRANCH  28   1
ENDBRANCH  25  28
ENDBRANCH  17   9
ENDBRANCH  15  17
TORSDOF 10
ENDMDL
MODEL 10
REMARK VINA RESULT:      -7.1      3.765     10.293
REMARK  Name = 40780671
REMARK  10 active torsions:
REMARK  status: ('A' for Active; 'I' for Inactive)
REMARK    1  A    between atoms: S_1  and  C_28
REMARK    2  A    between atoms: S_1  and  C_32
REMARK    3  A    between atoms: O_4  and  C_13
REMARK    4  A    between atoms: O_5  and  C_14
REMARK    5  A    between atoms: N_8  and  C_23
REMARK    6  A    between atoms: N_9  and  C_17
REMARK    7  A    between atoms: C_12  and  C_16
REMARK    8  A    between atoms: C_15  and  C_17
REMARK    9  A    between atoms: C_16  and  C_18
REMARK   10  A    between atoms: C_25  and  C_28
REMARK                            x       y       z     vdW  Elec       q    Type
REMARK                         _______ _______ _______ _____ _____    ______ ____
ROOT
ATOM      3  O   UNL     1     -17.690   3.732  26.224  0.00  0.00    -0.366 OA
ATOM     12  C   UNL     1     -17.197   2.543  25.566  0.00  0.00    +0.159 C 
ATOM     13  C   UNL     1     -16.858   1.549  26.672  0.00  0.00    +0.175 C 
ATOM     14  C   UNL     1     -16.507   2.466  27.824  0.00  0.00    +0.176 C 
ATOM     15  C   UNL     1     -17.522   3.582  27.646  0.00  0.00    +0.171 C 
ENDROOT
BRANCH  13   4
ATOM      4  O   UNL     1     -18.038   0.804  26.973  0.00  0.00    -0.387 OA
ATOM     38  H   UNL     1     -17.766  -0.113  27.145  0.00  0.00    +0.210 HD
ENDBRANCH  13   4
BRANCH  14   5
ATOM      5  O   UNL     1     -16.618   1.845  29.087  0.00  0.00    -0.387 OA
ATOM     39  H   UNL     1     -15.958   2.253  29.671  0.00  0.00    +0.210 HD
ENDBRANCH  14   5
BRANCH  12  16
ATOM     16  C   UNL     1     -15.987   2.940  24.730  0.00  0.00    +0.130 C 
BRANCH  16  18
ATOM      6  O   UNL     1     -17.565   3.404  23.017  0.00  0.00    -0.276 OA
ATOM      7  N   UNL     1     -15.520   4.499  22.877  0.00  0.00    -0.298 N 
ATOM      8  N   UNL     1     -13.778   6.485  21.692  0.00  0.00    -0.327 N 
ATOM     18  C   UNL     1     -16.439   3.630  23.468  0.00  0.00    +0.218 C 
ATOM     19  C   UNL     1     -14.183   4.767  23.412  0.00  0.00    +0.126 C 
ATOM     20  C   UNL     1     -15.885   5.211  21.655  0.00  0.00    +0.126 C 
ATOM     21  C   UNL     1     -13.219   5.303  22.355  0.00  0.00    +0.124 C 
ATOM     22  C   UNL     1     -15.236   6.590  21.581  0.00  0.00    +0.124 C 
BRANCH   8  23
ATOM      2  F   UNL     1     -10.496  10.365  19.535  0.00  0.00    -0.205 F 
ATOM     23  C   UNL     1     -12.951   7.463  21.148  0.00  0.00    +0.030 A 
ATOM     26  C   UNL     1     -11.899   7.099  20.306  0.00  0.00    +0.026 A 
ATOM     27  C   UNL     1     -13.172   8.808  21.443  0.00  0.00    +0.026 A 
ATOM     29  C   UNL     1     -11.070   8.078  19.761  0.00  0.00    +0.040 A 
ATOM     30  C   UNL     1     -12.343   9.788  20.899  0.00  0.00    +0.040 A 
ATOM     31  C   UNL     1     -11.293   9.423  20.057  0.00  0.00    +0.124 A 
ENDBRANCH   8  23
ENDBRANCH  16  18
ENDBRANCH  12  16
BRANCH  15  17
ATOM     17  C   UNL     1     -17.079   4.903  28.250  0.00  0.00    +0.179 C 
BRANCH  17   9
ATOM      9  N   UNL     1     -17.027   4.841  29.753  0.00  0.00    -0.249 N 
ATOM     10  N   UNL     1     -17.967   4.177  30.445  0.00  0.00    -0.065 NA
ATOM     11  N   UNL     1     -17.667   4.298  31.733  0.00  0.00    -0.134 NA
ATOM     24  C   UNL     1     -16.101   5.404  30.576  0.00  0.00    +0.134 A 
ATOM     25  C   UNL     1     -16.527   5.047  31.831  0.00  0.00    +0.093 A 
BRANCH  25  28
ATOM     28  C   UNL     1     -15.933   5.363  33.136  0.00  0.00    +0.133 C 
BRANCH  28   1
ATOM      1  S   UNL     1     -14.168   4.903  33.253  0.00  0.00    -0.119 S 
BRANCH   1  32
ATOM     32  C   UNL     1     -14.185   3.284  32.497  0.00  0.00    +0.008 A 
ATOM     33  C   UNL     1     -13.573   3.087  31.259  0.00  0.00    +0.015 A 
ATOM     34  C   UNL     1     -14.810   2.219  33.144  0.00  0.00    +0.015 A 
ATOM     35  C   UNL     1     -13.588   1.823  30.668  0.00  0.00    +0.001 A 
ATOM     36  C   UNL     1     -14.824   0.955  32.553  0.00  0.00    +0.001 A 
ATOM     37  C   UNL     1     -14.213   0.758  31.315  0.00  0.00    +0.000 A 
ENDBRANCH   1  32
ENDBRANCH  28   1
ENDBRANCH  25  28
ENDBRANCH  17   9
ENDBRANCH  15  17
TORSDOF 10
ENDMDL
