MODEL 1
REMARK VINA RESULT:      -6.3      0.000      0.000
REMARK  Name = 45783552
REMARK  9 active torsions:
REMARK  status: ('A' for Active; 'I' for Inactive)
REMARK    1  A    between atoms: O_3  and  C_24
REMARK    2  A    between atoms: O_3  and  C_25
REMARK    3  A    between atoms: O_4  and  C_26
REMARK    4  A    between atoms: O_4  and  C_27
REMARK    5  A    between atoms: N_5  and  C_13
REMARK    6  A    between atoms: C_9  and  C_14
REMARK    7  A    between atoms: C_13  and  C_15
REMARK    8  A    between atoms: C_17  and  C_19
REMARK    9  A    between atoms: C_25  and  C_26
REMARK                            x       y       z     vdW  Elec       q    Type
REMARK                         _______ _______ _______ _____ _____    ______ ____
ROOT
ATOM      1  O   UNL     1      15.313   8.406  19.863  0.00  0.00    -0.336 OA
ATOM      6  N   UNL     1      16.186   6.487  19.105  0.00  0.00    -0.190 NA
ATOM      7  N   UNL     1      16.520   8.228  20.552  0.00  0.00    -0.056 NA
ATOM     14  C   UNL     1      15.193   7.337  19.032  0.00  0.00    +0.245 A 
ATOM     17  C   UNL     1      16.975   7.077  20.050  0.00  0.00    +0.204 A 
ENDROOT
BRANCH  17  19
ATOM      8  N   UNL     1      20.049   6.440  22.042  0.00  0.00    -0.221 NA
ATOM     19  C   UNL     1      18.212   6.486  20.471  0.00  0.00    +0.041 A 
ATOM     21  C   UNL     1      18.780   5.430  19.766  0.00  0.00    +0.018 A 
ATOM     22  C   UNL     1      18.881   6.950  21.592  0.00  0.00    +0.126 A 
ATOM     23  C   UNL     1      19.981   4.880  20.197  0.00  0.00    +0.068 A 
ATOM     24  C   UNL     1      20.571   5.416  21.331  0.00  0.00    +0.215 A 
BRANCH  24   3
ATOM      3  O   UNL     1      21.755   4.889  21.776  0.00  0.00    -0.474 OA
BRANCH   3  25
ATOM     25  C   UNL     1      21.868   3.471  21.769  0.00  0.00    +0.258 C 
BRANCH  25  26
ATOM     26  C   UNL     1      23.285   3.085  22.147  0.00  0.00    +0.200 C 
BRANCH  26   4
ATOM      4  O   UNL     1      23.712   2.014  21.315  0.00  0.00    -0.380 OA
ATOM     27  C   UNL     1      24.733   2.427  20.417  0.00  0.00    +0.194 C 
ENDBRANCH  26   4
ENDBRANCH  25  26
ENDBRANCH   3  25
ENDBRANCH  24   3
ENDBRANCH  17  19
BRANCH  14   9
ATOM      5  N   UNL     1      12.789   7.939  18.803  0.00  0.00    -0.284 NA
ATOM      9  C   UNL     1      13.953   7.293  18.164  0.00  0.00    +0.146 C 
ATOM     10  C   UNL     1      14.133   8.044  16.831  0.00  0.00    +0.030 C 
ATOM     11  C   UNL     1      12.991   9.048  16.782  0.00  0.00    +0.017 C 
ATOM     12  C   UNL     1      11.957   8.457  17.718  0.00  0.00    +0.085 C 
BRANCH   5  13
ATOM     13  C   UNL     1      12.049   7.046  19.684  0.00  0.00    +0.159 C 
BRANCH  13  15
ATOM      2  O   UNL     1      12.185   8.926  21.225  0.00  0.00    -0.467 OA
ATOM     15  C   UNL     1      11.570   7.752  20.925  0.00  0.00    +0.119 A 
ATOM     16  C   UNL     1      10.605   7.459  21.860  0.00  0.00    +0.046 A 
ATOM     18  C   UNL     1      10.629   8.522  22.796  0.00  0.00    +0.041 A 
ATOM     20  C   UNL     1      11.608   9.387  22.365  0.00  0.00    +0.195 A 
ENDBRANCH  13  15
ENDBRANCH   5  13
ENDBRANCH  14   9
TORSDOF 8
ENDMDL
MODEL 2
REMARK VINA RESULT:      -6.2      1.928      2.592
REMARK  Name = 45783552
REMARK  9 active torsions:
REMARK  status: ('A' for Active; 'I' for Inactive)
REMARK    1  A    between atoms: O_3  and  C_24
REMARK    2  A    between atoms: O_3  and  C_25
REMARK    3  A    between atoms: O_4  and  C_26
REMARK    4  A    between atoms: O_4  and  C_27
REMARK    5  A    between atoms: N_5  and  C_13
REMARK    6  A    between atoms: C_9  and  C_14
REMARK    7  A    between atoms: C_13  and  C_15
REMARK    8  A    between atoms: C_17  and  C_19
REMARK    9  A    between atoms: C_25  and  C_26
REMARK                            x       y       z     vdW  Elec       q    Type
REMARK                         _______ _______ _______ _____ _____    ______ ____
ROOT
ATOM      1  O   UNL     1      16.147   5.981  18.334  0.00  0.00    -0.336 OA
ATOM      6  N   UNL     1      16.709   6.937  20.280  0.00  0.00    -0.190 NA
ATOM      7  N   UNL     1      17.436   5.522  18.635  0.00  0.00    -0.056 NA
ATOM     14  C   UNL     1      15.794   6.808  19.353  0.00  0.00    +0.245 A 
ATOM     17  C   UNL     1      17.697   6.129  19.797  0.00  0.00    +0.204 A 
ENDROOT
BRANCH  17  19
ATOM      8  N   UNL     1      21.018   4.749  20.742  0.00  0.00    -0.221 NA
ATOM     19  C   UNL     1      18.936   5.952  20.498  0.00  0.00    +0.041 A 
ATOM     21  C   UNL     1      19.270   6.763  21.578  0.00  0.00    +0.018 A 
ATOM     22  C   UNL     1      19.837   4.969  20.123  0.00  0.00    +0.126 A 
ATOM     23  C   UNL     1      20.476   6.567  22.240  0.00  0.00    +0.068 A 
ATOM     24  C   UNL     1      21.308   5.556  21.787  0.00  0.00    +0.215 A 
BRANCH  24   3
ATOM      3  O   UNL     1      22.504   5.343  22.423  0.00  0.00    -0.474 OA
BRANCH   3  25
ATOM     25  C   UNL     1      22.684   4.073  23.038  0.00  0.00    +0.258 C 
BRANCH  25  26
ATOM     26  C   UNL     1      23.160   4.276  24.463  0.00  0.00    +0.200 C 
BRANCH  26   4
ATOM      4  O   UNL     1      22.093   4.813  25.236  0.00  0.00    -0.380 OA
ATOM     27  C   UNL     1      22.481   6.009  25.898  0.00  0.00    +0.194 C 
ENDBRANCH  26   4
ENDBRANCH  25  26
ENDBRANCH   3  25
ENDBRANCH  24   3
ENDBRANCH  17  19
BRANCH  14   9
ATOM      5  N   UNL     1      14.321   8.690  20.044  0.00  0.00    -0.284 NA
ATOM      9  C   UNL     1      14.422   7.442  19.263  0.00  0.00    +0.146 C 
ATOM     10  C   UNL     1      14.048   7.849  17.825  0.00  0.00    +0.030 C 
ATOM     11  C   UNL     1      13.695   9.327  17.909  0.00  0.00    +0.017 C 
ATOM     12  C   UNL     1      13.328   9.523  19.366  0.00  0.00    +0.085 C 
BRANCH   5  13
ATOM     13  C   UNL     1      13.985   8.466  21.444  0.00  0.00    +0.159 C 
BRANCH  13  15
ATOM      2  O   UNL     1      12.504   6.538  21.317  0.00  0.00    -0.467 OA
ATOM     15  C   UNL     1      12.614   7.862  21.601  0.00  0.00    +0.119 A 
ATOM     16  C   UNL     1      11.398   8.377  21.985  0.00  0.00    +0.046 A 
ATOM     18  C   UNL     1      10.481   7.299  21.934  0.00  0.00    +0.041 A 
ATOM     20  C   UNL     1      11.203   6.204  21.522  0.00  0.00    +0.195 A 
ENDBRANCH  13  15
ENDBRANCH   5  13
ENDBRANCH  14   9
TORSDOF 8
ENDMDL
MODEL 3
REMARK VINA RESULT:      -6.2      1.831      3.552
REMARK  Name = 45783552
REMARK  9 active torsions:
REMARK  status: ('A' for Active; 'I' for Inactive)
REMARK    1  A    between atoms: O_3  and  C_24
REMARK    2  A    between atoms: O_3  and  C_25
REMARK    3  A    between atoms: O_4  and  C_26
REMARK    4  A    between atoms: O_4  and  C_27
REMARK    5  A    between atoms: N_5  and  C_13
REMARK    6  A    between atoms: C_9  and  C_14
REMARK    7  A    between atoms: C_13  and  C_15
REMARK    8  A    between atoms: C_17  and  C_19
REMARK    9  A    between atoms: C_25  and  C_26
REMARK                            x       y       z     vdW  Elec       q    Type
REMARK                         _______ _______ _______ _____ _____    ______ ____
ROOT
ATOM      1  O   UNL     1      14.427   6.774  19.547  0.00  0.00    -0.336 OA
ATOM      6  N   UNL     1      15.648   7.610  21.228  0.00  0.00    -0.190 NA
ATOM      7  N   UNL     1      15.716   6.249  19.390  0.00  0.00    -0.056 NA
ATOM     14  C   UNL     1      14.473   7.563  20.652  0.00  0.00    +0.245 A 
ATOM     17  C   UNL     1      16.377   6.788  20.419  0.00  0.00    +0.204 A 
ENDROOT
BRANCH  17  19
ATOM      8  N   UNL     1      19.763   7.009  21.940  0.00  0.00    -0.221 NA
ATOM     19  C   UNL     1      17.765   6.527  20.666  0.00  0.00    +0.041 A 
ATOM     21  C   UNL     1      18.463   5.586  19.915  0.00  0.00    +0.018 A 
ATOM     22  C   UNL     1      18.455   7.205  21.658  0.00  0.00    +0.126 A 
ATOM     23  C   UNL     1      19.809   5.357  20.176  0.00  0.00    +0.068 A 
ATOM     24  C   UNL     1      20.407   6.088  21.190  0.00  0.00    +0.215 A 
BRANCH  24   3
ATOM      3  O   UNL     1      21.734   5.879  21.466  0.00  0.00    -0.474 OA
BRANCH   3  25
ATOM     25  C   UNL     1      22.078   4.622  22.037  0.00  0.00    +0.258 C 
BRANCH  25  26
ATOM     26  C   UNL     1      22.833   4.857  23.331  0.00  0.00    +0.200 C 
BRANCH  26   4
ATOM      4  O   UNL     1      22.178   4.161  24.384  0.00  0.00    -0.380 OA
ATOM     27  C   UNL     1      23.107   3.663  25.337  0.00  0.00    +0.194 C 
ENDBRANCH  26   4
ENDBRANCH  25  26
ENDBRANCH   3  25
ENDBRANCH  24   3
ENDBRANCH  17  19
BRANCH  14   9
ATOM      5  N   UNL     1      12.357   8.615  19.872  0.00  0.00    -0.284 NA
ATOM      9  C   UNL     1      13.184   8.256  21.041  0.00  0.00    +0.146 C 
ATOM     10  C   UNL     1      12.271   7.368  21.908  0.00  0.00    +0.030 C 
ATOM     11  C   UNL     1      10.937   7.337  21.177  0.00  0.00    +0.017 C 
ATOM     12  C   UNL     1      10.967   8.590  20.326  0.00  0.00    +0.085 C 
BRANCH   5  13
ATOM     13  C   UNL     1      12.719   9.898  19.285  0.00  0.00    +0.159 C 
BRANCH  13  15
ATOM      2  O   UNL     1      12.211   9.502  16.937  0.00  0.00    -0.467 OA
ATOM     15  C   UNL     1      13.179   9.752  17.858  0.00  0.00    +0.119 A 
ATOM     16  C   UNL     1      14.413   9.821  17.256  0.00  0.00    +0.046 A 
ATOM     18  C   UNL     1      14.191   9.598  15.876  0.00  0.00    +0.041 A 
ATOM     20  C   UNL     1      12.836   9.409  15.734  0.00  0.00    +0.195 A 
ENDBRANCH  13  15
ENDBRANCH   5  13
ENDBRANCH  14   9
TORSDOF 8
ENDMDL
MODEL 4
REMARK VINA RESULT:      -6.1      2.165     10.203
REMARK  Name = 45783552
REMARK  9 active torsions:
REMARK  status: ('A' for Active; 'I' for Inactive)
REMARK    1  A    between atoms: O_3  and  C_24
REMARK    2  A    between atoms: O_3  and  C_25
REMARK    3  A    between atoms: O_4  and  C_26
REMARK    4  A    between atoms: O_4  and  C_27
REMARK    5  A    between atoms: N_5  and  C_13
REMARK    6  A    between atoms: C_9  and  C_14
REMARK    7  A    between atoms: C_13  and  C_15
REMARK    8  A    between atoms: C_17  and  C_19
REMARK    9  A    between atoms: C_25  and  C_26
REMARK                            x       y       z     vdW  Elec       q    Type
REMARK                         _______ _______ _______ _____ _____    ______ ____
ROOT
ATOM      1  O   UNL     1      21.372   4.988  20.415  0.00  0.00    -0.336 OA
ATOM      6  N   UNL     1      20.269   6.878  20.894  0.00  0.00    -0.190 NA
ATOM      7  N   UNL     1      20.032   4.751  20.085  0.00  0.00    -0.056 NA
ATOM     14  C   UNL     1      21.425   6.262  20.883  0.00  0.00    +0.245 A 
ATOM     17  C   UNL     1      19.446   5.911  20.395  0.00  0.00    +0.204 A 
ENDROOT
BRANCH  17  19
ATOM      8  N   UNL     1      16.097   6.053  18.786  0.00  0.00    -0.221 NA
ATOM     19  C   UNL     1      18.040   6.136  20.221  0.00  0.00    +0.041 A 
ATOM     21  C   UNL     1      17.261   6.638  21.259  0.00  0.00    +0.018 A 
ATOM     22  C   UNL     1      17.415   5.862  19.015  0.00  0.00    +0.126 A 
ATOM     23  C   UNL     1      15.901   6.848  21.060  0.00  0.00    +0.068 A 
ATOM     24  C   UNL     1      15.372   6.542  19.816  0.00  0.00    +0.215 A 
BRANCH  24   3
ATOM      3  O   UNL     1      14.033   6.740  19.597  0.00  0.00    -0.474 OA
BRANCH   3  25
ATOM     25  C   UNL     1      13.553   8.072  19.735  0.00  0.00    +0.258 C 
BRANCH  25  26
ATOM     26  C   UNL     1      12.235   8.201  18.996  0.00  0.00    +0.200 C 
BRANCH  26   4
ATOM      4  O   UNL     1      11.190   7.698  19.819  0.00  0.00    -0.380 OA
ATOM     27  C   UNL     1      10.929   8.563  20.916  0.00  0.00    +0.194 C 
ENDBRANCH  26   4
ENDBRANCH  25  26
ENDBRANCH   3  25
ENDBRANCH  24   3
ENDBRANCH  17  19
BRANCH  14   9
ATOM      5  N   UNL     1      23.832   5.729  21.222  0.00  0.00    -0.284 NA
ATOM      9  C   UNL     1      22.787   6.768  21.312  0.00  0.00    +0.146 C 
ATOM     10  C   UNL     1      23.300   7.918  20.425  0.00  0.00    +0.030 C 
ATOM     11  C   UNL     1      24.665   7.460  19.931  0.00  0.00    +0.017 C 
ATOM     12  C   UNL     1      25.088   6.430  20.959  0.00  0.00    +0.085 C 
BRANCH   5  13
ATOM     13  C   UNL     1      23.911   4.890  22.410  0.00  0.00    +0.159 C 
BRANCH  13  15
ATOM      2  O   UNL     1      24.079   2.562  23.103  0.00  0.00    -0.467 OA
ATOM     15  C   UNL     1      24.022   3.430  22.059  0.00  0.00    +0.119 A 
ATOM     16  C   UNL     1      24.080   2.752  20.864  0.00  0.00    +0.046 A 
ATOM     18  C   UNL     1      24.179   1.379  21.195  0.00  0.00    +0.041 A 
ATOM     20  C   UNL     1      24.175   1.317  22.568  0.00  0.00    +0.195 A 
ENDBRANCH  13  15
ENDBRANCH   5  13
ENDBRANCH  14   9
TORSDOF 8
ENDMDL
MODEL 5
REMARK VINA RESULT:      -6.0      1.789      3.417
REMARK  Name = 45783552
REMARK  9 active torsions:
REMARK  status: ('A' for Active; 'I' for Inactive)
REMARK    1  A    between atoms: O_3  and  C_24
REMARK    2  A    between atoms: O_3  and  C_25
REMARK    3  A    between atoms: O_4  and  C_26
REMARK    4  A    between atoms: O_4  and  C_27
REMARK    5  A    between atoms: N_5  and  C_13
REMARK    6  A    between atoms: C_9  and  C_14
REMARK    7  A    between atoms: C_13  and  C_15
REMARK    8  A    between atoms: C_17  and  C_19
REMARK    9  A    between atoms: C_25  and  C_26
REMARK                            x       y       z     vdW  Elec       q    Type
REMARK                         _______ _______ _______ _____ _____    ______ ____
ROOT
ATOM      1  O   UNL     1      15.101  10.236  20.907  0.00  0.00    -0.336 OA
ATOM      6  N   UNL     1      15.289   8.117  20.203  0.00  0.00    -0.190 NA
ATOM      7  N   UNL     1      16.415   9.845  21.195  0.00  0.00    -0.056 NA
ATOM     14  C   UNL     1      14.507   9.161  20.325  0.00  0.00    +0.245 A 
ATOM     17  C   UNL     1      16.449   8.586  20.750  0.00  0.00    +0.204 A 
ENDROOT
BRANCH  17  19
ATOM      8  N   UNL     1      18.803   5.768  20.165  0.00  0.00    -0.221 NA
ATOM     19  C   UNL     1      17.623   7.767  20.839  0.00  0.00    +0.041 A 
ATOM     21  C   UNL     1      18.694   8.135  21.647  0.00  0.00    +0.018 A 
ATOM     22  C   UNL     1      17.727   6.585  20.125  0.00  0.00    +0.126 A 
ATOM     23  C   UNL     1      19.818   7.321  21.715  0.00  0.00    +0.068 A 
ATOM     24  C   UNL     1      19.824   6.158  20.961  0.00  0.00    +0.215 A 
BRANCH  24   3
ATOM      3  O   UNL     1      20.921   5.338  21.010  0.00  0.00    -0.474 OA
BRANCH   3  25
ATOM     25  C   UNL     1      22.021   5.790  21.792  0.00  0.00    +0.258 C 
BRANCH  25  26
ATOM     26  C   UNL     1      22.809   4.589  22.278  0.00  0.00    +0.200 C 
BRANCH  26   4
ATOM      4  O   UNL     1      22.044   3.898  23.258  0.00  0.00    -0.380 OA
ATOM     27  C   UNL     1      22.680   2.692  23.659  0.00  0.00    +0.194 C 
ENDBRANCH  26   4
ENDBRANCH  25  26
ENDBRANCH   3  25
ENDBRANCH  24   3
ENDBRANCH  17  19
BRANCH  14   9
ATOM      5  N   UNL     1      12.312   8.057  19.932  0.00  0.00    -0.284 NA
ATOM      9  C   UNL     1      13.060   9.330  19.912  0.00  0.00    +0.146 C 
ATOM     10  C   UNL     1      12.277  10.259  20.859  0.00  0.00    +0.030 C 
ATOM     11  C   UNL     1      11.075   9.442  21.312  0.00  0.00    +0.017 C 
ATOM     12  C   UNL     1      10.921   8.401  20.223  0.00  0.00    +0.085 C 
BRANCH   5  13
ATOM     13  C   UNL     1      12.442   7.296  18.696  0.00  0.00    +0.159 C 
BRANCH  13  15
ATOM      2  O   UNL     1      10.846   8.031  17.010  0.00  0.00    -0.467 OA
ATOM     15  C   UNL     1      12.115   8.132  17.487  0.00  0.00    +0.119 A 
ATOM     16  C   UNL     1      12.848   9.012  16.726  0.00  0.00    +0.046 A 
ATOM     18  C   UNL     1      11.974   9.483  15.717  0.00  0.00    +0.041 A 
ATOM     20  C   UNL     1      10.769   8.856  15.934  0.00  0.00    +0.195 A 
ENDBRANCH  13  15
ENDBRANCH   5  13
ENDBRANCH  14   9
TORSDOF 8
ENDMDL
MODEL 6
REMARK VINA RESULT:      -5.9     30.082     33.406
REMARK  Name = 45783552
REMARK  9 active torsions:
REMARK  status: ('A' for Active; 'I' for Inactive)
REMARK    1  A    between atoms: O_3  and  C_24
REMARK    2  A    between atoms: O_3  and  C_25
REMARK    3  A    between atoms: O_4  and  C_26
REMARK    4  A    between atoms: O_4  and  C_27
REMARK    5  A    between atoms: N_5  and  C_13
REMARK    6  A    between atoms: C_9  and  C_14
REMARK    7  A    between atoms: C_13  and  C_15
REMARK    8  A    between atoms: C_17  and  C_19
REMARK    9  A    between atoms: C_25  and  C_26
REMARK                            x       y       z     vdW  Elec       q    Type
REMARK                         _______ _______ _______ _____ _____    ______ ____
ROOT
ATOM      1  O   UNL     1     -17.430   2.329  22.179  0.00  0.00    -0.336 OA
ATOM      6  N   UNL     1     -17.196   3.851  23.805  0.00  0.00    -0.190 NA
ATOM      7  N   UNL     1     -17.165   1.609  23.351  0.00  0.00    -0.056 NA
ATOM     14  C   UNL     1     -17.430   3.640  22.534  0.00  0.00    +0.245 A 
ATOM     17  C   UNL     1     -17.040   2.576  24.265  0.00  0.00    +0.204 A 
ENDROOT
BRANCH  17  19
ATOM      8  N   UNL     1     -16.751   0.727  27.478  0.00  0.00    -0.221 NA
ATOM     19  C   UNL     1     -16.758   2.302  25.644  0.00  0.00    +0.041 A 
ATOM     21  C   UNL     1     -16.241   3.287  26.479  0.00  0.00    +0.018 A 
ATOM     22  C   UNL     1     -16.993   1.050  26.188  0.00  0.00    +0.126 A 
ATOM     23  C   UNL     1     -15.979   2.994  27.812  0.00  0.00    +0.068 A 
ATOM     24  C   UNL     1     -16.249   1.710  28.259  0.00  0.00    +0.215 A 
BRANCH  24   3
ATOM      3  O   UNL     1     -15.999   1.396  29.570  0.00  0.00    -0.474 OA
BRANCH   3  25
ATOM     25  C   UNL     1     -15.101   0.318  29.809  0.00  0.00    +0.258 C 
BRANCH  25  26
ATOM     26  C   UNL     1     -14.772   0.268  31.288  0.00  0.00    +0.200 C 
BRANCH  26   4
ATOM      4  O   UNL     1     -14.939   1.566  31.845  0.00  0.00    -0.380 OA
ATOM     27  C   UNL     1     -13.687   2.183  32.110  0.00  0.00    +0.194 C 
ENDBRANCH  26   4
ENDBRANCH  25  26
ENDBRANCH   3  25
ENDBRANCH  24   3
ENDBRANCH  17  19
BRANCH  14   9
ATOM      5  N   UNL     1     -16.457   5.143  20.806  0.00  0.00    -0.284 NA
ATOM      9  C   UNL     1     -17.698   4.639  21.428  0.00  0.00    +0.146 C 
ATOM     10  C   UNL     1     -18.502   4.034  20.262  0.00  0.00    +0.030 C 
ATOM     11  C   UNL     1     -17.663   4.300  19.021  0.00  0.00    +0.017 C 
ATOM     12  C   UNL     1     -16.794   5.474  19.422  0.00  0.00    +0.085 C 
BRANCH   5  13
ATOM     13  C   UNL     1     -15.879   6.277  21.515  0.00  0.00    +0.159 C 
BRANCH  13  15
ATOM      2  O   UNL     1     -13.701   5.302  22.004  0.00  0.00    -0.467 OA
ATOM     15  C   UNL     1     -14.378   6.309  21.391  0.00  0.00    +0.119 A 
ATOM     16  C   UNL     1     -13.504   7.168  20.767  0.00  0.00    +0.046 A 
ATOM     18  C   UNL     1     -12.207   6.657  21.012  0.00  0.00    +0.041 A 
ATOM     20  C   UNL     1     -12.382   5.522  21.769  0.00  0.00    +0.195 A 
ENDBRANCH  13  15
ENDBRANCH   5  13
ENDBRANCH  14   9
TORSDOF 8
ENDMDL
MODEL 7
REMARK VINA RESULT:      -5.8     16.985     20.691
REMARK  Name = 45783552
REMARK  9 active torsions:
REMARK  status: ('A' for Active; 'I' for Inactive)
REMARK    1  A    between atoms: O_3  and  C_24
REMARK    2  A    between atoms: O_3  and  C_25
REMARK    3  A    between atoms: O_4  and  C_26
REMARK    4  A    between atoms: O_4  and  C_27
REMARK    5  A    between atoms: N_5  and  C_13
REMARK    6  A    between atoms: C_9  and  C_14
REMARK    7  A    between atoms: C_13  and  C_15
REMARK    8  A    between atoms: C_17  and  C_19
REMARK    9  A    between atoms: C_25  and  C_26
REMARK                            x       y       z     vdW  Elec       q    Type
REMARK                         _______ _______ _______ _____ _____    ______ ____
ROOT
ATOM      1  O   UNL     1      10.332   6.669  -1.164  0.00  0.00    -0.336 OA
ATOM      6  N   UNL     1      10.648   4.899   0.172  0.00  0.00    -0.190 NA
ATOM      7  N   UNL     1       9.986   7.088   0.127  0.00  0.00    -0.056 NA
ATOM     14  C   UNL     1      10.710   5.369  -1.049  0.00  0.00    +0.245 A 
ATOM     17  C   UNL     1      10.199   5.990   0.857  0.00  0.00    +0.204 A 
ENDROOT
BRANCH  17  19
ATOM      8  N   UNL     1       9.067   7.002   4.251  0.00  0.00    -0.221 NA
ATOM     19  C   UNL     1       9.972   5.949   2.272  0.00  0.00    +0.041 A 
ATOM     21  C   UNL     1      10.409   4.872   3.037  0.00  0.00    +0.018 A 
ATOM     22  C   UNL     1       9.311   6.979   2.922  0.00  0.00    +0.126 A 
ATOM     23  C   UNL     1      10.176   4.860   4.408  0.00  0.00    +0.068 A 
ATOM     24  C   UNL     1       9.506   5.940   4.961  0.00  0.00    +0.215 A 
BRANCH  24   3
ATOM      3  O   UNL     1       9.264   5.951   6.310  0.00  0.00    -0.474 OA
BRANCH   3  25
ATOM     25  C   UNL     1      10.354   5.606   7.158  0.00  0.00    +0.258 C 
BRANCH  25  26
ATOM     26  C   UNL     1       9.899   4.543   8.139  0.00  0.00    +0.200 C 
BRANCH  26   4
ATOM      4  O   UNL     1      10.042   5.041   9.463  0.00  0.00    -0.380 OA
ATOM     27  C   UNL     1       8.950   4.653  10.286  0.00  0.00    +0.194 C 
ENDBRANCH  26   4
ENDBRANCH  25  26
ENDBRANCH   3  25
ENDBRANCH  24   3
ENDBRANCH  17  19
BRANCH  14   9
ATOM      5  N   UNL     1      12.128   3.605  -2.084  0.00  0.00    -0.284 NA
ATOM      9  C   UNL     1      11.139   4.674  -2.325  0.00  0.00    +0.146 C 
ATOM     10  C   UNL     1       9.970   3.973  -3.041  0.00  0.00    +0.030 C 
ATOM     11  C   UNL     1      10.418   2.529  -3.214  0.00  0.00    +0.017 C 
ATOM     12  C   UNL     1      11.929   2.614  -3.142  0.00  0.00    +0.085 C 
BRANCH   5  13
ATOM     13  C   UNL     1      13.500   4.091  -2.040  0.00  0.00    +0.159 C 
BRANCH  13  15
ATOM      2  O   UNL     1      15.452   4.151  -0.585  0.00  0.00    -0.467 OA
ATOM     15  C   UNL     1      14.122   3.890  -0.683  0.00  0.00    +0.119 A 
ATOM     16  C   UNL     1      13.619   3.484   0.531  0.00  0.00    +0.046 A 
ATOM     18  C   UNL     1      14.711   3.496   1.433  0.00  0.00    +0.041 A 
ATOM     20  C   UNL     1      15.802   3.908   0.705  0.00  0.00    +0.195 A 
ENDBRANCH  13  15
ENDBRANCH   5  13
ENDBRANCH  14   9
TORSDOF 8
ENDMDL
MODEL 8
REMARK VINA RESULT:      -5.8      1.663      3.225
REMARK  Name = 45783552
REMARK  9 active torsions:
REMARK  status: ('A' for Active; 'I' for Inactive)
REMARK    1  A    between atoms: O_3  and  C_24
REMARK    2  A    between atoms: O_3  and  C_25
REMARK    3  A    between atoms: O_4  and  C_26
REMARK    4  A    between atoms: O_4  and  C_27
REMARK    5  A    between atoms: N_5  and  C_13
REMARK    6  A    between atoms: C_9  and  C_14
REMARK    7  A    between atoms: C_13  and  C_15
REMARK    8  A    between atoms: C_17  and  C_19
REMARK    9  A    between atoms: C_25  and  C_26
REMARK                            x       y       z     vdW  Elec       q    Type
REMARK                         _______ _______ _______ _____ _____    ______ ____
ROOT
ATOM      1  O   UNL     1      14.479   7.206  21.430  0.00  0.00    -0.336 OA
ATOM      6  N   UNL     1      15.931   8.124  19.992  0.00  0.00    -0.190 NA
ATOM      7  N   UNL     1      15.733   6.669  21.747  0.00  0.00    -0.056 NA
ATOM     14  C   UNL     1      14.684   8.052  20.387  0.00  0.00    +0.245 A 
ATOM     17  C   UNL     1      16.536   7.259  20.857  0.00  0.00    +0.204 A 
ENDROOT
BRANCH  17  19
ATOM      8  N   UNL     1      20.199   7.742  21.276  0.00  0.00    -0.221 NA
ATOM     19  C   UNL     1      17.946   7.004  20.802  0.00  0.00    +0.041 A 
ATOM     21  C   UNL     1      18.441   5.828  20.247  0.00  0.00    +0.018 A 
ATOM     22  C   UNL     1      18.859   7.920  21.299  0.00  0.00    +0.126 A 
ATOM     23  C   UNL     1      19.813   5.609  20.206  0.00  0.00    +0.068 A 
ATOM     24  C   UNL     1      20.643   6.589  20.729  0.00  0.00    +0.215 A 
BRANCH  24   3
ATOM      3  O   UNL     1      21.999   6.396  20.701  0.00  0.00    -0.474 OA
BRANCH   3  25
ATOM     25  C   UNL     1      22.451   5.068  20.461  0.00  0.00    +0.258 C 
BRANCH  25  26
ATOM     26  C   UNL     1      23.953   5.087  20.255  0.00  0.00    +0.200 C 
BRANCH  26   4
ATOM      4  O   UNL     1      24.489   3.823  20.627  0.00  0.00    -0.380 OA
ATOM     27  C   UNL     1      25.049   3.146  19.510  0.00  0.00    +0.194 C 
ENDBRANCH  26   4
ENDBRANCH  25  26
ENDBRANCH   3  25
ENDBRANCH  24   3
ENDBRANCH  17  19
BRANCH  14   9
ATOM      5  N   UNL     1      12.341   7.854  19.574  0.00  0.00    -0.284 NA
ATOM      9  C   UNL     1      13.464   8.771  19.850  0.00  0.00    +0.146 C 
ATOM     10  C   UNL     1      12.894   9.800  20.845  0.00  0.00    +0.030 C 
ATOM     11  C   UNL     1      11.432   9.416  21.019  0.00  0.00    +0.017 C 
ATOM     12  C   UNL     1      11.117   8.632  19.762  0.00  0.00    +0.085 C 
BRANCH   5  13
ATOM     13  C   UNL     1      12.407   7.247  18.251  0.00  0.00    +0.159 C 
BRANCH  13  15
ATOM      2  O   UNL     1      14.061   8.177  16.725  0.00  0.00    -0.467 OA
ATOM     15  C   UNL     1      12.787   8.249  17.193  0.00  0.00    +0.119 A 
ATOM     16  C   UNL     1      12.099   9.264  16.569  0.00  0.00    +0.046 A 
ATOM     18  C   UNL     1      13.010   9.853  15.659  0.00  0.00    +0.041 A 
ATOM     20  C   UNL     1      14.188   9.157  15.793  0.00  0.00    +0.195 A 
ENDBRANCH  13  15
ENDBRANCH   5  13
ENDBRANCH  14   9
TORSDOF 8
ENDMDL
MODEL 9
REMARK VINA RESULT:      -5.8      2.572      9.328
REMARK  Name = 45783552
REMARK  9 active torsions:
REMARK  status: ('A' for Active; 'I' for Inactive)
REMARK    1  A    between atoms: O_3  and  C_24
REMARK    2  A    between atoms: O_3  and  C_25
REMARK    3  A    between atoms: O_4  and  C_26
REMARK    4  A    between atoms: O_4  and  C_27
REMARK    5  A    between atoms: N_5  and  C_13
REMARK    6  A    between atoms: C_9  and  C_14
REMARK    7  A    between atoms: C_13  and  C_15
REMARK    8  A    between atoms: C_17  and  C_19
REMARK    9  A    between atoms: C_25  and  C_26
REMARK                            x       y       z     vdW  Elec       q    Type
REMARK                         _______ _______ _______ _____ _____    ______ ____
ROOT
ATOM      1  O   UNL     1      21.836   6.945  21.339  0.00  0.00    -0.336 OA
ATOM      6  N   UNL     1      20.319   5.305  21.498  0.00  0.00    -0.190 NA
ATOM      7  N   UNL     1      20.639   7.471  20.836  0.00  0.00    -0.056 NA
ATOM     14  C   UNL     1      21.560   5.667  21.707  0.00  0.00    +0.245 A 
ATOM     17  C   UNL     1      19.793   6.445  20.963  0.00  0.00    +0.204 A 
ENDROOT
BRANCH  17  19
ATOM      8  N   UNL     1      16.682   5.907  18.999  0.00  0.00    -0.221 NA
ATOM     19  C   UNL     1      18.418   6.525  20.564  0.00  0.00    +0.041 A 
ATOM     21  C   UNL     1      17.498   7.261  21.304  0.00  0.00    +0.018 A 
ATOM     22  C   UNL     1      17.963   5.872  19.430  0.00  0.00    +0.126 A 
ATOM     23  C   UNL     1      16.172   7.322  20.892  0.00  0.00    +0.068 A 
ATOM     24  C   UNL     1      15.818   6.633  19.742  0.00  0.00    +0.215 A 
BRANCH  24   3
ATOM      3  O   UNL     1      14.516   6.677  19.316  0.00  0.00    -0.474 OA
BRANCH   3  25
ATOM     25  C   UNL     1      13.528   6.948  20.304  0.00  0.00    +0.258 C 
BRANCH  25  26
ATOM     26  C   UNL     1      12.317   7.567  19.634  0.00  0.00    +0.200 C 
BRANCH  26   4
ATOM      4  O   UNL     1      11.149   7.204  20.360  0.00  0.00    -0.380 OA
ATOM     27  C   UNL     1      11.460   6.351  21.454  0.00  0.00    +0.194 C 
ENDBRANCH  26   4
ENDBRANCH  25  26
ENDBRANCH   3  25
ENDBRANCH  24   3
ENDBRANCH  17  19
BRANCH  14   9
ATOM      5  N   UNL     1      22.520   4.576  23.727  0.00  0.00    -0.284 NA
ATOM      9  C   UNL     1      22.707   4.870  22.292  0.00  0.00    +0.146 C 
ATOM     10  C   UNL     1      22.872   3.490  21.628  0.00  0.00    +0.030 C 
ATOM     11  C   UNL     1      22.826   2.490  22.774  0.00  0.00    +0.017 C 
ATOM     12  C   UNL     1      23.215   3.315  23.983  0.00  0.00    +0.085 C 
BRANCH   5  13
ATOM     13  C   UNL     1      22.988   5.646  24.598  0.00  0.00    +0.159 C 
BRANCH  13  15
ATOM      2  O   UNL     1      21.460   5.689  26.493  0.00  0.00    -0.467 OA
ATOM     15  C   UNL     1      21.853   6.298  25.344  0.00  0.00    +0.119 A 
ATOM     16  C   UNL     1      21.096   7.422  25.109  0.00  0.00    +0.046 A 
ATOM     18  C   UNL     1      20.178   7.509  26.183  0.00  0.00    +0.041 A 
ATOM     20  C   UNL     1      20.440   6.432  26.997  0.00  0.00    +0.195 A 
ENDBRANCH  13  15
ENDBRANCH   5  13
ENDBRANCH  14   9
TORSDOF 8
ENDMDL
MODEL 10
REMARK VINA RESULT:      -5.8     28.378     31.554
REMARK  Name = 45783552
REMARK  9 active torsions:
REMARK  status: ('A' for Active; 'I' for Inactive)
REMARK    1  A    between atoms: O_3  and  C_24
REMARK    2  A    between atoms: O_3  and  C_25
REMARK    3  A    between atoms: O_4  and  C_26
REMARK    4  A    between atoms: O_4  and  C_27
REMARK    5  A    between atoms: N_5  and  C_13
REMARK    6  A    between atoms: C_9  and  C_14
REMARK    7  A    between atoms: C_13  and  C_15
REMARK    8  A    between atoms: C_17  and  C_19
REMARK    9  A    between atoms: C_25  and  C_26
REMARK                            x       y       z     vdW  Elec       q    Type
REMARK                         _______ _______ _______ _____ _____    ______ ____
ROOT
ATOM      1  O   UNL     1      -7.524 -11.018  16.293  0.00  0.00    -0.336 OA
ATOM      6  N   UNL     1      -7.787  -8.915  17.020  0.00  0.00    -0.190 NA
ATOM      7  N   UNL     1      -8.700 -10.544  15.697  0.00  0.00    -0.056 NA
ATOM     14  C   UNL     1      -7.050  -9.998  17.055  0.00  0.00    +0.245 A 
ATOM     17  C   UNL     1      -8.787  -9.299  16.174  0.00  0.00    +0.204 A 
ENDROOT
BRANCH  17  19
ATOM      8  N   UNL     1     -11.617  -7.802  14.283  0.00  0.00    -0.221 NA
ATOM     19  C   UNL     1      -9.860  -8.413  15.827  0.00  0.00    +0.041 A 
ATOM     21  C   UNL     1     -10.193  -7.337  16.643  0.00  0.00    +0.018 A 
ATOM     22  C   UNL     1     -10.596  -8.600  14.668  0.00  0.00    +0.126 A 
ATOM     23  C   UNL     1     -11.237  -6.494  16.280  0.00  0.00    +0.068 A 
ATOM     24  C   UNL     1     -11.912  -6.767  15.100  0.00  0.00    +0.215 A 
BRANCH  24   3
ATOM      3  O   UNL     1     -12.945  -5.950  14.721  0.00  0.00    -0.474 OA
BRANCH   3  25
ATOM     25  C   UNL     1     -12.624  -4.879  13.841  0.00  0.00    +0.258 C 
BRANCH  25  26
ATOM     26  C   UNL     1     -13.907  -4.226  13.367  0.00  0.00    +0.200 C 
BRANCH  26   4
ATOM      4  O   UNL     1     -13.593  -3.230  12.402  0.00  0.00    -0.380 OA
ATOM     27  C   UNL     1     -12.260  -3.367  11.928  0.00  0.00    +0.194 C 
ENDBRANCH  26   4
ENDBRANCH  25  26
ENDBRANCH   3  25
ENDBRANCH  24   3
ENDBRANCH  17  19
BRANCH  14   9
ATOM      5  N   UNL     1      -5.763 -11.577  18.483  0.00  0.00    -0.284 NA
ATOM      9  C   UNL     1      -5.767 -10.261  17.814  0.00  0.00    +0.146 C 
ATOM     10  C   UNL     1      -4.529 -10.284  16.898  0.00  0.00    +0.030 C 
ATOM     11  C   UNL     1      -3.861 -11.625  17.166  0.00  0.00    +0.017 C 
ATOM     12  C   UNL     1      -4.366 -12.006  18.543  0.00  0.00    +0.085 C 
BRANCH   5  13
ATOM     13  C   UNL     1      -6.386 -11.554  19.800  0.00  0.00    +0.159 C 
BRANCH  13  15
ATOM      2  O   UNL     1      -8.747 -10.987  19.975  0.00  0.00    -0.467 OA
ATOM     15  C   UNL     1      -7.833 -11.966  19.742  0.00  0.00    +0.119 A 
ATOM     16  C   UNL     1      -8.461 -13.164  19.494  0.00  0.00    +0.046 A 
ATOM     18  C   UNL     1      -9.851 -12.905  19.580  0.00  0.00    +0.041 A 
ATOM     20  C   UNL     1      -9.972 -11.567  19.875  0.00  0.00    +0.195 A 
ENDBRANCH  13  15
ENDBRANCH   5  13
ENDBRANCH  14   9
TORSDOF 8
ENDMDL
