MODEL 1
REMARK VINA RESULT:      -7.3      0.000      0.000
REMARK  Name = 9424630
REMARK  4 active torsions:
REMARK  status: ('A' for Active; 'I' for Inactive)
REMARK    1  A    between atoms: N_4  and  C_14
REMARK    2  A    between atoms: N_7  and  C_21
REMARK    3  A    between atoms: N_8  and  C_28
REMARK    4  A    between atoms: C_25  and  C_26
REMARK                            x       y       z     vdW  Elec       q    Type
REMARK                         _______ _______ _______ _____ _____    ______ ____
ROOT
ATOM      1  O   UNL     1       7.206   9.816   4.730  0.00  0.00    -0.268 OA
ATOM      4  N   UNL     1      11.387   7.674   6.494  0.00  0.00    -0.298 NA
ATOM      5  N   UNL     1       8.551   7.926   5.049  0.00  0.00    -0.310 N 
ATOM      9  C   UNL     1       9.131   7.042   7.384  0.00  0.00    +0.024 C 
ATOM     10  C   UNL     1      10.006   5.905   5.401  0.00  0.00    +0.052 C 
ATOM     11  C   UNL     1       9.210   5.694   6.687  0.00  0.00    +0.017 C 
ATOM     12  C   UNL     1      10.548   7.567   7.694  0.00  0.00    +0.090 C 
ATOM     13  C   UNL     1      11.426   6.406   5.751  0.00  0.00    +0.094 C 
ATOM     15  C   UNL     1       8.325   7.996   6.500  0.00  0.00    +0.130 C 
ATOM     16  C   UNL     1       9.308   6.893   4.468  0.00  0.00    +0.047 A 
ATOM     21  C   UNL     1       9.419   6.819   3.122  0.00  0.00    +0.055 A 
ATOM     22  C   UNL     1       7.894   8.901   4.277  0.00  0.00    +0.252 A 
ATOM     23  C   UNL     1       8.762   7.794   2.285  0.00  0.00    +0.030 A 
ATOM     24  C   UNL     1       8.043   8.790   2.804  0.00  0.00    +0.072 A 
ENDROOT
BRANCH   4  14
ATOM      2  O   UNL     1      16.467  10.658   4.776  0.00  0.00    -0.276 OA
ATOM      6  N   UNL     1      15.358   9.047   6.031  0.00  0.00    -0.302 N 
ATOM     14  C   UNL     1      12.735   8.122   6.836  0.00  0.00    +0.060 C 
ATOM     17  C   UNL     1      12.963   9.550   6.324  0.00  0.00    +0.038 C 
ATOM     18  C   UNL     1      13.775   7.166   6.235  0.00  0.00    +0.038 C 
ATOM     19  C   UNL     1      14.398  10.001   6.588  0.00  0.00    +0.109 C 
ATOM     20  C   UNL     1      15.195   7.665   6.500  0.00  0.00    +0.109 C 
ATOM     25  C   UNL     1      16.350   9.490   5.157  0.00  0.00    +0.212 C 
ATOM     26  C   UNL     1      17.328   8.454   4.663  0.00  0.00    +0.109 C 
ENDBRANCH   4  14
BRANCH  21   7
ATOM      3  O   UNL     1      12.136   7.064   2.320  0.00  0.00    -0.252 OA
ATOM      7  N   UNL     1      10.156   5.868   2.471  0.00  0.00    -0.268 N 
ATOM      8  N   UNL     1      11.960   4.890   1.452  0.00  0.00    -0.269 N 
ATOM     27  C   UNL     1      11.493   6.040   2.099  0.00  0.00    +0.308 C 
ATOM     34  H   UNL     1       9.809   4.915   2.457  0.00  0.00    +0.156 HD
ATOM     35  H   UNL     1      11.297   4.127   1.344  0.00  0.00    +0.156 HD
BRANCH   8  28
ATOM     28  C   UNL     1      13.250   4.655   0.921  0.00  0.00    +0.035 A 
ATOM     29  C   UNL     1      13.609   5.251  -0.277  0.00  0.00    +0.023 A 
ATOM     30  C   UNL     1      14.128   3.833   1.610  0.00  0.00    +0.023 A 
ATOM     31  C   UNL     1      14.880   5.020  -0.800  0.00  0.00    +0.002 A 
ATOM     32  C   UNL     1      15.399   3.601   1.085  0.00  0.00    +0.002 A 
ATOM     33  C   UNL     1      15.775   4.194  -0.120  0.00  0.00    +0.000 A 
ENDBRANCH   8  28
ENDBRANCH  21   7
TORSDOF 3
ENDMDL
MODEL 2
REMARK VINA RESULT:      -7.1     13.018     16.147
REMARK  Name = 9424630
REMARK  4 active torsions:
REMARK  status: ('A' for Active; 'I' for Inactive)
REMARK    1  A    between atoms: N_4  and  C_14
REMARK    2  A    between atoms: N_7  and  C_21
REMARK    3  A    between atoms: N_8  and  C_28
REMARK    4  A    between atoms: C_25  and  C_26
REMARK                            x       y       z     vdW  Elec       q    Type
REMARK                         _______ _______ _______ _____ _____    ______ ____
ROOT
ATOM      1  O   UNL     1      10.532   8.280  20.131  0.00  0.00    -0.268 OA
ATOM      4  N   UNL     1      14.018  11.471  18.443  0.00  0.00    -0.298 NA
ATOM      5  N   UNL     1      12.705   9.151  20.201  0.00  0.00    -0.310 N 
ATOM      9  C   UNL     1      13.176  11.598  20.801  0.00  0.00    +0.024 C 
ATOM     10  C   UNL     1      15.034  10.097  20.263  0.00  0.00    +0.052 C 
ATOM     11  C   UNL     1      14.496  11.056  21.324  0.00  0.00    +0.017 C 
ATOM     12  C   UNL     1      13.393  12.327  19.459  0.00  0.00    +0.090 C 
ATOM     13  C   UNL     1      15.262  10.868  18.942  0.00  0.00    +0.094 C 
ATOM     15  C   UNL     1      12.186  10.435  20.692  0.00  0.00    +0.130 C 
ATOM     16  C   UNL     1      14.084   8.923  20.037  0.00  0.00    +0.047 A 
ATOM     21  C   UNL     1      14.521   7.698  19.665  0.00  0.00    +0.055 A 
ATOM     22  C   UNL     1      11.747   8.142  19.989  0.00  0.00    +0.252 A 
ATOM     23  C   UNL     1      13.579   6.629  19.437  0.00  0.00    +0.030 A 
ATOM     24  C   UNL     1      12.265   6.814  19.575  0.00  0.00    +0.072 A 
ENDROOT
BRANCH   4  14
ATOM      2  O   UNL     1      15.694  11.340  12.541  0.00  0.00    -0.276 OA
ATOM      6  N   UNL     1      15.478  12.414  14.591  0.00  0.00    -0.302 N 
ATOM     14  C   UNL     1      14.255  12.213  17.207  0.00  0.00    +0.060 C 
ATOM     17  C   UNL     1      13.721  11.422  16.006  0.00  0.00    +0.038 C 
ATOM     18  C   UNL     1      15.756  12.491  17.041  0.00  0.00    +0.038 C 
ATOM     19  C   UNL     1      14.045  12.136  14.695  0.00  0.00    +0.109 C 
ATOM     20  C   UNL     1      16.039  13.184  15.709  0.00  0.00    +0.109 C 
ATOM     25  C   UNL     1      16.188  11.987  13.469  0.00  0.00    +0.212 C 
ATOM     26  C   UNL     1      17.650  12.351  13.415  0.00  0.00    +0.109 C 
ENDBRANCH   4  14
BRANCH  21   7
ATOM      3  O   UNL     1      16.291   6.525  21.556  0.00  0.00    -0.252 OA
ATOM      7  N   UNL     1      15.838   7.393  19.455  0.00  0.00    -0.268 N 
ATOM      8  N   UNL     1      17.952   6.630  19.901  0.00  0.00    -0.269 N 
ATOM     27  C   UNL     1      16.666   6.815  20.423  0.00  0.00    +0.308 C 
ATOM     34  H   UNL     1      16.180   7.363  18.500  0.00  0.00    +0.156 HD
ATOM     35  H   UNL     1      18.101   6.929  18.941  0.00  0.00    +0.156 HD
BRANCH   8  28
ATOM     28  C   UNL     1      19.081   6.079  20.549  0.00  0.00    +0.035 A 
ATOM     29  C   UNL     1      19.547   6.664  21.715  0.00  0.00    +0.023 A 
ATOM     30  C   UNL     1      19.699   4.964  20.005  0.00  0.00    +0.023 A 
ATOM     31  C   UNL     1      20.660   6.121  22.355  0.00  0.00    +0.002 A 
ATOM     32  C   UNL     1      20.814   4.422  20.645  0.00  0.00    +0.002 A 
ATOM     33  C   UNL     1      21.294   5.000  21.819  0.00  0.00    +0.000 A 
ENDBRANCH   8  28
ENDBRANCH  21   7
TORSDOF 3
ENDMDL
MODEL 3
REMARK VINA RESULT:      -7.1      3.566      8.925
REMARK  Name = 9424630
REMARK  4 active torsions:
REMARK  status: ('A' for Active; 'I' for Inactive)
REMARK    1  A    between atoms: N_4  and  C_14
REMARK    2  A    between atoms: N_7  and  C_21
REMARK    3  A    between atoms: N_8  and  C_28
REMARK    4  A    between atoms: C_25  and  C_26
REMARK                            x       y       z     vdW  Elec       q    Type
REMARK                         _______ _______ _______ _____ _____    ______ ____
ROOT
ATOM      1  O   UNL     1      14.850   8.306   0.439  0.00  0.00    -0.268 OA
ATOM      4  N   UNL     1      11.969   4.290  -0.430  0.00  0.00    -0.298 NA
ATOM      5  N   UNL     1      13.780   6.363   1.189  0.00  0.00    -0.310 N 
ATOM      9  C   UNL     1      14.363   4.042   0.270  0.00  0.00    +0.024 C 
ATOM     10  C   UNL     1      12.626   4.272   1.978  0.00  0.00    +0.052 C 
ATOM     11  C   UNL     1      13.934   3.558   1.645  0.00  0.00    +0.017 C 
ATOM     12  C   UNL     1      13.276   3.717  -0.775  0.00  0.00    +0.090 C 
ATOM     13  C   UNL     1      11.555   3.903   0.926  0.00  0.00    +0.094 C 
ATOM     15  C   UNL     1      14.671   5.539   0.359  0.00  0.00    +0.130 C 
ATOM     16  C   UNL     1      12.816   5.787   2.036  0.00  0.00    +0.047 A 
ATOM     21  C   UNL     1      12.076   6.580   2.845  0.00  0.00    +0.055 A 
ATOM     22  C   UNL     1      14.011   7.749   1.147  0.00  0.00    +0.252 A 
ATOM     23  C   UNL     1      12.275   8.009   2.841  0.00  0.00    +0.030 A 
ATOM     24  C   UNL     1      13.176   8.587   2.044  0.00  0.00    +0.072 A 
ENDROOT
BRANCH   4  14
ATOM      2  O   UNL     1      10.657   2.842  -6.247  0.00  0.00    -0.276 OA
ATOM      6  N   UNL     1      10.081   3.698  -4.164  0.00  0.00    -0.302 N 
ATOM     14  C   UNL     1      10.957   3.914  -1.413  0.00  0.00    +0.060 C 
ATOM     17  C   UNL     1      11.508   2.832  -2.351  0.00  0.00    +0.038 C 
ATOM     18  C   UNL     1      10.520   5.147  -2.217  0.00  0.00    +0.038 C 
ATOM     19  C   UNL     1      10.499   2.493  -3.446  0.00  0.00    +0.109 C 
ATOM     20  C   UNL     1       9.530   4.762  -3.315  0.00  0.00    +0.109 C 
ATOM     25  C   UNL     1      10.190   3.750  -5.554  0.00  0.00    +0.212 C 
ATOM     26  C   UNL     1       9.697   5.007  -6.224  0.00  0.00    +0.109 C 
ENDBRANCH   4  14
BRANCH  21   7
ATOM      3  O   UNL     1      12.164   6.567   5.687  0.00  0.00    -0.252 OA
ATOM      7  N   UNL     1      11.098   6.111   3.680  0.00  0.00    -0.268 N 
ATOM      8  N   UNL     1      10.034   5.582   5.638  0.00  0.00    -0.269 N 
ATOM     27  C   UNL     1      11.193   6.129   5.075  0.00  0.00    +0.308 C 
ATOM     34  H   UNL     1      10.171   5.958   3.297  0.00  0.00    +0.156 HD
ATOM     35  H   UNL     1       9.320   5.260   4.989  0.00  0.00    +0.156 HD
BRANCH   8  28
ATOM     28  C   UNL     1       9.730   5.414   7.009  0.00  0.00    +0.035 A 
ATOM     29  C   UNL     1       9.299   6.505   7.746  0.00  0.00    +0.023 A 
ATOM     30  C   UNL     1       9.869   4.162   7.587  0.00  0.00    +0.023 A 
ATOM     31  C   UNL     1       8.999   6.340   9.098  0.00  0.00    +0.002 A 
ATOM     32  C   UNL     1       9.570   3.998   8.939  0.00  0.00    +0.002 A 
ATOM     33  C   UNL     1       9.135   5.086   9.694  0.00  0.00    +0.000 A 
ENDBRANCH   8  28
ENDBRANCH  21   7
TORSDOF 3
ENDMDL
MODEL 4
REMARK VINA RESULT:      -7.0     25.359     29.099
REMARK  Name = 9424630
REMARK  4 active torsions:
REMARK  status: ('A' for Active; 'I' for Inactive)
REMARK    1  A    between atoms: N_4  and  C_14
REMARK    2  A    between atoms: N_7  and  C_21
REMARK    3  A    between atoms: N_8  and  C_28
REMARK    4  A    between atoms: C_25  and  C_26
REMARK                            x       y       z     vdW  Elec       q    Type
REMARK                         _______ _______ _______ _____ _____    ______ ____
ROOT
ATOM      1  O   UNL     1      -3.804 -12.335  19.433  0.00  0.00    -0.268 OA
ATOM      4  N   UNL     1      -5.400 -11.338  14.780  0.00  0.00    -0.298 NA
ATOM      5  N   UNL     1      -5.466 -12.417  17.785  0.00  0.00    -0.310 N 
ATOM      9  C   UNL     1      -5.148 -13.698  15.587  0.00  0.00    +0.024 C 
ATOM     10  C   UNL     1      -7.240 -12.498  16.004  0.00  0.00    +0.052 C 
ATOM     11  C   UNL     1      -6.658 -13.862  15.642  0.00  0.00    +0.017 C 
ATOM     12  C   UNL     1      -4.765 -12.639  14.534  0.00  0.00    +0.090 C 
ATOM     13  C   UNL     1      -6.857 -11.470  14.915  0.00  0.00    +0.094 C 
ATOM     15  C   UNL     1      -4.649 -13.346  16.991  0.00  0.00    +0.130 C 
ATOM     16  C   UNL     1      -6.754 -12.028  17.374  0.00  0.00    +0.047 A 
ATOM     21  C   UNL     1      -7.504 -11.239  18.177  0.00  0.00    +0.055 A 
ATOM     22  C   UNL     1      -4.917 -12.013  19.015  0.00  0.00    +0.252 A 
ATOM     23  C   UNL     1      -6.987 -10.799  19.450  0.00  0.00    +0.030 A 
ATOM     24  C   UNL     1      -5.767 -11.143  19.866  0.00  0.00    +0.072 A 
ENDROOT
BRANCH   4  14
ATOM      2  O   UNL     1      -6.572  -9.114   9.183  0.00  0.00    -0.276 OA
ATOM      6  N   UNL     1      -5.140  -9.548  10.960  0.00  0.00    -0.302 N 
ATOM     14  C   UNL     1      -5.055 -10.380  13.732  0.00  0.00    +0.060 C 
ATOM     17  C   UNL     1      -6.331  -9.806  13.103  0.00  0.00    +0.038 C 
ATOM     18  C   UNL     1      -4.190 -11.060  12.662  0.00  0.00    +0.038 C 
ATOM     19  C   UNL     1      -5.994  -8.875  11.940  0.00  0.00    +0.109 C 
ATOM     20  C   UNL     1      -3.895 -10.104  11.507  0.00  0.00    +0.109 C 
ATOM     25  C   UNL     1      -5.519  -9.588   9.619  0.00  0.00    +0.212 C 
ATOM     26  C   UNL     1      -4.564 -10.259   8.666  0.00  0.00    +0.109 C 
ENDBRANCH   4  14
BRANCH  21   7
ATOM      3  O   UNL     1      -8.107  -8.820  16.808  0.00  0.00    -0.252 OA
ATOM      7  N   UNL     1      -8.753 -10.788  17.848  0.00  0.00    -0.268 N 
ATOM      8  N   UNL     1     -10.371  -9.414  16.988  0.00  0.00    -0.269 N 
ATOM     27  C   UNL     1      -8.994  -9.588  17.173  0.00  0.00    +0.308 C 
ATOM     34  H   UNL     1      -9.526 -11.445  17.880  0.00  0.00    +0.156 HD
ATOM     35  H   UNL     1     -10.976 -10.144  17.354  0.00  0.00    +0.156 HD
BRANCH   8  28
ATOM     28  C   UNL     1     -11.033  -8.336  16.354  0.00  0.00    +0.035 A 
ATOM     29  C   UNL     1     -10.865  -7.053  16.848  0.00  0.00    +0.023 A 
ATOM     30  C   UNL     1     -11.834  -8.586  15.251  0.00  0.00    +0.023 A 
ATOM     31  C   UNL     1     -11.517  -5.991  16.223  0.00  0.00    +0.002 A 
ATOM     32  C   UNL     1     -12.487  -7.524  14.627  0.00  0.00    +0.002 A 
ATOM     33  C   UNL     1     -12.329  -6.226  15.112  0.00  0.00    +0.000 A 
ENDBRANCH   8  28
ENDBRANCH  21   7
TORSDOF 3
ENDMDL
MODEL 5
REMARK VINA RESULT:      -7.0     14.106     17.212
REMARK  Name = 9424630
REMARK  4 active torsions:
REMARK  status: ('A' for Active; 'I' for Inactive)
REMARK    1  A    between atoms: N_4  and  C_14
REMARK    2  A    between atoms: N_7  and  C_21
REMARK    3  A    between atoms: N_8  and  C_28
REMARK    4  A    between atoms: C_25  and  C_26
REMARK                            x       y       z     vdW  Elec       q    Type
REMARK                         _______ _______ _______ _____ _____    ______ ____
ROOT
ATOM      1  O   UNL     1      10.484   8.202  20.196  0.00  0.00    -0.268 OA
ATOM      4  N   UNL     1      14.066  11.707  20.460  0.00  0.00    -0.298 NA
ATOM      5  N   UNL     1      12.297   9.186  21.305  0.00  0.00    -0.310 N 
ATOM      9  C   UNL     1      12.227  11.602  22.160  0.00  0.00    +0.024 C 
ATOM     10  C   UNL     1      14.244  10.255  22.483  0.00  0.00    +0.052 C 
ATOM     11  C   UNL     1      13.199  11.096  23.213  0.00  0.00    +0.017 C 
ATOM     12  C   UNL     1      12.973  12.444  21.105  0.00  0.00    +0.090 C 
ATOM     13  C   UNL     1      14.988  11.137  21.454  0.00  0.00    +0.094 C 
ATOM     15  C   UNL     1      11.502  10.397  21.553  0.00  0.00    +0.130 C 
ATOM     16  C   UNL     1      13.610   9.050  21.792  0.00  0.00    +0.047 A 
ATOM     21  C   UNL     1      14.273   7.885  21.613  0.00  0.00    +0.055 A 
ATOM     22  C   UNL     1      11.636   8.145  20.629  0.00  0.00    +0.252 A 
ATOM     23  C   UNL     1      13.638   6.785  20.928  0.00  0.00    +0.030 A 
ATOM     24  C   UNL     1      12.398   6.884  20.447  0.00  0.00    +0.072 A 
ENDROOT
BRANCH   4  14
ATOM      2  O   UNL     1      15.163  13.171  14.603  0.00  0.00    -0.276 OA
ATOM      6  N   UNL     1      15.784  13.047  16.839  0.00  0.00    -0.302 N 
ATOM     14  C   UNL     1      14.781  12.555  19.510  0.00  0.00    +0.060 C 
ATOM     17  C   UNL     1      13.848  12.964  18.362  0.00  0.00    +0.038 C 
ATOM     18  C   UNL     1      16.009  11.814  18.963  0.00  0.00    +0.038 C 
ATOM     19  C   UNL     1      14.602  13.772  17.308  0.00  0.00    +0.109 C 
ATOM     20  C   UNL     1      16.721  12.645  17.897  0.00  0.00    +0.109 C 
ATOM     25  C   UNL     1      15.965  12.824  15.474  0.00  0.00    +0.212 C 
ATOM     26  C   UNL     1      17.230  12.111  15.068  0.00  0.00    +0.109 C 
ENDBRANCH   4  14
BRANCH  21   7
ATOM      3  O   UNL     1      16.610   8.114  20.008  0.00  0.00    -0.252 OA
ATOM      7  N   UNL     1      15.560   7.672  22.027  0.00  0.00    -0.268 N 
ATOM      8  N   UNL     1      17.843   7.515  21.913  0.00  0.00    -0.269 N 
ATOM     27  C   UNL     1      16.676   7.799  21.194  0.00  0.00    +0.308 C 
ATOM     34  H   UNL     1      15.748   7.649  23.024  0.00  0.00    +0.156 HD
ATOM     35  H   UNL     1      17.725   7.265  22.892  0.00  0.00    +0.156 HD
BRANCH   8  28
ATOM     28  C   UNL     1      19.177   7.528  21.445  0.00  0.00    +0.035 A 
ATOM     29  C   UNL     1      19.884   8.720  21.442  0.00  0.00    +0.023 A 
ATOM     30  C   UNL     1      19.750   6.348  20.998  0.00  0.00    +0.023 A 
ATOM     31  C   UNL     1      21.199   8.732  20.980  0.00  0.00    +0.002 A 
ATOM     32  C   UNL     1      21.066   6.362  20.535  0.00  0.00    +0.002 A 
ATOM     33  C   UNL     1      21.790   7.553  20.526  0.00  0.00    +0.000 A 
ENDBRANCH   8  28
ENDBRANCH  21   7
TORSDOF 3
ENDMDL
MODEL 6
REMARK VINA RESULT:      -6.9     24.582     27.609
REMARK  Name = 9424630
REMARK  4 active torsions:
REMARK  status: ('A' for Active; 'I' for Inactive)
REMARK    1  A    between atoms: N_4  and  C_14
REMARK    2  A    between atoms: N_7  and  C_21
REMARK    3  A    between atoms: N_8  and  C_28
REMARK    4  A    between atoms: C_25  and  C_26
REMARK                            x       y       z     vdW  Elec       q    Type
REMARK                         _______ _______ _______ _____ _____    ______ ____
ROOT
ATOM      1  O   UNL     1      -8.927 -10.406   8.482  0.00  0.00    -0.268 OA
ATOM      4  N   UNL     1      -4.402 -10.977  10.576  0.00  0.00    -0.298 NA
ATOM      5  N   UNL     1      -7.226  -9.647   9.901  0.00  0.00    -0.310 N 
ATOM      9  C   UNL     1      -4.885  -9.060   9.035  0.00  0.00    +0.024 C 
ATOM     10  C   UNL     1      -5.389  -8.845  11.420  0.00  0.00    +0.052 C 
ATOM     11  C   UNL     1      -4.864  -8.088  10.202  0.00  0.00    +0.017 C 
ATOM     12  C   UNL     1      -4.002 -10.286   9.344  0.00  0.00    +0.090 C 
ATOM     13  C   UNL     1      -4.466 -10.049  11.715  0.00  0.00    +0.094 C 
ATOM     15  C   UNL     1      -6.341  -9.436   8.746  0.00  0.00    +0.130 C 
ATOM     16  C   UNL     1      -6.827  -9.316  11.209  0.00  0.00    +0.047 A 
ATOM     21  C   UNL     1      -7.704  -9.447  12.230  0.00  0.00    +0.055 A 
ATOM     22  C   UNL     1      -8.518 -10.116   9.607  0.00  0.00    +0.252 A 
ATOM     23  C   UNL     1      -9.043  -9.922  11.981  0.00  0.00    +0.030 A 
ATOM     24  C   UNL     1      -9.450 -10.252  10.754  0.00  0.00    +0.072 A 
ENDROOT
BRANCH   4  14
ATOM      2  O   UNL     1      -3.723 -16.633  12.857  0.00  0.00    -0.276 OA
ATOM      6  N   UNL     1      -2.907 -14.524  12.322  0.00  0.00    -0.302 N 
ATOM     14  C   UNL     1      -3.509 -12.097  10.863  0.00  0.00    +0.060 C 
ATOM     17  C   UNL     1      -4.207 -13.424  10.539  0.00  0.00    +0.038 C 
ATOM     18  C   UNL     1      -3.079 -12.063  12.336  0.00  0.00    +0.038 C 
ATOM     19  C   UNL     1      -3.324 -14.611  10.921  0.00  0.00    +0.109 C 
ATOM     20  C   UNL     1      -2.219 -13.278  12.683  0.00  0.00    +0.109 C 
ATOM     25  C   UNL     1      -3.141 -15.595  13.184  0.00  0.00    +0.212 C 
ATOM     26  C   UNL     1      -2.641 -15.446  14.598  0.00  0.00    +0.109 C 
ENDBRANCH   4  14
BRANCH  21   7
ATOM      3  O   UNL     1      -6.781 -11.322  14.158  0.00  0.00    -0.252 OA
ATOM      7  N   UNL     1      -7.396  -9.175  13.535  0.00  0.00    -0.268 N 
ATOM      8  N   UNL     1      -6.719  -9.547  15.692  0.00  0.00    -0.269 N 
ATOM     27  C   UNL     1      -6.945 -10.138  14.444  0.00  0.00    +0.308 C 
ATOM     34  H   UNL     1      -7.261  -8.208  13.808  0.00  0.00    +0.156 HD
ATOM     35  H   UNL     1      -6.908  -8.550  15.765  0.00  0.00    +0.156 HD
BRANCH   8  28
ATOM     28  C   UNL     1      -6.262 -10.168  16.878  0.00  0.00    +0.035 A 
ATOM     29  C   UNL     1      -4.915 -10.461  17.014  0.00  0.00    +0.023 A 
ATOM     30  C   UNL     1      -7.172 -10.470  17.879  0.00  0.00    +0.023 A 
ATOM     31  C   UNL     1      -4.465 -11.074  18.183  0.00  0.00    +0.002 A 
ATOM     32  C   UNL     1      -6.720 -11.083  19.048  0.00  0.00    +0.002 A 
ATOM     33  C   UNL     1      -5.367 -11.385  19.200  0.00  0.00    +0.000 A 
ENDBRANCH   8  28
ENDBRANCH  21   7
TORSDOF 3
ENDMDL
MODEL 7
REMARK VINA RESULT:      -6.8     26.364     30.184
REMARK  Name = 9424630
REMARK  4 active torsions:
REMARK  status: ('A' for Active; 'I' for Inactive)
REMARK    1  A    between atoms: N_4  and  C_14
REMARK    2  A    between atoms: N_7  and  C_21
REMARK    3  A    between atoms: N_8  and  C_28
REMARK    4  A    between atoms: C_25  and  C_26
REMARK                            x       y       z     vdW  Elec       q    Type
REMARK                         _______ _______ _______ _____ _____    ______ ____
ROOT
ATOM      1  O   UNL     1      -3.634 -12.660  19.259  0.00  0.00    -0.268 OA
ATOM      4  N   UNL     1      -5.706 -11.139  14.949  0.00  0.00    -0.298 NA
ATOM      5  N   UNL     1      -5.518 -12.325  17.908  0.00  0.00    -0.310 N 
ATOM      9  C   UNL     1      -5.826 -13.537  15.670  0.00  0.00    +0.024 C 
ATOM     10  C   UNL     1      -7.529 -11.959  16.444  0.00  0.00    +0.052 C 
ATOM     11  C   UNL     1      -7.309 -13.394  15.972  0.00  0.00    +0.017 C 
ATOM     12  C   UNL     1      -5.403 -12.528  14.583  0.00  0.00    +0.090 C 
ATOM     13  C   UNL     1      -7.119 -10.979  15.320  0.00  0.00    +0.094 C 
ATOM     15  C   UNL     1      -5.048 -13.361  16.977  0.00  0.00    +0.130 C 
ATOM     16  C   UNL     1      -6.745 -11.663  17.721  0.00  0.00    +0.047 A 
ATOM     21  C   UNL     1      -7.177 -10.778  18.648  0.00  0.00    +0.055 A 
ATOM     22  C   UNL     1      -4.708 -12.100  19.036  0.00  0.00    +0.252 A 
ATOM     23  C   UNL     1      -6.385 -10.513  19.824  0.00  0.00    +0.030 A 
ATOM     24  C   UNL     1      -5.213 -11.117  20.028  0.00  0.00    +0.072 A 
ENDROOT
BRANCH   4  14
ATOM      2  O   UNL     1      -6.534  -9.358   9.135  0.00  0.00    -0.276 OA
ATOM      6  N   UNL     1      -5.238  -9.568  11.053  0.00  0.00    -0.302 N 
ATOM     14  C   UNL     1      -5.342 -10.222  13.872  0.00  0.00    +0.060 C 
ATOM     17  C   UNL     1      -6.595  -9.791  13.099  0.00  0.00    +0.038 C 
ATOM     18  C   UNL     1      -4.335 -10.894  12.927  0.00  0.00    +0.038 C 
ATOM     19  C   UNL     1      -6.225  -8.908  11.909  0.00  0.00    +0.109 C 
ATOM     20  C   UNL     1      -4.010  -9.989  11.740  0.00  0.00    +0.109 C 
ATOM     25  C   UNL     1      -5.492  -9.720   9.690  0.00  0.00    +0.212 C 
ATOM     26  C   UNL     1      -4.408 -10.369   8.868  0.00  0.00    +0.109 C 
ENDBRANCH   4  14
BRANCH  21   7
ATOM      3  O   UNL     1      -9.737 -11.604  19.571  0.00  0.00    -0.252 OA
ATOM      7  N   UNL     1      -8.342 -10.069  18.536  0.00  0.00    -0.268 N 
ATOM      8  N   UNL     1     -10.568  -9.571  18.743  0.00  0.00    -0.269 N 
ATOM     27  C   UNL     1      -9.577 -10.523  19.009  0.00  0.00    +0.308 C 
ATOM     34  H   UNL     1      -8.285  -9.080  18.316  0.00  0.00    +0.156 HD
ATOM     35  H   UNL     1     -10.271  -8.725  18.264  0.00  0.00    +0.156 HD
BRANCH   8  28
ATOM     28  C   UNL     1     -11.946  -9.641  19.056  0.00  0.00    +0.035 A 
ATOM     29  C   UNL     1     -12.877  -9.604  18.030  0.00  0.00    +0.023 A 
ATOM     30  C   UNL     1     -12.337  -9.745  20.381  0.00  0.00    +0.023 A 
ATOM     31  C   UNL     1     -14.235  -9.673  18.338  0.00  0.00    +0.002 A 
ATOM     32  C   UNL     1     -13.695  -9.814  20.688  0.00  0.00    +0.002 A 
ATOM     33  C   UNL     1     -14.644  -9.777  19.667  0.00  0.00    +0.000 A 
ENDBRANCH   8  28
ENDBRANCH  21   7
TORSDOF 3
ENDMDL
MODEL 8
REMARK VINA RESULT:      -6.7     24.357     27.895
REMARK  Name = 9424630
REMARK  4 active torsions:
REMARK  status: ('A' for Active; 'I' for Inactive)
REMARK    1  A    between atoms: N_4  and  C_14
REMARK    2  A    between atoms: N_7  and  C_21
REMARK    3  A    between atoms: N_8  and  C_28
REMARK    4  A    between atoms: C_25  and  C_26
REMARK                            x       y       z     vdW  Elec       q    Type
REMARK                         _______ _______ _______ _____ _____    ______ ____
ROOT
ATOM      1  O   UNL     1      -0.611 -10.919  15.588  0.00  0.00    -0.268 OA
ATOM      4  N   UNL     1      -4.121 -10.768  12.005  0.00  0.00    -0.298 NA
ATOM      5  N   UNL     1      -2.595 -11.727  14.640  0.00  0.00    -0.310 N 
ATOM      9  C   UNL     1      -2.661 -12.783  12.306  0.00  0.00    +0.024 C 
ATOM     10  C   UNL     1      -4.722 -12.583  13.609  0.00  0.00    +0.052 C 
ATOM     11  C   UNL     1      -3.831 -13.575  12.864  0.00  0.00    +0.017 C 
ATOM     12  C   UNL     1      -3.168 -11.677  11.357  0.00  0.00    +0.090 C 
ATOM     13  C   UNL     1      -5.231 -11.507  12.623  0.00  0.00    +0.094 C 
ATOM     15  C   UNL     1      -1.847 -12.231  13.479  0.00  0.00    +0.130 C 
ATOM     16  C   UNL     1      -3.980 -11.930  14.774  0.00  0.00    +0.047 A 
ATOM     21  C   UNL     1      -4.611 -11.524  15.899  0.00  0.00    +0.055 A 
ATOM     22  C   UNL     1      -1.827 -11.108  15.643  0.00  0.00    +0.252 A 
ATOM     23  C   UNL     1      -3.869 -10.887  16.959  0.00  0.00    +0.030 A 
ATOM     24  C   UNL     1      -2.556 -10.671  16.860  0.00  0.00    +0.072 A 
ENDROOT
BRANCH   4  14
ATOM      2  O   UNL     1      -8.218  -9.294   7.680  0.00  0.00    -0.276 OA
ATOM      6  N   UNL     1      -6.134  -9.090   8.688  0.00  0.00    -0.302 N 
ATOM     14  C   UNL     1      -4.619  -9.771  11.060  0.00  0.00    +0.060 C 
ATOM     17  C   UNL     1      -6.153  -9.764  11.059  0.00  0.00    +0.038 C 
ATOM     18  C   UNL     1      -4.085 -10.069   9.652  0.00  0.00    +0.038 C 
ATOM     19  C   UNL     1      -6.693  -8.796  10.009  0.00  0.00    +0.109 C 
ATOM     20  C   UNL     1      -4.667  -9.095   8.628  0.00  0.00    +0.109 C 
ATOM     25  C   UNL     1      -6.986  -9.302   7.605  0.00  0.00    +0.212 C 
ATOM     26  C   UNL     1      -6.333  -9.554   6.270  0.00  0.00    +0.109 C 
ENDBRANCH   4  14
BRANCH  21   7
ATOM      3  O   UNL     1      -6.461  -9.400  16.293  0.00  0.00    -0.252 OA
ATOM      7  N   UNL     1      -5.958 -11.655  16.104  0.00  0.00    -0.268 N 
ATOM      8  N   UNL     1      -8.133 -11.037  16.476  0.00  0.00    -0.269 N 
ATOM     27  C   UNL     1      -6.825 -10.574  16.293  0.00  0.00    +0.308 C 
ATOM     34  H   UNL     1      -6.395 -12.543  15.882  0.00  0.00    +0.156 HD
ATOM     35  H   UNL     1      -8.266 -12.045  16.451  0.00  0.00    +0.156 HD
BRANCH   8  28
ATOM     28  C   UNL     1      -9.302 -10.274  16.698  0.00  0.00    +0.035 A 
ATOM     29  C   UNL     1     -10.056  -9.857  15.613  0.00  0.00    +0.023 A 
ATOM     30  C   UNL     1      -9.669  -9.957  17.996  0.00  0.00    +0.023 A 
ATOM     31  C   UNL     1     -11.209  -9.104  15.832  0.00  0.00    +0.002 A 
ATOM     32  C   UNL     1     -10.822  -9.203  18.214  0.00  0.00    +0.002 A 
ATOM     33  C   UNL     1     -11.592  -8.776  17.132  0.00  0.00    +0.000 A 
ENDBRANCH   8  28
ENDBRANCH  21   7
TORSDOF 3
ENDMDL
MODEL 9
REMARK VINA RESULT:      -6.6     29.359     33.063
REMARK  Name = 9424630
REMARK  4 active torsions:
REMARK  status: ('A' for Active; 'I' for Inactive)
REMARK    1  A    between atoms: N_4  and  C_14
REMARK    2  A    between atoms: N_7  and  C_21
REMARK    3  A    between atoms: N_8  and  C_28
REMARK    4  A    between atoms: C_25  and  C_26
REMARK                            x       y       z     vdW  Elec       q    Type
REMARK                         _______ _______ _______ _____ _____    ______ ____
ROOT
ATOM      1  O   UNL     1     -13.949  -6.477  14.869  0.00  0.00    -0.268 OA
ATOM      4  N   UNL     1     -13.986  -9.573  18.818  0.00  0.00    -0.298 NA
ATOM      5  N   UNL     1     -13.005  -8.239  16.088  0.00  0.00    -0.310 N 
ATOM      9  C   UNL     1     -14.247 -10.446  16.484  0.00  0.00    +0.024 C 
ATOM     10  C   UNL     1     -12.003 -10.131  17.408  0.00  0.00    +0.052 C 
ATOM     11  C   UNL     1     -12.852 -11.047  16.529  0.00  0.00    +0.017 C 
ATOM     12  C   UNL     1     -14.834 -10.350  17.907  0.00  0.00    +0.090 C 
ATOM     13  C   UNL     1     -12.607 -10.080  18.831  0.00  0.00    +0.094 C 
ATOM     15  C   UNL     1     -14.166  -9.087  15.783  0.00  0.00    +0.130 C 
ATOM     16  C   UNL     1     -11.906  -8.724  16.821  0.00  0.00    +0.047 A 
ATOM     21  C   UNL     1     -10.823  -7.936  17.004  0.00  0.00    +0.055 A 
ATOM     22  C   UNL     1     -13.024  -6.948  15.531  0.00  0.00    +0.252 A 
ATOM     23  C   UNL     1     -10.792  -6.604  16.452  0.00  0.00    +0.030 A 
ATOM     24  C   UNL     1     -11.820  -6.110  15.759  0.00  0.00    +0.072 A 
ENDROOT
BRANCH   4  14
ATOM      2  O   UNL     1     -18.232 -11.685  22.713  0.00  0.00    -0.276 OA
ATOM      6  N   UNL     1     -16.747 -10.053  21.982  0.00  0.00    -0.302 N 
ATOM     14  C   UNL     1     -14.548  -9.552  20.167  0.00  0.00    +0.060 C 
ATOM     17  C   UNL     1     -14.923 -10.974  20.604  0.00  0.00    +0.038 C 
ATOM     18  C   UNL     1     -15.780  -8.637  20.210  0.00  0.00    +0.038 C 
ATOM     19  C   UNL     1     -15.600 -10.963  21.973  0.00  0.00    +0.109 C 
ATOM     20  C   UNL     1     -16.441  -8.673  21.587  0.00  0.00    +0.109 C 
ATOM     25  C   UNL     1     -17.999 -10.518  22.385  0.00  0.00    +0.212 C 
ATOM     26  C   UNL     1     -19.118  -9.509  22.411  0.00  0.00    +0.109 C 
ENDBRANCH   4  14
BRANCH  21   7
ATOM      3  O   UNL     1      -8.638  -9.482  16.043  0.00  0.00    -0.252 OA
ATOM      7  N   UNL     1      -9.722  -8.312  17.725  0.00  0.00    -0.268 N 
ATOM      8  N   UNL     1      -7.703  -9.291  18.187  0.00  0.00    -0.269 N 
ATOM     27  C   UNL     1      -8.674  -9.075  17.202  0.00  0.00    +0.308 C 
ATOM     34  H   UNL     1      -9.533  -7.836  18.601  0.00  0.00    +0.156 HD
ATOM     35  H   UNL     1      -7.886  -8.888  19.103  0.00  0.00    +0.156 HD
BRANCH   8  28
ATOM     28  C   UNL     1      -6.492 -10.011  18.070  0.00  0.00    +0.035 A 
ATOM     29  C   UNL     1      -6.112 -10.870  19.089  0.00  0.00    +0.023 A 
ATOM     30  C   UNL     1      -5.709  -9.844  16.939  0.00  0.00    +0.023 A 
ATOM     31  C   UNL     1      -4.917 -11.580  18.974  0.00  0.00    +0.002 A 
ATOM     32  C   UNL     1      -4.514 -10.554  16.824  0.00  0.00    +0.002 A 
ATOM     33  C   UNL     1      -4.118 -11.422  17.841  0.00  0.00    +0.000 A 
ENDBRANCH   8  28
ENDBRANCH  21   7
TORSDOF 3
ENDMDL
MODEL 10
REMARK VINA RESULT:      -6.6     16.801     20.299
REMARK  Name = 9424630
REMARK  4 active torsions:
REMARK  status: ('A' for Active; 'I' for Inactive)
REMARK    1  A    between atoms: N_4  and  C_14
REMARK    2  A    between atoms: N_7  and  C_21
REMARK    3  A    between atoms: N_8  and  C_28
REMARK    4  A    between atoms: C_25  and  C_26
REMARK                            x       y       z     vdW  Elec       q    Type
REMARK                         _______ _______ _______ _____ _____    ______ ____
ROOT
ATOM      1  O   UNL     1      20.204  10.505  25.650  0.00  0.00    -0.268 OA
ATOM      4  N   UNL     1      17.988   8.739  21.508  0.00  0.00    -0.298 NA
ATOM      5  N   UNL     1      20.291   9.289  23.650  0.00  0.00    -0.310 N 
ATOM      9  C   UNL     1      19.876  10.382  21.369  0.00  0.00    +0.024 C 
ATOM     10  C   UNL     1      20.368   7.988  21.500  0.00  0.00    +0.052 C 
ATOM     11  C   UNL     1      20.808   9.299  20.852  0.00  0.00    +0.017 C 
ATOM     12  C   UNL     1      18.415  10.049  21.002  0.00  0.00    +0.090 C 
ATOM     13  C   UNL     1      18.911   7.675  21.089  0.00  0.00    +0.094 C 
ATOM     15  C   UNL     1      20.091  10.524  22.878  0.00  0.00    +0.130 C 
ATOM     16  C   UNL     1      20.492   8.047  23.021  0.00  0.00    +0.047 A 
ATOM     21  C   UNL     1      20.757   6.953  23.769  0.00  0.00    +0.055 A 
ATOM     22  C   UNL     1      20.355   9.442  25.047  0.00  0.00    +0.252 A 
ATOM     23  C   UNL     1      20.836   7.056  25.206  0.00  0.00    +0.030 A 
ATOM     24  C   UNL     1      20.643   8.217  25.835  0.00  0.00    +0.072 A 
ENDROOT
BRANCH   4  14
ATOM      2  O   UNL     1      14.121   7.386  16.940  0.00  0.00    -0.276 OA
ATOM      6  N   UNL     1      14.595   8.285  19.030  0.00  0.00    -0.302 N 
ATOM     14  C   UNL     1      16.620   8.439  21.093  0.00  0.00    +0.060 C 
ATOM     17  C   UNL     1      16.621   7.317  20.046  0.00  0.00    +0.038 C 
ATOM     18  C   UNL     1      15.953   9.700  20.526  0.00  0.00    +0.038 C 
ATOM     19  C   UNL     1      15.209   7.053  19.528  0.00  0.00    +0.109 C 
ATOM     20  C   UNL     1      14.553   9.388  19.998  0.00  0.00    +0.109 C 
ATOM     25  C   UNL     1      14.074   8.327  17.737  0.00  0.00    +0.212 C 
ATOM     26  C   UNL     1      13.418   9.617  17.314  0.00  0.00    +0.109 C 
ENDBRANCH   4  14
BRANCH  21   7
ATOM      3  O   UNL     1      23.252   5.643  23.383  0.00  0.00    -0.252 OA
ATOM      7  N   UNL     1      20.938   5.701  23.247  0.00  0.00    -0.268 N 
ATOM      8  N   UNL     1      22.039   3.827  22.522  0.00  0.00    -0.269 N 
ATOM     27  C   UNL     1      22.191   5.102  23.078  0.00  0.00    +0.308 C 
ATOM     34  H   UNL     1      20.137   5.081  23.192  0.00  0.00    +0.156 HD
ATOM     35  H   UNL     1      21.088   3.527  22.323  0.00  0.00    +0.156 HD
BRANCH   8  28
ATOM     28  C   UNL     1      23.052   2.896  22.193  0.00  0.00    +0.035 A 
ATOM     29  C   UNL     1      23.462   1.976  23.145  0.00  0.00    +0.023 A 
ATOM     30  C   UNL     1      23.612   2.923  20.926  0.00  0.00    +0.023 A 
ATOM     31  C   UNL     1      24.461   1.059  22.821  0.00  0.00    +0.002 A 
ATOM     32  C   UNL     1      24.612   2.005  20.603  0.00  0.00    +0.002 A 
ATOM     33  C   UNL     1      25.036   1.073  21.550  0.00  0.00    +0.000 A 
ENDBRANCH   8  28
ENDBRANCH  21   7
TORSDOF 3
ENDMDL
