MODEL 1
REMARK VINA RESULT:      -7.0      0.000      0.000
REMARK  Name = 45784307
REMARK  5 active torsions:
REMARK  status: ('A' for Active; 'I' for Inactive)
REMARK    1  A    between atoms: O_1  and  C_18
REMARK    2  A    between atoms: O_1  and  C_22
REMARK    3  A    between atoms: N_2  and  C_12
REMARK    4  A    between atoms: C_7  and  C_11
REMARK    5  A    between atoms: C_12  and  C_13
REMARK                            x       y       z     vdW  Elec       q    Type
REMARK                         _______ _______ _______ _____ _____    ______ ____
ROOT
ATOM      2  N   UNL     1      11.675   7.865  18.280  0.00  0.00    -0.295 NA
ATOM      7  C   UNL     1      13.332   6.935  19.654  0.00  0.00    +0.070 C 
ATOM      8  C   UNL     1      12.374   7.784  20.507  0.00  0.00    +0.028 C 
ATOM      9  C   UNL     1      13.049   7.364  18.208  0.00  0.00    +0.096 C 
ATOM     10  C   UNL     1      11.628   8.659  19.508  0.00  0.00    +0.085 C 
ENDROOT
BRANCH   7  11
ATOM      3  N   UNL     1      15.719   6.164  19.564  0.00  0.00    -0.341 N 
ATOM      4  N   UNL     1      15.332   7.969  20.802  0.00  0.00    -0.232 NA
ATOM     11  C   UNL     1      14.791   7.055  20.029  0.00  0.00    +0.113 A 
ATOM     14  C   UNL     1      16.940   6.529  20.071  0.00  0.00    +0.070 A 
ATOM     15  C   UNL     1      16.672   7.658  20.841  0.00  0.00    +0.089 A 
ATOM     16  C   UNL     1      18.217   5.985  19.928  0.00  0.00    +0.073 A 
ATOM     17  C   UNL     1      17.728   8.295  21.514  0.00  0.00    +0.033 A 
ATOM     18  C   UNL     1      19.256   6.632  20.605  0.00  0.00    +0.122 A 
ATOM     19  C   UNL     1      19.018   7.766  21.385  0.00  0.00    +0.048 A 
ATOM     23  H   UNL     1      15.541   5.377  18.955  0.00  0.00    +0.167 HD
BRANCH  18   1
ATOM      1  O   UNL     1      20.525   6.145  20.501  0.00  0.00    -0.495 OA
ATOM     22  C   UNL     1      21.586   7.098  20.492  0.00  0.00    +0.277 C 
ENDBRANCH  18   1
ENDBRANCH   7  11
BRANCH   2  12
ATOM     12  C   UNL     1      11.304   8.640  17.105  0.00  0.00    +0.158 C 
BRANCH  12  13
ATOM      5  N   UNL     1      12.974  10.507  17.052  0.00  0.00    -0.347 N 
ATOM      6  N   UNL     1      13.174   8.986  15.446  0.00  0.00    -0.239 NA
ATOM     13  C   UNL     1      12.488   9.352  16.506  0.00  0.00    +0.121 A 
ATOM     20  C   UNL     1      14.036  10.904  16.291  0.00  0.00    +0.104 A 
ATOM     21  C   UNL     1      14.140   9.950  15.306  0.00  0.00    +0.130 A 
ATOM     24  H   UNL     1      12.615  10.983  17.869  0.00  0.00    +0.167 HD
ENDBRANCH  12  13
ENDBRANCH   2  12
TORSDOF 4
ENDMDL
MODEL 2
REMARK VINA RESULT:      -6.9      3.214      4.742
REMARK  Name = 45784307
REMARK  5 active torsions:
REMARK  status: ('A' for Active; 'I' for Inactive)
REMARK    1  A    between atoms: O_1  and  C_18
REMARK    2  A    between atoms: O_1  and  C_22
REMARK    3  A    between atoms: N_2  and  C_12
REMARK    4  A    between atoms: C_7  and  C_11
REMARK    5  A    between atoms: C_12  and  C_13
REMARK                            x       y       z     vdW  Elec       q    Type
REMARK                         _______ _______ _______ _____ _____    ______ ____
ROOT
ATOM      2  N   UNL     1      11.420   9.423  21.521  0.00  0.00    -0.295 NA
ATOM      7  C   UNL     1      13.283   9.002  20.161  0.00  0.00    +0.070 C 
ATOM      8  C   UNL     1      12.038   8.344  19.544  0.00  0.00    +0.028 C 
ATOM      9  C   UNL     1      12.878   9.322  21.606  0.00  0.00    +0.096 C 
ATOM     10  C   UNL     1      11.015   8.303  20.672  0.00  0.00    +0.085 C 
ENDROOT
BRANCH   7  11
ATOM      3  N   UNL     1      15.553   8.318  20.989  0.00  0.00    -0.341 N 
ATOM      4  N   UNL     1      14.833   7.272  19.164  0.00  0.00    -0.232 NA
ATOM     11  C   UNL     1      14.547   8.177  20.073  0.00  0.00    +0.113 A 
ATOM     14  C   UNL     1      16.554   7.445  20.648  0.00  0.00    +0.070 A 
ATOM     15  C   UNL     1      16.082   6.805  19.505  0.00  0.00    +0.089 A 
ATOM     16  C   UNL     1      17.796   7.170  21.223  0.00  0.00    +0.073 A 
ATOM     17  C   UNL     1      16.882   5.829  18.887  0.00  0.00    +0.033 A 
ATOM     18  C   UNL     1      18.579   6.196  20.593  0.00  0.00    +0.122 A 
ATOM     19  C   UNL     1      18.132   5.537  19.446  0.00  0.00    +0.048 A 
ATOM     23  H   UNL     1      15.560   8.950  21.778  0.00  0.00    +0.167 HD
BRANCH  18   1
ATOM      1  O   UNL     1      19.801   5.886  21.111  0.00  0.00    -0.495 OA
ATOM     22  C   UNL     1      20.610   4.981  20.363  0.00  0.00    +0.277 C 
ENDBRANCH  18   1
ENDBRANCH   7  11
BRANCH   2  12
ATOM     12  C   UNL     1      10.783   9.386  22.829  0.00  0.00    +0.158 C 
BRANCH  12  13
ATOM      5  N   UNL     1      11.285  10.677  24.917  0.00  0.00    -0.347 N 
ATOM      6  N   UNL     1      10.883  11.893  23.101  0.00  0.00    -0.239 NA
ATOM     13  C   UNL     1      10.977  10.674  23.584  0.00  0.00    +0.121 A 
ATOM     20  C   UNL     1      11.394  11.982  25.307  0.00  0.00    +0.104 A 
ATOM     21  C   UNL     1      11.141  12.713  24.170  0.00  0.00    +0.130 A 
ATOM     24  H   UNL     1      11.410   9.866  25.506  0.00  0.00    +0.167 HD
ENDBRANCH  12  13
ENDBRANCH   2  12
TORSDOF 4
ENDMDL
MODEL 3
REMARK VINA RESULT:      -6.5      2.826      4.333
REMARK  Name = 45784307
REMARK  5 active torsions:
REMARK  status: ('A' for Active; 'I' for Inactive)
REMARK    1  A    between atoms: O_1  and  C_18
REMARK    2  A    between atoms: O_1  and  C_22
REMARK    3  A    between atoms: N_2  and  C_12
REMARK    4  A    between atoms: C_7  and  C_11
REMARK    5  A    between atoms: C_12  and  C_13
REMARK                            x       y       z     vdW  Elec       q    Type
REMARK                         _______ _______ _______ _____ _____    ______ ____
ROOT
ATOM      2  N   UNL     1      13.700   8.025  20.628  0.00  0.00    -0.295 NA
ATOM      7  C   UNL     1      15.973   7.877  20.069  0.00  0.00    +0.070 C 
ATOM      8  C   UNL     1      15.132   7.176  18.989  0.00  0.00    +0.028 C 
ATOM      9  C   UNL     1      15.020   8.036  21.262  0.00  0.00    +0.096 C 
ATOM     10  C   UNL     1      13.770   6.953  19.634  0.00  0.00    +0.085 C 
ENDROOT
BRANCH   7  11
ATOM      3  N   UNL     1      17.914   7.442  21.601  0.00  0.00    -0.341 N 
ATOM      4  N   UNL     1      17.880   6.255  19.723  0.00  0.00    -0.232 NA
ATOM     11  C   UNL     1      17.258   7.168  20.433  0.00  0.00    +0.113 A 
ATOM     14  C   UNL     1      19.033   6.651  21.648  0.00  0.00    +0.070 A 
ATOM     15  C   UNL     1      18.990   5.920  20.464  0.00  0.00    +0.089 A 
ATOM     16  C   UNL     1      20.049   6.517  22.594  0.00  0.00    +0.073 A 
ATOM     17  C   UNL     1      20.013   4.996  20.192  0.00  0.00    +0.033 A 
ATOM     18  C   UNL     1      21.059   5.592  22.307  0.00  0.00    +0.122 A 
ATOM     19  C   UNL     1      21.043   4.845  21.128  0.00  0.00    +0.048 A 
ATOM     23  H   UNL     1      17.627   8.107  22.308  0.00  0.00    +0.167 HD
BRANCH  18   1
ATOM      1  O   UNL     1      22.078   5.420  23.196  0.00  0.00    -0.495 OA
ATOM     22  C   UNL     1      23.074   4.456  22.860  0.00  0.00    +0.277 C 
ENDBRANCH  18   1
ENDBRANCH   7  11
BRANCH   2  12
ATOM     12  C   UNL     1      12.625   7.821  21.587  0.00  0.00    +0.158 C 
BRANCH  12  13
ATOM      5  N   UNL     1      11.325   9.240  23.192  0.00  0.00    -0.347 N 
ATOM      6  N   UNL     1      11.991  10.250  21.329  0.00  0.00    -0.239 NA
ATOM     13  C   UNL     1      11.992   9.122  22.004  0.00  0.00    +0.121 A 
ATOM     20  C   UNL     1      10.870  10.525  23.280  0.00  0.00    +0.104 A 
ATOM     21  C   UNL     1      11.293  11.129  22.119  0.00  0.00    +0.130 A 
ATOM     24  H   UNL     1      11.193   8.512  23.881  0.00  0.00    +0.167 HD
ENDBRANCH  12  13
ENDBRANCH   2  12
TORSDOF 4
ENDMDL
MODEL 4
REMARK VINA RESULT:      -6.4     26.718     29.454
REMARK  Name = 45784307
REMARK  5 active torsions:
REMARK  status: ('A' for Active; 'I' for Inactive)
REMARK    1  A    between atoms: O_1  and  C_18
REMARK    2  A    between atoms: O_1  and  C_22
REMARK    3  A    between atoms: N_2  and  C_12
REMARK    4  A    between atoms: C_7  and  C_11
REMARK    5  A    between atoms: C_12  and  C_13
REMARK                            x       y       z     vdW  Elec       q    Type
REMARK                         _______ _______ _______ _____ _____    ______ ____
ROOT
ATOM      2  N   UNL     1      -4.580 -11.699  17.352  0.00  0.00    -0.295 NA
ATOM      7  C   UNL     1      -6.330 -10.459  18.301  0.00  0.00    +0.070 C 
ATOM      8  C   UNL     1      -6.255 -11.840  18.973  0.00  0.00    +0.028 C 
ATOM      9  C   UNL     1      -5.494 -10.603  17.022  0.00  0.00    +0.096 C 
ATOM     10  C   UNL     1      -5.412 -12.691  18.032  0.00  0.00    +0.085 C 
ENDROOT
BRANCH   7  11
ATOM      3  N   UNL     1      -7.950  -8.814  17.316  0.00  0.00    -0.341 N 
ATOM      4  N   UNL     1      -8.853 -10.510  18.433  0.00  0.00    -0.232 NA
ATOM     11  C   UNL     1      -7.730  -9.956  18.035  0.00  0.00    +0.113 A 
ATOM     14  C   UNL     1      -9.306  -8.619  17.246  0.00  0.00    +0.070 A 
ATOM     15  C   UNL     1      -9.847  -9.690  17.951  0.00  0.00    +0.089 A 
ATOM     16  C   UNL     1     -10.082  -7.627  16.644  0.00  0.00    +0.073 A 
ATOM     17  C   UNL     1     -11.243  -9.795  18.073  0.00  0.00    +0.033 A 
ATOM     18  C   UNL     1     -11.469  -7.747  16.777  0.00  0.00    +0.122 A 
ATOM     19  C   UNL     1     -12.042  -8.810  17.478  0.00  0.00    +0.048 A 
ATOM     23  H   UNL     1      -7.243  -8.217  16.908  0.00  0.00    +0.167 HD
BRANCH  18   1
ATOM      1  O   UNL     1     -12.277  -6.806  16.210  0.00  0.00    -0.495 OA
ATOM     22  C   UNL     1     -11.679  -5.932  15.254  0.00  0.00    +0.277 C 
ENDBRANCH  18   1
ENDBRANCH   7  11
BRANCH   2  12
ATOM     12  C   UNL     1      -3.917 -12.243  16.176  0.00  0.00    +0.158 C 
BRANCH  12  13
ATOM      5  N   UNL     1      -1.718 -11.077  16.462  0.00  0.00    -0.347 N 
ATOM      6  N   UNL     1      -2.752 -10.728  14.528  0.00  0.00    -0.239 NA
ATOM     13  C   UNL     1      -2.813 -11.343  15.688  0.00  0.00    +0.121 A 
ATOM     20  C   UNL     1      -0.907 -10.240  15.750  0.00  0.00    +0.104 A 
ATOM     21  C   UNL     1      -1.566 -10.038  14.560  0.00  0.00    +0.130 A 
ATOM     24  H   UNL     1      -1.538 -11.434  17.391  0.00  0.00    +0.167 HD
ENDBRANCH  12  13
ENDBRANCH   2  12
TORSDOF 4
ENDMDL
MODEL 5
REMARK VINA RESULT:      -6.4      2.893      4.653
REMARK  Name = 45784307
REMARK  5 active torsions:
REMARK  status: ('A' for Active; 'I' for Inactive)
REMARK    1  A    between atoms: O_1  and  C_18
REMARK    2  A    between atoms: O_1  and  C_22
REMARK    3  A    between atoms: N_2  and  C_12
REMARK    4  A    between atoms: C_7  and  C_11
REMARK    5  A    between atoms: C_12  and  C_13
REMARK                            x       y       z     vdW  Elec       q    Type
REMARK                         _______ _______ _______ _____ _____    ______ ____
ROOT
ATOM      2  N   UNL     1      15.199   7.958  20.850  0.00  0.00    -0.295 NA
ATOM      7  C   UNL     1      17.357   7.292  20.216  0.00  0.00    +0.070 C 
ATOM      8  C   UNL     1      16.322   6.340  19.594  0.00  0.00    +0.028 C 
ATOM      9  C   UNL     1      16.586   8.042  21.311  0.00  0.00    +0.096 C 
ATOM     10  C   UNL     1      15.041   6.580  20.384  0.00  0.00    +0.085 C 
ENDROOT
BRANCH   7  11
ATOM      3  N   UNL     1      19.172   5.564  20.071  0.00  0.00    -0.341 N 
ATOM      4  N   UNL     1      19.283   6.940  21.813  0.00  0.00    -0.232 NA
ATOM     11  C   UNL     1      18.609   6.621  20.731  0.00  0.00    +0.113 A 
ATOM     14  C   UNL     1      20.283   5.176  20.774  0.00  0.00    +0.070 A 
ATOM     15  C   UNL     1      20.331   6.048  21.857  0.00  0.00    +0.089 A 
ATOM     16  C   UNL     1      21.223   4.166  20.562  0.00  0.00    +0.073 A 
ATOM     17  C   UNL     1      21.370   5.922  22.794  0.00  0.00    +0.033 A 
ATOM     18  C   UNL     1      22.249   4.053  21.506  0.00  0.00    +0.122 A 
ATOM     19  C   UNL     1      22.324   4.914  22.602  0.00  0.00    +0.048 A 
ATOM     23  H   UNL     1      18.833   5.142  19.216  0.00  0.00    +0.167 HD
BRANCH  18   1
ATOM      1  O   UNL     1      23.195   3.084  21.349  0.00  0.00    -0.495 OA
ATOM     22  C   UNL     1      24.422   3.471  20.733  0.00  0.00    +0.277 C 
ENDBRANCH  18   1
ENDBRANCH   7  11
BRANCH   2  12
ATOM     12  C   UNL     1      14.245   8.302  21.893  0.00  0.00    +0.158 C 
BRANCH  12  13
ATOM      5  N   UNL     1      12.345   8.901  20.372  0.00  0.00    -0.347 N 
ATOM      6  N   UNL     1      11.901   7.366  21.915  0.00  0.00    -0.239 NA
ATOM     13  C   UNL     1      12.822   8.163  21.420  0.00  0.00    +0.121 A 
ATOM     20  C   UNL     1      11.037   8.553  20.189  0.00  0.00    +0.104 A 
ATOM     21  C   UNL     1      10.786   7.604  21.152  0.00  0.00    +0.130 A 
ATOM     24  H   UNL     1      12.863   9.580  19.831  0.00  0.00    +0.167 HD
ENDBRANCH  12  13
ENDBRANCH   2  12
TORSDOF 4
ENDMDL
MODEL 6
REMARK VINA RESULT:      -6.3     26.674     28.049
REMARK  Name = 45784307
REMARK  5 active torsions:
REMARK  status: ('A' for Active; 'I' for Inactive)
REMARK    1  A    between atoms: O_1  and  C_18
REMARK    2  A    between atoms: O_1  and  C_22
REMARK    3  A    between atoms: N_2  and  C_12
REMARK    4  A    between atoms: C_7  and  C_11
REMARK    5  A    between atoms: C_12  and  C_13
REMARK                            x       y       z     vdW  Elec       q    Type
REMARK                         _______ _______ _______ _____ _____    ______ ____
ROOT
ATOM      2  N   UNL     1      -2.563 -11.170  12.451  0.00  0.00    -0.295 NA
ATOM      7  C   UNL     1      -2.753 -10.530  14.700  0.00  0.00    +0.070 C 
ATOM      8  C   UNL     1      -1.601 -11.538  14.548  0.00  0.00    +0.028 C 
ATOM      9  C   UNL     1      -3.556 -10.659  13.398  0.00  0.00    +0.096 C 
ATOM     10  C   UNL     1      -1.830 -12.196  13.193  0.00  0.00    +0.085 C 
ENDROOT
BRANCH   7  11
ATOM      3  N   UNL     1      -4.867 -10.204  16.014  0.00  0.00    -0.341 N 
ATOM      4  N   UNL     1      -3.262 -11.355  17.033  0.00  0.00    -0.232 NA
ATOM     11  C   UNL     1      -3.601 -10.717  15.936  0.00  0.00    +0.113 A 
ATOM     14  C   UNL     1      -5.377 -10.534  17.243  0.00  0.00    +0.070 A 
ATOM     15  C   UNL     1      -4.357 -11.251  17.861  0.00  0.00    +0.089 A 
ATOM     16  C   UNL     1      -6.607 -10.273  17.850  0.00  0.00    +0.073 A 
ATOM     17  C   UNL     1      -4.557 -11.746  19.161  0.00  0.00    +0.033 A 
ATOM     18  C   UNL     1      -6.788 -10.773  19.144  0.00  0.00    +0.122 A 
ATOM     19  C   UNL     1      -5.783 -11.496  19.789  0.00  0.00    +0.048 A 
ATOM     23  H   UNL     1      -5.344  -9.676  15.295  0.00  0.00    +0.167 HD
BRANCH  18   1
ATOM      1  O   UNL     1      -7.970 -10.548  19.785  0.00  0.00    -0.495 OA
ATOM     22  C   UNL     1      -9.018 -11.488  19.557  0.00  0.00    +0.277 C 
ENDBRANCH  18   1
ENDBRANCH   7  11
BRANCH   2  12
ATOM     12  C   UNL     1      -3.170 -11.692  11.237  0.00  0.00    +0.158 C 
BRANCH  12  13
ATOM      5  N   UNL     1      -5.060 -10.695   9.927  0.00  0.00    -0.347 N 
ATOM      6  N   UNL     1      -3.206  -9.476  10.031  0.00  0.00    -0.239 NA
ATOM     13  C   UNL     1      -3.780 -10.599  10.400  0.00  0.00    +0.121 A 
ATOM     20  C   UNL     1      -5.317  -9.560   9.211  0.00  0.00    +0.104 A 
ATOM     21  C   UNL     1      -4.159  -8.824   9.289  0.00  0.00    +0.130 A 
ATOM     24  H   UNL     1      -5.700 -11.462  10.079  0.00  0.00    +0.167 HD
ENDBRANCH  12  13
ENDBRANCH   2  12
TORSDOF 4
ENDMDL
MODEL 7
REMARK VINA RESULT:      -6.3     27.316     29.930
REMARK  Name = 45784307
REMARK  5 active torsions:
REMARK  status: ('A' for Active; 'I' for Inactive)
REMARK    1  A    between atoms: O_1  and  C_18
REMARK    2  A    between atoms: O_1  and  C_22
REMARK    3  A    between atoms: N_2  and  C_12
REMARK    4  A    between atoms: C_7  and  C_11
REMARK    5  A    between atoms: C_12  and  C_13
REMARK                            x       y       z     vdW  Elec       q    Type
REMARK                         _______ _______ _______ _____ _____    ______ ____
ROOT
ATOM      2  N   UNL     1      -4.465 -11.447  17.559  0.00  0.00    -0.295 NA
ATOM      7  C   UNL     1      -6.212 -10.562  18.849  0.00  0.00    +0.070 C 
ATOM      8  C   UNL     1      -5.571 -11.743  19.595  0.00  0.00    +0.028 C 
ATOM      9  C   UNL     1      -5.713 -10.697  17.404  0.00  0.00    +0.096 C 
ATOM     10  C   UNL     1      -4.773 -12.493  18.535  0.00  0.00    +0.085 C 
ENDROOT
BRANCH   7  11
ATOM      3  N   UNL     1      -8.455  -9.755  18.061  0.00  0.00    -0.341 N 
ATOM      4  N   UNL     1      -8.477 -11.087  19.840  0.00  0.00    -0.232 NA
ATOM     11  C   UNL     1      -7.719 -10.491  18.948  0.00  0.00    +0.113 A 
ATOM     14  C   UNL     1      -9.776  -9.886  18.405  0.00  0.00    +0.070 A 
ATOM     15  C   UNL     1      -9.764 -10.720  19.518  0.00  0.00    +0.089 A 
ATOM     16  C   UNL     1     -10.946  -9.360  17.854  0.00  0.00    +0.073 A 
ATOM     17  C   UNL     1     -10.981 -11.062  20.132  0.00  0.00    +0.033 A 
ATOM     18  C   UNL     1     -12.148  -9.710  18.478  0.00  0.00    +0.122 A 
ATOM     19  C   UNL     1     -12.167 -10.546  19.596  0.00  0.00    +0.048 A 
ATOM     23  H   UNL     1      -8.094  -9.211  17.288  0.00  0.00    +0.167 HD
BRANCH  18   1
ATOM      1  O   UNL     1     -13.322  -9.226  17.983  0.00  0.00    -0.495 OA
ATOM     22  C   UNL     1     -13.277  -8.615  16.695  0.00  0.00    +0.277 C 
ENDBRANCH  18   1
ENDBRANCH   7  11
BRANCH   2  12
ATOM     12  C   UNL     1      -3.983 -11.990  16.298  0.00  0.00    +0.158 C 
BRANCH  12  13
ATOM      5  N   UNL     1      -1.686 -11.008  16.486  0.00  0.00    -0.347 N 
ATOM      6  N   UNL     1      -2.750 -10.619  14.575  0.00  0.00    -0.239 NA
ATOM     13  C   UNL     1      -2.824 -11.199  15.753  0.00  0.00    +0.121 A 
ATOM     20  C   UNL     1      -0.832 -10.259  15.727  0.00  0.00    +0.104 A 
ATOM     21  C   UNL     1      -1.511 -10.031  14.553  0.00  0.00    +0.130 A 
ATOM     24  H   UNL     1      -1.506 -11.357  17.417  0.00  0.00    +0.167 HD
ENDBRANCH  12  13
ENDBRANCH   2  12
TORSDOF 4
ENDMDL
MODEL 8
REMARK VINA RESULT:      -6.1     28.000     30.488
REMARK  Name = 45784307
REMARK  5 active torsions:
REMARK  status: ('A' for Active; 'I' for Inactive)
REMARK    1  A    between atoms: O_1  and  C_18
REMARK    2  A    between atoms: O_1  and  C_22
REMARK    3  A    between atoms: N_2  and  C_12
REMARK    4  A    between atoms: C_7  and  C_11
REMARK    5  A    between atoms: C_12  and  C_13
REMARK                            x       y       z     vdW  Elec       q    Type
REMARK                         _______ _______ _______ _____ _____    ______ ____
ROOT
ATOM      2  N   UNL     1      -4.996 -10.608  17.274  0.00  0.00    -0.295 NA
ATOM      7  C   UNL     1      -6.494 -10.656  19.078  0.00  0.00    +0.070 C 
ATOM      8  C   UNL     1      -5.422 -11.741  19.271  0.00  0.00    +0.028 C 
ATOM      9  C   UNL     1      -6.379 -10.255  17.601  0.00  0.00    +0.096 C 
ATOM     10  C   UNL     1      -4.783 -11.914  17.898  0.00  0.00    +0.085 C 
ENDROOT
BRANCH   7  11
ATOM      3  N   UNL     1      -8.945 -10.200  19.373  0.00  0.00    -0.341 N 
ATOM      4  N   UNL     1      -8.269 -12.244  19.923  0.00  0.00    -0.232 NA
ATOM     11  C   UNL     1      -7.894 -11.070  19.468  0.00  0.00    +0.113 A 
ATOM     14  C   UNL     1     -10.072 -10.857  19.794  0.00  0.00    +0.070 A 
ATOM     15  C   UNL     1      -9.624 -12.131  20.133  0.00  0.00    +0.089 A 
ATOM     16  C   UNL     1     -11.405 -10.459  19.906  0.00  0.00    +0.073 A 
ATOM     17  C   UNL     1     -10.546 -13.076  20.612  0.00  0.00    +0.033 A 
ATOM     18  C   UNL     1     -12.309 -11.413  20.386  0.00  0.00    +0.122 A 
ATOM     19  C   UNL     1     -11.889 -12.698  20.733  0.00  0.00    +0.048 A 
ATOM     23  H   UNL     1      -8.902  -9.242  19.050  0.00  0.00    +0.167 HD
BRANCH  18   1
ATOM      1  O   UNL     1     -13.624 -11.079  20.515  0.00  0.00    -0.495 OA
ATOM     22  C   UNL     1     -14.272 -11.460  21.727  0.00  0.00    +0.277 C 
ENDBRANCH  18   1
ENDBRANCH   7  11
BRANCH   2  12
ATOM     12  C   UNL     1      -4.753 -10.634  15.839  0.00  0.00    +0.158 C 
BRANCH  12  13
ATOM      5  N   UNL     1      -2.318 -10.052  15.940  0.00  0.00    -0.347 N 
ATOM      6  N   UNL     1      -2.822 -11.914  14.838  0.00  0.00    -0.239 NA
ATOM     13  C   UNL     1      -3.306 -10.899  15.520  0.00  0.00    +0.121 A 
ATOM     20  C   UNL     1      -1.130 -10.559  15.497  0.00  0.00    +0.104 A 
ATOM     21  C   UNL     1      -1.466 -11.707  14.819  0.00  0.00    +0.130 A 
ATOM     24  H   UNL     1      -2.442  -9.206  16.479  0.00  0.00    +0.167 HD
ENDBRANCH  12  13
ENDBRANCH   2  12
TORSDOF 4
ENDMDL
MODEL 9
REMARK VINA RESULT:      -6.1      2.927      4.853
REMARK  Name = 45784307
REMARK  5 active torsions:
REMARK  status: ('A' for Active; 'I' for Inactive)
REMARK    1  A    between atoms: O_1  and  C_18
REMARK    2  A    between atoms: O_1  and  C_22
REMARK    3  A    between atoms: N_2  and  C_12
REMARK    4  A    between atoms: C_7  and  C_11
REMARK    5  A    between atoms: C_12  and  C_13
REMARK                            x       y       z     vdW  Elec       q    Type
REMARK                         _______ _______ _______ _____ _____    ______ ____
ROOT
ATOM      2  N   UNL     1      14.828   7.783  20.600  0.00  0.00    -0.295 NA
ATOM      7  C   UNL     1      16.982   7.770  21.529  0.00  0.00    +0.070 C 
ATOM      8  C   UNL     1      16.870   8.914  20.508  0.00  0.00    +0.028 C 
ATOM      9  C   UNL     1      15.778   6.865  21.233  0.00  0.00    +0.096 C 
ATOM     10  C   UNL     1      15.636   8.583  19.678  0.00  0.00    +0.085 C 
ENDROOT
BRANCH   7  11
ATOM      3  N   UNL     1      19.167   7.090  22.561  0.00  0.00    -0.341 N 
ATOM      4  N   UNL     1      18.754   6.266  20.538  0.00  0.00    -0.232 NA
ATOM     11  C   UNL     1      18.297   7.025  21.507  0.00  0.00    +0.113 A 
ATOM     14  C   UNL     1      20.258   6.319  22.249  0.00  0.00    +0.070 A 
ATOM     15  C   UNL     1      19.977   5.817  20.982  0.00  0.00    +0.089 A 
ATOM     16  C   UNL     1      21.432   6.029  22.946  0.00  0.00    +0.073 A 
ATOM     17  C   UNL     1      20.910   4.972  20.358  0.00  0.00    +0.033 A 
ATOM     18  C   UNL     1      22.350   5.187  22.309  0.00  0.00    +0.122 A 
ATOM     19  C   UNL     1      22.096   4.667  21.038  0.00  0.00    +0.048 A 
ATOM     23  H   UNL     1      19.033   7.610  23.417  0.00  0.00    +0.167 HD
BRANCH  18   1
ATOM      1  O   UNL     1      23.514   4.869  22.943  0.00  0.00    -0.495 OA
ATOM     22  C   UNL     1      24.605   5.773  22.784  0.00  0.00    +0.277 C 
ENDBRANCH  18   1
ENDBRANCH   7  11
BRANCH   2  12
ATOM     12  C   UNL     1      13.746   7.084  19.924  0.00  0.00    +0.158 C 
BRANCH  12  13
ATOM      5  N   UNL     1      11.756   5.885  20.862  0.00  0.00    -0.347 N 
ATOM      6  N   UNL     1      11.990   8.003  21.486  0.00  0.00    -0.239 NA
ATOM     13  C   UNL     1      12.501   7.027  20.769  0.00  0.00    +0.121 A 
ATOM     20  C   UNL     1      10.704   6.149  21.692  0.00  0.00    +0.104 A 
ATOM     21  C   UNL     1      10.869   7.462  22.064  0.00  0.00    +0.130 A 
ATOM     24  H   UNL     1      11.947   5.004  20.404  0.00  0.00    +0.167 HD
ENDBRANCH  12  13
ENDBRANCH   2  12
TORSDOF 4
ENDMDL
MODEL 10
REMARK VINA RESULT:      -6.0     31.194     33.169
REMARK  Name = 45784307
REMARK  5 active torsions:
REMARK  status: ('A' for Active; 'I' for Inactive)
REMARK    1  A    between atoms: O_1  and  C_18
REMARK    2  A    between atoms: O_1  and  C_22
REMARK    3  A    between atoms: N_2  and  C_12
REMARK    4  A    between atoms: C_7  and  C_11
REMARK    5  A    between atoms: C_12  and  C_13
REMARK                            x       y       z     vdW  Elec       q    Type
REMARK                         _______ _______ _______ _____ _____    ______ ____
ROOT
ATOM      2  N   UNL     1     -14.533   2.677  31.231  0.00  0.00    -0.295 NA
ATOM      7  C   UNL     1     -16.065   2.206  29.519  0.00  0.00    +0.070 C 
ATOM      8  C   UNL     1     -15.379   0.905  29.966  0.00  0.00    +0.028 C 
ATOM      9  C   UNL     1     -15.187   3.326  30.093  0.00  0.00    +0.096 C 
ATOM     10  C   UNL     1     -14.144   1.355  30.737  0.00  0.00    +0.085 C 
ENDROOT
BRANCH   7  11
ATOM      3  N   UNL     1     -15.625   3.280  27.293  0.00  0.00    -0.341 N 
ATOM      4  N   UNL     1     -17.075   1.596  27.285  0.00  0.00    -0.232 NA
ATOM     11  C   UNL     1     -16.281   2.331  28.029  0.00  0.00    +0.113 A 
ATOM     14  C   UNL     1     -16.023   3.146  25.988  0.00  0.00    +0.070 A 
ATOM     15  C   UNL     1     -16.929   2.090  26.008  0.00  0.00    +0.089 A 
ATOM     16  C   UNL     1     -15.679   3.839  24.826  0.00  0.00    +0.073 A 
ATOM     17  C   UNL     1     -17.538   1.686  24.808  0.00  0.00    +0.033 A 
ATOM     18  C   UNL     1     -16.296   3.424  23.641  0.00  0.00    +0.122 A 
ATOM     19  C   UNL     1     -17.208   2.367  23.630  0.00  0.00    +0.048 A 
ATOM     23  H   UNL     1     -14.963   3.959  27.645  0.00  0.00    +0.167 HD
BRANCH  18   1
ATOM      1  O   UNL     1     -15.998   4.064  22.475  0.00  0.00    -0.495 OA
ATOM     22  C   UNL     1     -14.871   4.939  22.487  0.00  0.00    +0.277 C 
ENDBRANCH  18   1
ENDBRANCH   7  11
BRANCH   2  12
ATOM     12  C   UNL     1     -13.396   3.438  31.727  0.00  0.00    +0.158 C 
BRANCH  12  13
ATOM      5  N   UNL     1     -14.330   4.033  33.975  0.00  0.00    -0.347 N 
ATOM      6  N   UNL     1     -13.723   5.745  32.697  0.00  0.00    -0.239 NA
ATOM     13  C   UNL     1     -13.806   4.436  32.778  0.00  0.00    +0.121 A 
ATOM     20  C   UNL     1     -14.598   5.157  34.703  0.00  0.00    +0.104 A 
ATOM     21  C   UNL     1     -14.215   6.201  33.894  0.00  0.00    +0.130 A 
ATOM     24  H   UNL     1     -14.489   3.079  34.270  0.00  0.00    +0.167 HD
ENDBRANCH  12  13
ENDBRANCH   2  12
TORSDOF 4
ENDMDL
