MODEL 1
REMARK VINA RESULT:      -6.4      0.000      0.000
REMARK  Name = 7134370
REMARK  13 active torsions:
REMARK  status: ('A' for Active; 'I' for Inactive)
REMARK    1  A    between atoms: S_1  and  N_12
REMARK    2  A    between atoms: S_1  and  C_24
REMARK    3  A    between atoms: O_7  and  C_23
REMARK    4  A    between atoms: O_7  and  C_30
REMARK    5  A    between atoms: O_9  and  C_37
REMARK    6  A    between atoms: N_12  and  C_15
REMARK    7  A    between atoms: N_13  and  C_22
REMARK    8  A    between atoms: C_17  and  C_20
REMARK    9  A    between atoms: C_21  and  C_23
REMARK   10  A    between atoms: C_22  and  C_25
REMARK   11  A    between atoms: C_22  and  C_26
REMARK   12  A    between atoms: C_25  and  C_27
REMARK   13  A    between atoms: C_30  and  C_37
REMARK                            x       y       z     vdW  Elec       q    Type
REMARK                         _______ _______ _______ _____ _____    ______ ____
ROOT
ATOM      4  O   UNL     1      -3.335 -12.689  10.672  0.00  0.00    -0.273 OA
ATOM     11  N   UNL     1      -4.560 -10.712  10.548  0.00  0.00    -0.288 N 
ATOM     15  C   UNL     1      -6.513  -9.091   9.118  0.00  0.00    +0.080 C 
ATOM     16  C   UNL     1      -5.374  -8.432   9.898  0.00  0.00    +0.052 C 
ATOM     17  C   UNL     1      -4.801  -9.330  10.997  0.00  0.00    +0.163 C 
ATOM     18  C   UNL     1      -6.090 -10.466   8.611  0.00  0.00    +0.039 C 
ATOM     19  C   UNL     1      -5.629 -11.345   9.766  0.00  0.00    +0.110 C 
ATOM     21  C   UNL     1      -3.465 -11.491  10.941  0.00  0.00    +0.242 C 
ENDROOT
BRANCH  17  20
ATOM      3  O   UNL     1      -6.740  -8.750  12.265  0.00  0.00    -0.274 OA
ATOM     13  N   UNL     1      -5.223 -10.274  13.158  0.00  0.00    -0.302 N 
ATOM     20  C   UNL     1      -5.706  -9.411  12.190  0.00  0.00    +0.234 C 
ATOM     39  H   UNL     1      -4.381 -10.810  12.966  0.00  0.00    +0.150 HD
BRANCH  13  22
ATOM     22  C   UNL     1      -5.898 -10.511  14.414  0.00  0.00    +0.163 C 
BRANCH  22  26
ATOM      8  O   UNL     1      -7.057 -12.579  14.949  0.00  0.00    -0.274 OA
ATOM     14  N   UNL     1      -4.888 -12.697  14.204  0.00  0.00    -0.328 N 
ATOM     26  C   UNL     1      -6.030 -12.018  14.574  0.00  0.00    +0.231 C 
ATOM     40  H   UNL     1      -4.846 -13.710  14.249  0.00  0.00    +0.145 HD
ATOM     41  H   UNL     1      -4.054 -12.221  13.873  0.00  0.00    +0.145 HD
ENDBRANCH  22  26
BRANCH  22  25
ATOM     25  C   UNL     1      -5.137  -9.912  15.603  0.00  0.00    +0.067 C 
BRANCH  25  27
ATOM     27  C   UNL     1      -5.788 -10.222  16.928  0.00  0.00    -0.045 A 
ATOM     32  C   UNL     1      -5.071 -10.899  17.915  0.00  0.00    +0.004 A 
ATOM     33  C   UNL     1      -7.106  -9.832  17.167  0.00  0.00    +0.004 A 
ATOM     34  C   UNL     1      -5.674 -11.186  19.141  0.00  0.00    +0.000 A 
ATOM     35  C   UNL     1      -7.707 -10.118  18.392  0.00  0.00    +0.000 A 
ATOM     36  C   UNL     1      -6.991 -10.795  19.378  0.00  0.00    +0.000 A 
ENDBRANCH  25  27
ENDBRANCH  22  25
ENDBRANCH  13  22
ENDBRANCH  17  20
BRANCH  15  12
ATOM     12  N   UNL     1      -6.878  -8.231   7.966  0.00  0.00    -0.186 NA
ATOM     38  H   UNL     1      -6.826  -8.702   7.053  0.00  0.00    +0.148 HD
BRANCH  12   1
ATOM      1  S   UNL     1      -8.178  -7.138   8.168  0.00  0.00    +0.065 S 
ATOM      5  O   UNL     1      -7.664  -5.783   8.232  0.00  0.00    -0.153 OA
ATOM      6  O   UNL     1      -9.069  -7.654   9.188  0.00  0.00    -0.153 OA
BRANCH   1  24
ATOM      2  S   UNL     1      -8.367  -7.879   5.316  0.00  0.00    -0.077 S 
ATOM     24  C   UNL     1      -9.164  -7.204   6.672  0.00  0.00    +0.142 A 
ATOM     28  C   UNL     1     -10.453  -6.818   6.376  0.00  0.00    +0.036 A 
ATOM     29  C   UNL     1     -10.791  -7.082   5.017  0.00  0.00    +0.010 A 
ATOM     31  C   UNL     1      -9.747  -7.658   4.327  0.00  0.00    +0.047 A 
ENDBRANCH   1  24
ENDBRANCH  12   1
ENDBRANCH  15  12
BRANCH  21  23
ATOM     23  C   UNL     1      -2.385 -10.795  11.733  0.00  0.00    +0.256 C 
BRANCH  23   7
ATOM      7  O   UNL     1      -2.442 -11.322  13.037  0.00  0.00    -0.359 OA
BRANCH   7  30
ATOM     30  C   UNL     1      -1.843 -10.449  13.993  0.00  0.00    +0.280 C 
BRANCH  30  37
ATOM     10  O   UNL     1      -1.439 -10.609  16.384  0.00  0.00    -0.248 OA
ATOM     37  C   UNL     1      -1.778 -11.130  15.332  0.00  0.00    +0.331 C 
BRANCH  37   9
ATOM      9  O   UNL     1      -2.157 -12.428  15.217  0.00  0.00    -0.479 OA
ATOM     42  H   UNL     1      -2.959 -12.623  15.748  0.00  0.00    +0.295 HD
ENDBRANCH  37   9
ENDBRANCH  30  37
ENDBRANCH   7  30
ENDBRANCH  23   7
ENDBRANCH  21  23
TORSDOF 13
ENDMDL
MODEL 2
REMARK VINA RESULT:      -6.1     23.022     25.296
REMARK  Name = 7134370
REMARK  13 active torsions:
REMARK  status: ('A' for Active; 'I' for Inactive)
REMARK    1  A    between atoms: S_1  and  N_12
REMARK    2  A    between atoms: S_1  and  C_24
REMARK    3  A    between atoms: O_7  and  C_23
REMARK    4  A    between atoms: O_7  and  C_30
REMARK    5  A    between atoms: O_9  and  C_37
REMARK    6  A    between atoms: N_12  and  C_15
REMARK    7  A    between atoms: N_13  and  C_22
REMARK    8  A    between atoms: C_17  and  C_20
REMARK    9  A    between atoms: C_21  and  C_23
REMARK   10  A    between atoms: C_22  and  C_25
REMARK   11  A    between atoms: C_22  and  C_26
REMARK   12  A    between atoms: C_25  and  C_27
REMARK   13  A    between atoms: C_30  and  C_37
REMARK                            x       y       z     vdW  Elec       q    Type
REMARK                         _______ _______ _______ _____ _____    ______ ____
ROOT
ATOM      4  O   UNL     1       9.644   9.539   8.025  0.00  0.00    -0.273 OA
ATOM     11  N   UNL     1       8.671   9.506   5.910  0.00  0.00    -0.288 N 
ATOM     15  C   UNL     1       7.406  10.979   3.738  0.00  0.00    +0.080 C 
ATOM     16  C   UNL     1       7.009   9.532   4.034  0.00  0.00    +0.052 C 
ATOM     17  C   UNL     1       8.092   8.753   4.784  0.00  0.00    +0.163 C 
ATOM     18  C   UNL     1       7.877  11.677   5.011  0.00  0.00    +0.039 C 
ATOM     19  C   UNL     1       9.024  10.907   5.652  0.00  0.00    +0.110 C 
ATOM     21  C   UNL     1       9.038   8.937   7.135  0.00  0.00    +0.242 C 
ENDROOT
BRANCH  17  20
ATOM      3  O   UNL     1       9.676   9.129   3.036  0.00  0.00    -0.274 OA
ATOM     13  N   UNL     1       9.669   7.073   4.128  0.00  0.00    -0.302 N 
ATOM     20  C   UNL     1       9.230   8.363   3.888  0.00  0.00    +0.234 C 
ATOM     39  H   UNL     1       9.260   6.548   4.896  0.00  0.00    +0.150 HD
BRANCH  13  22
ATOM     22  C   UNL     1      10.739   6.451   3.383  0.00  0.00    +0.163 C 
BRANCH  22  26
ATOM      8  O   UNL     1      12.980   7.323   3.739  0.00  0.00    -0.274 OA
ATOM     14  N   UNL     1      11.982   6.135   5.432  0.00  0.00    -0.328 N 
ATOM     26  C   UNL     1      12.023   6.681   4.166  0.00  0.00    +0.231 C 
ATOM     40  H   UNL     1      12.769   6.228   6.066  0.00  0.00    +0.145 HD
ATOM     41  H   UNL     1      11.175   5.628   5.781  0.00  0.00    +0.145 HD
ENDBRANCH  22  26
BRANCH  22  25
ATOM     25  C   UNL     1      10.504   4.950   3.173  0.00  0.00    +0.067 C 
BRANCH  25  27
ATOM     27  C   UNL     1      11.171   4.423   1.926  0.00  0.00    -0.045 A 
ATOM     32  C   UNL     1      10.566   4.607   0.682  0.00  0.00    +0.004 A 
ATOM     33  C   UNL     1      12.390   3.753   2.017  0.00  0.00    +0.004 A 
ATOM     34  C   UNL     1      11.183   4.119  -0.471  0.00  0.00    +0.000 A 
ATOM     35  C   UNL     1      13.007   3.266   0.865  0.00  0.00    +0.000 A 
ATOM     36  C   UNL     1      12.403   3.450  -0.379  0.00  0.00    +0.000 A 
ENDBRANCH  25  27
ENDBRANCH  22  25
ENDBRANCH  13  22
ENDBRANCH  17  20
BRANCH  15  12
ATOM     12  N   UNL     1       6.237  11.703   3.182  0.00  0.00    -0.186 NA
ATOM     38  H   UNL     1       5.840  12.413   3.812  0.00  0.00    +0.148 HD
BRANCH  12   1
ATOM      1  S   UNL     1       6.272  12.115   1.522  0.00  0.00    +0.065 S 
ATOM      5  O   UNL     1       7.649  12.204   1.076  0.00  0.00    -0.153 OA
ATOM      6  O   UNL     1       5.333  13.195   1.288  0.00  0.00    -0.153 OA
BRANCH   1  24
ATOM      2  S   UNL     1       6.213  10.499  -0.948  0.00  0.00    -0.077 S 
ATOM     24  C   UNL     1       5.565  10.738   0.619  0.00  0.00    +0.142 A 
ATOM     28  C   UNL     1       4.592   9.812   0.923  0.00  0.00    +0.036 A 
ATOM     29  C   UNL     1       4.375   8.893  -0.145  0.00  0.00    +0.010 A 
ATOM     31  C   UNL     1       5.191   9.152  -1.224  0.00  0.00    +0.047 A 
ENDBRANCH   1  24
ENDBRANCH  12   1
ENDBRANCH  15  12
BRANCH  21  23
ATOM     23  C   UNL     1       8.645   7.497   7.361  0.00  0.00    +0.256 C 
BRANCH  23   7
ATOM      7  O   UNL     1       9.821   6.735   7.229  0.00  0.00    -0.359 OA
BRANCH   7  30
ATOM     30  C   UNL     1      10.121   6.004   8.417  0.00  0.00    +0.280 C 
BRANCH  30  37
ATOM     10  O   UNL     1       9.411   3.764   9.037  0.00  0.00    -0.248 OA
ATOM     37  C   UNL     1       9.840   4.543   8.199  0.00  0.00    +0.331 C 
BRANCH  37   9
ATOM      9  O   UNL     1      10.131   4.196   6.920  0.00  0.00    -0.479 OA
ATOM     42  H   UNL     1       9.923   4.918   6.289  0.00  0.00    +0.295 HD
ENDBRANCH  37   9
ENDBRANCH  30  37
ENDBRANCH   7  30
ENDBRANCH  23   7
ENDBRANCH  21  23
TORSDOF 13
ENDMDL
MODEL 3
REMARK VINA RESULT:      -6.1      4.979      9.916
REMARK  Name = 7134370
REMARK  13 active torsions:
REMARK  status: ('A' for Active; 'I' for Inactive)
REMARK    1  A    between atoms: S_1  and  N_12
REMARK    2  A    between atoms: S_1  and  C_24
REMARK    3  A    between atoms: O_7  and  C_23
REMARK    4  A    between atoms: O_7  and  C_30
REMARK    5  A    between atoms: O_9  and  C_37
REMARK    6  A    between atoms: N_12  and  C_15
REMARK    7  A    between atoms: N_13  and  C_22
REMARK    8  A    between atoms: C_17  and  C_20
REMARK    9  A    between atoms: C_21  and  C_23
REMARK   10  A    between atoms: C_22  and  C_25
REMARK   11  A    between atoms: C_22  and  C_26
REMARK   12  A    between atoms: C_25  and  C_27
REMARK   13  A    between atoms: C_30  and  C_37
REMARK                            x       y       z     vdW  Elec       q    Type
REMARK                         _______ _______ _______ _____ _____    ______ ____
ROOT
ATOM      4  O   UNL     1     -12.600  -8.090  16.077  0.00  0.00    -0.273 OA
ATOM     11  N   UNL     1     -10.439  -8.828  16.530  0.00  0.00    -0.288 N 
ATOM     15  C   UNL     1      -8.634 -10.286  18.293  0.00  0.00    +0.080 C 
ATOM     16  C   UNL     1      -8.142  -9.071  17.505  0.00  0.00    +0.052 C 
ATOM     17  C   UNL     1      -8.991  -8.775  16.266  0.00  0.00    +0.163 C 
ATOM     18  C   UNL     1     -10.123 -10.158  18.600  0.00  0.00    +0.039 C 
ATOM     19  C   UNL     1     -10.921  -9.970  17.317  0.00  0.00    +0.110 C 
ATOM     21  C   UNL     1     -11.378  -7.961  15.961  0.00  0.00    +0.242 C 
ENDROOT
BRANCH  17  20
ATOM      3  O   UNL     1      -9.064 -10.914  15.207  0.00  0.00    -0.274 OA
ATOM     13  N   UNL     1      -8.022  -9.146  14.107  0.00  0.00    -0.302 N 
ATOM     20  C   UNL     1      -8.714  -9.737  15.149  0.00  0.00    +0.234 C 
ATOM     39  H   UNL     1      -7.830  -8.149  14.144  0.00  0.00    +0.150 HD
BRANCH  13  22
ATOM     22  C   UNL     1      -7.614  -9.865  12.921  0.00  0.00    +0.163 C 
BRANCH  22  26
ATOM      8  O   UNL     1      -9.661  -9.482  11.669  0.00  0.00    -0.274 OA
ATOM     14  N   UNL     1      -9.041 -11.646  12.126  0.00  0.00    -0.328 N 
ATOM     26  C   UNL     1      -8.882 -10.278  12.189  0.00  0.00    +0.231 C 
ATOM     40  H   UNL     1      -9.839 -12.057  11.653  0.00  0.00    +0.145 HD
ATOM     41  H   UNL     1      -8.376 -12.292  12.540  0.00  0.00    +0.145 HD
ENDBRANCH  22  26
BRANCH  22  25
ATOM     25  C   UNL     1      -6.722  -9.016  12.007  0.00  0.00    +0.067 C 
BRANCH  25  27
ATOM     27  C   UNL     1      -5.316  -9.554  11.901  0.00  0.00    -0.045 A 
ATOM     32  C   UNL     1      -4.805 -10.374  12.907  0.00  0.00    +0.004 A 
ATOM     33  C   UNL     1      -4.527  -9.231  10.797  0.00  0.00    +0.004 A 
ATOM     34  C   UNL     1      -3.505 -10.871  12.809  0.00  0.00    +0.000 A 
ATOM     35  C   UNL     1      -3.228  -9.728  10.699  0.00  0.00    +0.000 A 
ATOM     36  C   UNL     1      -2.718 -10.548  11.704  0.00  0.00    +0.000 A 
ENDBRANCH  25  27
ENDBRANCH  22  25
ENDBRANCH  13  22
ENDBRANCH  17  20
BRANCH  15  12
ATOM     12  N   UNL     1      -7.875 -10.385  19.564  0.00  0.00    -0.186 NA
ATOM     38  H   UNL     1      -8.421 -10.149  20.403  0.00  0.00    +0.148 HD
BRANCH  12   1
ATOM      1  S   UNL     1      -6.771 -11.680  19.733  0.00  0.00    +0.065 S 
ATOM      5  O   UNL     1      -7.481 -12.938  19.605  0.00  0.00    -0.153 OA
ATOM      6  O   UNL     1      -5.907 -11.414  20.866  0.00  0.00    -0.153 OA
BRANCH   1  24
ATOM      2  S   UNL     1      -5.664 -13.016  17.344  0.00  0.00    -0.077 S 
ATOM     24  C   UNL     1      -5.658 -11.616  18.329  0.00  0.00    +0.142 A 
ATOM     28  C   UNL     1      -4.781 -10.660  17.865  0.00  0.00    +0.036 A 
ATOM     29  C   UNL     1      -4.106 -11.083  16.684  0.00  0.00    +0.010 A 
ATOM     31  C   UNL     1      -4.492 -12.346  16.291  0.00  0.00    +0.047 A 
ENDBRANCH   1  24
ENDBRANCH  12   1
ENDBRANCH  15  12
BRANCH  21  23
ATOM     23  C   UNL     1     -10.836  -6.795  15.170  0.00  0.00    +0.256 C 
BRANCH  23   7
ATOM      7  O   UNL     1     -11.805  -5.777  15.240  0.00  0.00    -0.359 OA
BRANCH   7  30
ATOM     30  C   UNL     1     -12.178  -5.303  13.948  0.00  0.00    +0.280 C 
BRANCH  30  37
ATOM     10  O   UNL     1     -14.296  -4.376  13.201  0.00  0.00    -0.248 OA
ATOM     37  C   UNL     1     -13.675  -5.199  13.856  0.00  0.00    +0.331 C 
BRANCH  37   9
ATOM      9  O   UNL     1     -14.258  -6.164  14.612  0.00  0.00    -0.479 OA
ATOM     42  H   UNL     1     -14.800  -5.783  15.336  0.00  0.00    +0.295 HD
ENDBRANCH  37   9
ENDBRANCH  30  37
ENDBRANCH   7  30
ENDBRANCH  23   7
ENDBRANCH  21  23
TORSDOF 13
ENDMDL
MODEL 4
REMARK VINA RESULT:      -6.1     28.370     30.877
REMARK  Name = 7134370
REMARK  13 active torsions:
REMARK  status: ('A' for Active; 'I' for Inactive)
REMARK    1  A    between atoms: S_1  and  N_12
REMARK    2  A    between atoms: S_1  and  C_24
REMARK    3  A    between atoms: O_7  and  C_23
REMARK    4  A    between atoms: O_7  and  C_30
REMARK    5  A    between atoms: O_9  and  C_37
REMARK    6  A    between atoms: N_12  and  C_15
REMARK    7  A    between atoms: N_13  and  C_22
REMARK    8  A    between atoms: C_17  and  C_20
REMARK    9  A    between atoms: C_21  and  C_23
REMARK   10  A    between atoms: C_22  and  C_25
REMARK   11  A    between atoms: C_22  and  C_26
REMARK   12  A    between atoms: C_25  and  C_27
REMARK   13  A    between atoms: C_30  and  C_37
REMARK                            x       y       z     vdW  Elec       q    Type
REMARK                         _______ _______ _______ _____ _____    ______ ____
ROOT
ATOM      4  O   UNL     1      19.118   7.130  22.193  0.00  0.00    -0.273 OA
ATOM     11  N   UNL     1      17.245   8.123  21.229  0.00  0.00    -0.288 N 
ATOM     15  C   UNL     1      14.783   7.814  19.702  0.00  0.00    +0.080 C 
ATOM     16  C   UNL     1      15.624   9.086  19.578  0.00  0.00    +0.052 C 
ATOM     17  C   UNL     1      16.525   9.331  20.790  0.00  0.00    +0.163 C 
ATOM     18  C   UNL     1      15.668   6.619  20.045  0.00  0.00    +0.039 C 
ATOM     19  C   UNL     1      16.461   6.886  21.318  0.00  0.00    +0.110 C 
ATOM     21  C   UNL     1      18.563   8.117  21.701  0.00  0.00    +0.242 C 
ENDROOT
BRANCH  17  20
ATOM      3  O   UNL     1      14.900   9.148  22.531  0.00  0.00    -0.274 OA
ATOM     13  N   UNL     1      16.109  11.127  22.320  0.00  0.00    -0.302 N 
ATOM     20  C   UNL     1      15.755   9.835  21.975  0.00  0.00    +0.234 C 
ATOM     39  H   UNL     1      16.869  11.581  21.820  0.00  0.00    +0.150 HD
BRANCH  13  22
ATOM     22  C   UNL     1      15.497  11.849  23.412  0.00  0.00    +0.163 C 
BRANCH  22  26
ATOM      8  O   UNL     1      16.499  13.533  24.850  0.00  0.00    -0.274 OA
ATOM     14  N   UNL     1      17.784  11.750  24.185  0.00  0.00    -0.328 N 
ATOM     26  C   UNL     1      16.622  12.491  24.211  0.00  0.00    +0.231 C 
ATOM     40  H   UNL     1      18.610  12.058  24.689  0.00  0.00    +0.145 HD
ATOM     41  H   UNL     1      17.865  10.877  23.672  0.00  0.00    +0.145 HD
ENDBRANCH  22  26
BRANCH  22  25
ATOM     25  C   UNL     1      14.514  12.919  22.921  0.00  0.00    +0.067 C 
BRANCH  25  27
ATOM     27  C   UNL     1      13.120  12.724  23.464  0.00  0.00    -0.045 A 
ATOM     32  C   UNL     1      12.049  13.420  22.902  0.00  0.00    +0.004 A 
ATOM     33  C   UNL     1      12.901  11.848  24.527  0.00  0.00    +0.004 A 
ATOM     34  C   UNL     1      10.760  13.240  23.404  0.00  0.00    +0.000 A 
ATOM     35  C   UNL     1      11.612  11.667  25.028  0.00  0.00    +0.000 A 
ATOM     36  C   UNL     1      10.542  12.363  24.467  0.00  0.00    +0.000 A 
ENDBRANCH  25  27
ENDBRANCH  22  25
ENDBRANCH  13  22
ENDBRANCH  17  20
BRANCH  15  12
ATOM     12  N   UNL     1      14.088   7.560  18.416  0.00  0.00    -0.186 NA
ATOM     38  H   UNL     1      14.177   6.596  18.070  0.00  0.00    +0.148 HD
BRANCH  12   1
ATOM      1  S   UNL     1      12.565   8.301  18.176  0.00  0.00    +0.065 S 
ATOM      5  O   UNL     1      11.618   7.312  17.697  0.00  0.00    -0.153 OA
ATOM      6  O   UNL     1      12.759   9.557  17.478  0.00  0.00    -0.153 OA
BRANCH   1  24
ATOM      2  S   UNL     1      11.267   7.541  20.716  0.00  0.00    -0.077 S 
ATOM     24  C   UNL     1      11.957   8.801  19.786  0.00  0.00    +0.142 A 
ATOM     28  C   UNL     1      11.928  10.009  20.448  0.00  0.00    +0.036 A 
ATOM     29  C   UNL     1      11.330   9.898  21.737  0.00  0.00    +0.010 A 
ATOM     31  C   UNL     1      10.926   8.610  22.010  0.00  0.00    +0.047 A 
ENDBRANCH   1  24
ENDBRANCH  12   1
ENDBRANCH  15  12
BRANCH  21  23
ATOM     23  C   UNL     1      19.335   9.408  21.580  0.00  0.00    +0.256 C 
BRANCH  23   7
ATOM      7  O   UNL     1      20.687   9.089  21.804  0.00  0.00    -0.359 OA
BRANCH   7  30
ATOM     30  C   UNL     1      21.282   9.939  22.784  0.00  0.00    +0.280 C 
BRANCH  30  37
ATOM     10  O   UNL     1      20.260  10.336  24.952  0.00  0.00    -0.248 OA
ATOM     37  C   UNL     1      20.775   9.571  24.151  0.00  0.00    +0.331 C 
BRANCH  37   9
ATOM      9  O   UNL     1      20.966   8.247  24.380  0.00  0.00    -0.479 OA
ATOM     42  H   UNL     1      21.096   8.056  25.334  0.00  0.00    +0.295 HD
ENDBRANCH  37   9
ENDBRANCH  30  37
ENDBRANCH   7  30
ENDBRANCH  23   7
ENDBRANCH  21  23
TORSDOF 13
ENDMDL
MODEL 5
REMARK VINA RESULT:      -6.0      2.583      5.498
REMARK  Name = 7134370
REMARK  13 active torsions:
REMARK  status: ('A' for Active; 'I' for Inactive)
REMARK    1  A    between atoms: S_1  and  N_12
REMARK    2  A    between atoms: S_1  and  C_24
REMARK    3  A    between atoms: O_7  and  C_23
REMARK    4  A    between atoms: O_7  and  C_30
REMARK    5  A    between atoms: O_9  and  C_37
REMARK    6  A    between atoms: N_12  and  C_15
REMARK    7  A    between atoms: N_13  and  C_22
REMARK    8  A    between atoms: C_17  and  C_20
REMARK    9  A    between atoms: C_21  and  C_23
REMARK   10  A    between atoms: C_22  and  C_25
REMARK   11  A    between atoms: C_22  and  C_26
REMARK   12  A    between atoms: C_25  and  C_27
REMARK   13  A    between atoms: C_30  and  C_37
REMARK                            x       y       z     vdW  Elec       q    Type
REMARK                         _______ _______ _______ _____ _____    ______ ____
ROOT
ATOM      4  O   UNL     1      -9.235 -10.497  16.502  0.00  0.00    -0.273 OA
ATOM     11  N   UNL     1      -7.892 -10.828  14.629  0.00  0.00    -0.288 N 
ATOM     15  C   UNL     1      -7.479 -10.434  11.772  0.00  0.00    +0.080 C 
ATOM     16  C   UNL     1      -6.960 -11.693  12.468  0.00  0.00    +0.052 C 
ATOM     17  C   UNL     1      -6.760 -11.506  13.974  0.00  0.00    +0.163 C 
ATOM     18  C   UNL     1      -8.720  -9.902  12.482  0.00  0.00    +0.039 C 
ATOM     19  C   UNL     1      -8.426  -9.639  13.953  0.00  0.00    +0.110 C 
ATOM     21  C   UNL     1      -8.378 -11.151  15.901  0.00  0.00    +0.242 C 
ENDROOT
BRANCH  17  20
ATOM      3  O   UNL     1      -5.582  -9.676  14.956  0.00  0.00    -0.274 OA
ATOM     13  N   UNL     1      -4.392 -11.249  13.719  0.00  0.00    -0.302 N 
ATOM     20  C   UNL     1      -5.531 -10.705  14.286  0.00  0.00    +0.234 C 
ATOM     39  H   UNL     1      -4.461 -12.135  13.226  0.00  0.00    +0.150 HD
BRANCH  13  22
ATOM     22  C   UNL     1      -3.082 -10.654  13.851  0.00  0.00    +0.163 C 
BRANCH  22  26
ATOM      8  O   UNL     1      -2.027 -10.557  16.039  0.00  0.00    -0.274 OA
ATOM     14  N   UNL     1      -2.448 -12.615  15.113  0.00  0.00    -0.328 N 
ATOM     26  C   UNL     1      -2.450 -11.237  15.107  0.00  0.00    +0.231 C 
ATOM     40  H   UNL     1      -2.068 -13.133  15.899  0.00  0.00    +0.145 HD
ATOM     41  H   UNL     1      -2.824 -13.165  14.346  0.00  0.00    +0.145 HD
ENDBRANCH  22  26
BRANCH  22  25
ATOM     25  C   UNL     1      -2.195 -10.928  12.631  0.00  0.00    +0.067 C 
BRANCH  25  27
ATOM     27  C   UNL     1      -2.935 -10.771  11.325  0.00  0.00    -0.045 A 
ATOM     32  C   UNL     1      -3.089  -9.505  10.759  0.00  0.00    +0.004 A 
ATOM     33  C   UNL     1      -3.465 -11.890  10.685  0.00  0.00    +0.004 A 
ATOM     34  C   UNL     1      -3.772  -9.361   9.551  0.00  0.00    +0.000 A 
ATOM     35  C   UNL     1      -4.148 -11.746   9.478  0.00  0.00    +0.000 A 
ATOM     36  C   UNL     1      -4.302 -10.481   8.911  0.00  0.00    +0.000 A 
ENDBRANCH  25  27
ENDBRANCH  22  25
ENDBRANCH  13  22
ENDBRANCH  17  20
BRANCH  15  12
ATOM     12  N   UNL     1      -7.817 -10.758  10.364  0.00  0.00    -0.186 NA
ATOM     38  H   UNL     1      -8.458 -11.556  10.256  0.00  0.00    +0.148 HD
BRANCH  12   1
ATOM      1  S   UNL     1      -8.060  -9.455   9.283  0.00  0.00    +0.065 S 
ATOM      5  O   UNL     1      -7.202  -8.349   9.662  0.00  0.00    -0.153 OA
ATOM      6  O   UNL     1      -9.484  -9.270   9.085  0.00  0.00    -0.153 OA
BRANCH   1  24
ATOM      2  S   UNL     1      -7.582 -11.669   7.389  0.00  0.00    -0.077 S 
ATOM     24  C   UNL     1      -7.474  -9.984   7.674  0.00  0.00    +0.142 A 
ATOM     28  C   UNL     1      -6.945  -9.310   6.596  0.00  0.00    +0.036 A 
ATOM     29  C   UNL     1      -6.624 -10.188   5.521  0.00  0.00    +0.010 A 
ATOM     31  C   UNL     1      -6.920 -11.500   5.818  0.00  0.00    +0.047 A 
ENDBRANCH   1  24
ENDBRANCH  12   1
ENDBRANCH  15  12
BRANCH  21  23
ATOM     23  C   UNL     1      -7.808 -12.388  16.553  0.00  0.00    +0.256 C 
BRANCH  23   7
ATOM      7  O   UNL     1      -6.960 -11.943  17.584  0.00  0.00    -0.359 OA
BRANCH   7  30
ATOM     30  C   UNL     1      -5.664 -12.535  17.503  0.00  0.00    +0.280 C 
BRANCH  30  37
ATOM     10  O   UNL     1      -3.849 -11.947  19.008  0.00  0.00    -0.248 OA
ATOM     37  C   UNL     1      -4.650 -11.627  18.143  0.00  0.00    +0.331 C 
BRANCH  37   9
ATOM      9  O   UNL     1      -4.743 -10.379  17.619  0.00  0.00    -0.479 OA
ATOM     42  H   UNL     1      -5.676 -10.092  17.518  0.00  0.00    +0.295 HD
ENDBRANCH  37   9
ENDBRANCH  30  37
ENDBRANCH   7  30
ENDBRANCH  23   7
ENDBRANCH  21  23
TORSDOF 13
ENDMDL
MODEL 6
REMARK VINA RESULT:      -6.0     25.718     28.282
REMARK  Name = 7134370
REMARK  13 active torsions:
REMARK  status: ('A' for Active; 'I' for Inactive)
REMARK    1  A    between atoms: S_1  and  N_12
REMARK    2  A    between atoms: S_1  and  C_24
REMARK    3  A    between atoms: O_7  and  C_23
REMARK    4  A    between atoms: O_7  and  C_30
REMARK    5  A    between atoms: O_9  and  C_37
REMARK    6  A    between atoms: N_12  and  C_15
REMARK    7  A    between atoms: N_13  and  C_22
REMARK    8  A    between atoms: C_17  and  C_20
REMARK    9  A    between atoms: C_21  and  C_23
REMARK   10  A    between atoms: C_22  and  C_25
REMARK   11  A    between atoms: C_22  and  C_26
REMARK   12  A    between atoms: C_25  and  C_27
REMARK   13  A    between atoms: C_30  and  C_37
REMARK                            x       y       z     vdW  Elec       q    Type
REMARK                         _______ _______ _______ _____ _____    ______ ____
ROOT
ATOM      4  O   UNL     1      12.830   6.085   7.866  0.00  0.00    -0.273 OA
ATOM     11  N   UNL     1      13.612   7.346   6.071  0.00  0.00    -0.288 N 
ATOM     15  C   UNL     1      15.728   8.993   4.931  0.00  0.00    +0.080 C 
ATOM     16  C   UNL     1      14.261   9.257   4.585  0.00  0.00    +0.052 C 
ATOM     17  C   UNL     1      13.365   8.034   4.792  0.00  0.00    +0.163 C 
ATOM     18  C   UNL     1      15.848   8.388   6.327  0.00  0.00    +0.039 C 
ATOM     19  C   UNL     1      15.015   7.117   6.435  0.00  0.00    +0.110 C 
ATOM     21  C   UNL     1      12.611   6.775   6.866  0.00  0.00    +0.242 C 
ENDROOT
BRANCH  17  20
ATOM      3  O   UNL     1      14.631   6.822   3.169  0.00  0.00    -0.274 OA
ATOM     13  N   UNL     1      12.358   6.370   3.394  0.00  0.00    -0.302 N 
ATOM     20  C   UNL     1      13.542   7.014   3.706  0.00  0.00    +0.234 C 
ATOM     39  H   UNL     1      11.526   6.573   3.941  0.00  0.00    +0.150 HD
BRANCH  13  22
ATOM     22  C   UNL     1      12.255   5.360   2.365  0.00  0.00    +0.163 C 
BRANCH  22  26
ATOM      8  O   UNL     1      11.399   3.115   2.733  0.00  0.00    -0.274 OA
ATOM     14  N   UNL     1      10.160   4.900   3.478  0.00  0.00    -0.328 N 
ATOM     26  C   UNL     1      11.246   4.330   2.848  0.00  0.00    +0.231 C 
ATOM     40  H   UNL     1       9.417   4.324   3.861  0.00  0.00    +0.145 HD
ATOM     41  H   UNL     1      10.058   5.904   3.587  0.00  0.00    +0.145 HD
ENDBRANCH  22  26
BRANCH  22  25
ATOM     25  C   UNL     1      11.816   5.947   1.018  0.00  0.00    +0.067 C 
BRANCH  25  27
ATOM     27  C   UNL     1      11.920   4.954  -0.113  0.00  0.00    -0.045 A 
ATOM     32  C   UNL     1      10.814   4.704  -0.925  0.00  0.00    +0.004 A 
ATOM     33  C   UNL     1      13.122   4.286  -0.347  0.00  0.00    +0.004 A 
ATOM     34  C   UNL     1      10.911   3.786  -1.972  0.00  0.00    +0.000 A 
ATOM     35  C   UNL     1      13.219   3.369  -1.392  0.00  0.00    +0.000 A 
ATOM     36  C   UNL     1      12.113   3.119  -2.205  0.00  0.00    +0.000 A 
ENDBRANCH  25  27
ENDBRANCH  22  25
ENDBRANCH  13  22
ENDBRANCH  17  20
BRANCH  15  12
ATOM     12  N   UNL     1      16.480  10.270   4.881  0.00  0.00    -0.186 NA
ATOM     38  H   UNL     1      16.398  10.844   5.731  0.00  0.00    +0.148 HD
BRANCH  12   1
ATOM      1  S   UNL     1      18.019  10.258   4.135  0.00  0.00    +0.065 S 
ATOM      5  O   UNL     1      18.523  11.615   4.046  0.00  0.00    -0.153 OA
ATOM      6  O   UNL     1      17.969   9.396   2.970  0.00  0.00    -0.153 OA
BRANCH   1  24
ATOM      2  S   UNL     1      20.339   8.462   4.468  0.00  0.00    -0.077 S 
ATOM     24  C   UNL     1      19.140   9.406   5.244  0.00  0.00    +0.142 A 
ATOM     28  C   UNL     1      19.244   9.347   6.616  0.00  0.00    +0.036 A 
ATOM     29  C   UNL     1      20.323   8.516   7.036  0.00  0.00    +0.010 A 
ATOM     31  C   UNL     1      21.002   7.972   5.968  0.00  0.00    +0.047 A 
ENDBRANCH   1  24
ENDBRANCH  12   1
ENDBRANCH  15  12
BRANCH  21  23
ATOM     23  C   UNL     1      11.183   7.046   6.461  0.00  0.00    +0.256 C 
BRANCH  23   7
ATOM      7  O   UNL     1      10.605   5.796   6.168  0.00  0.00    -0.359 OA
BRANCH   7  30
ATOM     30  C   UNL     1       9.387   5.590   6.882  0.00  0.00    +0.280 C 
BRANCH  30  37
ATOM     10  O   UNL     1       9.183   5.344   9.291  0.00  0.00    -0.248 OA
ATOM     37  C   UNL     1       9.682   4.996   8.231  0.00  0.00    +0.331 C 
BRANCH  37   9
ATOM      9  O   UNL     1      10.595   3.999   8.114  0.00  0.00    -0.479 OA
ATOM     42  H   UNL     1      11.027   4.000   7.233  0.00  0.00    +0.295 HD
ENDBRANCH  37   9
ENDBRANCH  30  37
ENDBRANCH   7  30
ENDBRANCH  23   7
ENDBRANCH  21  23
TORSDOF 13
ENDMDL
MODEL 7
REMARK VINA RESULT:      -5.9     23.814     27.155
REMARK  Name = 7134370
REMARK  13 active torsions:
REMARK  status: ('A' for Active; 'I' for Inactive)
REMARK    1  A    between atoms: S_1  and  N_12
REMARK    2  A    between atoms: S_1  and  C_24
REMARK    3  A    between atoms: O_7  and  C_23
REMARK    4  A    between atoms: O_7  and  C_30
REMARK    5  A    between atoms: O_9  and  C_37
REMARK    6  A    between atoms: N_12  and  C_15
REMARK    7  A    between atoms: N_13  and  C_22
REMARK    8  A    between atoms: C_17  and  C_20
REMARK    9  A    between atoms: C_21  and  C_23
REMARK   10  A    between atoms: C_22  and  C_25
REMARK   11  A    between atoms: C_22  and  C_26
REMARK   12  A    between atoms: C_25  and  C_27
REMARK   13  A    between atoms: C_30  and  C_37
REMARK                            x       y       z     vdW  Elec       q    Type
REMARK                         _______ _______ _______ _____ _____    ______ ____
ROOT
ATOM      4  O   UNL     1       3.919  -6.313  38.494  0.00  0.00    -0.273 OA
ATOM     11  N   UNL     1       4.832  -8.163  37.414  0.00  0.00    -0.288 N 
ATOM     15  C   UNL     1       4.581 -10.964  36.653  0.00  0.00    +0.080 C 
ATOM     16  C   UNL     1       5.953 -10.356  36.947  0.00  0.00    +0.052 C 
ATOM     17  C   UNL     1       5.982  -8.834  36.785  0.00  0.00    +0.163 C 
ATOM     18  C   UNL     1       3.496 -10.253  37.456  0.00  0.00    +0.039 C 
ATOM     19  C   UNL     1       3.511  -8.757  37.172  0.00  0.00    +0.110 C 
ATOM     21  C   UNL     1       4.903  -6.937  38.085  0.00  0.00    +0.242 C 
ENDROOT
BRANCH  17  20
ATOM      3  O   UNL     1       5.211  -8.896  34.525  0.00  0.00    -0.274 OA
ATOM     13  N   UNL     1       6.982  -7.488  35.074  0.00  0.00    -0.302 N 
ATOM     20  C   UNL     1       5.995  -8.419  35.343  0.00  0.00    +0.234 C 
ATOM     39  H   UNL     1       7.541  -7.125  35.841  0.00  0.00    +0.150 HD
BRANCH  13  22
ATOM     22  C   UNL     1       7.218  -6.945  33.755  0.00  0.00    +0.163 C 
BRANCH  22  26
ATOM      8  O   UNL     1       8.675  -5.093  34.352  0.00  0.00    -0.274 OA
ATOM     14  N   UNL     1       6.583  -4.624  33.527  0.00  0.00    -0.328 N 
ATOM     26  C   UNL     1       7.586  -5.479  33.934  0.00  0.00    +0.231 C 
ATOM     40  H   UNL     1       6.703  -3.618  33.580  0.00  0.00    +0.145 HD
ATOM     41  H   UNL     1       5.697  -4.958  33.161  0.00  0.00    +0.145 HD
ENDBRANCH  22  26
BRANCH  22  25
ATOM     25  C   UNL     1       8.335  -7.689  33.014  0.00  0.00    +0.067 C 
BRANCH  25  27
ATOM     27  C   UNL     1       7.821  -8.847  32.194  0.00  0.00    -0.045 A 
ATOM     32  C   UNL     1       7.161  -8.609  30.988  0.00  0.00    +0.004 A 
ATOM     33  C   UNL     1       8.005 -10.155  32.642  0.00  0.00    +0.004 A 
ATOM     34  C   UNL     1       6.686  -9.680  30.230  0.00  0.00    +0.000 A 
ATOM     35  C   UNL     1       7.530 -11.225  31.884  0.00  0.00    +0.000 A 
ATOM     36  C   UNL     1       6.871 -10.987  30.679  0.00  0.00    +0.000 A 
ENDBRANCH  25  27
ENDBRANCH  22  25
ENDBRANCH  13  22
ENDBRANCH  17  20
BRANCH  15  12
ATOM     12  N   UNL     1       4.597 -12.403  37.012  0.00  0.00    -0.186 NA
ATOM     38  H   UNL     1       4.438 -12.592  38.011  0.00  0.00    +0.148 HD
BRANCH  12   1
ATOM      1  S   UNL     1       3.874 -13.504  35.921  0.00  0.00    +0.065 S 
ATOM      5  O   UNL     1       4.551 -14.784  36.007  0.00  0.00    -0.153 OA
ATOM      6  O   UNL     1       3.677 -12.841  34.647  0.00  0.00    -0.153 OA
BRANCH   1  24
ATOM      2  S   UNL     1       1.367 -15.043  35.663  0.00  0.00    -0.077 S 
ATOM     24  C   UNL     1       2.205 -13.809  36.501  0.00  0.00    +0.142 A 
ATOM     28  C   UNL     1       1.438 -13.249  37.499  0.00  0.00    +0.036 A 
ATOM     29  C   UNL     1       0.145 -13.842  37.577  0.00  0.00    +0.010 A 
ATOM     31  C   UNL     1      -0.027 -14.832  36.635  0.00  0.00    +0.047 A 
ENDBRANCH   1  24
ENDBRANCH  12   1
ENDBRANCH  15  12
BRANCH  21  23
ATOM     23  C   UNL     1       6.281  -6.370  38.322  0.00  0.00    +0.256 C 
BRANCH  23   7
ATOM      7  O   UNL     1       6.554  -5.513  37.239  0.00  0.00    -0.359 OA
BRANCH   7  30
ATOM     30  C   UNL     1       6.794  -4.173  37.664  0.00  0.00    +0.280 C 
BRANCH  30  37
ATOM     10  O   UNL     1       4.857  -2.743  37.990  0.00  0.00    -0.248 OA
ATOM     37  C   UNL     1       5.650  -3.293  37.242  0.00  0.00    +0.331 C 
BRANCH  37   9
ATOM      9  O   UNL     1       5.617  -3.186  35.889  0.00  0.00    -0.479 OA
ATOM     42  H   UNL     1       4.698  -3.175  35.545  0.00  0.00    +0.295 HD
ENDBRANCH  37   9
ENDBRANCH  30  37
ENDBRANCH   7  30
ENDBRANCH  23   7
ENDBRANCH  21  23
TORSDOF 13
ENDMDL
MODEL 8
REMARK VINA RESULT:      -5.9      3.517      6.472
REMARK  Name = 7134370
REMARK  13 active torsions:
REMARK  status: ('A' for Active; 'I' for Inactive)
REMARK    1  A    between atoms: S_1  and  N_12
REMARK    2  A    between atoms: S_1  and  C_24
REMARK    3  A    between atoms: O_7  and  C_23
REMARK    4  A    between atoms: O_7  and  C_30
REMARK    5  A    between atoms: O_9  and  C_37
REMARK    6  A    between atoms: N_12  and  C_15
REMARK    7  A    between atoms: N_13  and  C_22
REMARK    8  A    between atoms: C_17  and  C_20
REMARK    9  A    between atoms: C_21  and  C_23
REMARK   10  A    between atoms: C_22  and  C_25
REMARK   11  A    between atoms: C_22  and  C_26
REMARK   12  A    between atoms: C_25  and  C_27
REMARK   13  A    between atoms: C_30  and  C_37
REMARK                            x       y       z     vdW  Elec       q    Type
REMARK                         _______ _______ _______ _____ _____    ______ ____
ROOT
ATOM      4  O   UNL     1      -5.828 -13.299   9.907  0.00  0.00    -0.273 OA
ATOM     11  N   UNL     1      -5.877 -11.796  11.685  0.00  0.00    -0.288 N 
ATOM     15  C   UNL     1      -7.423 -10.461  13.763  0.00  0.00    +0.080 C 
ATOM     16  C   UNL     1      -6.247  -9.753  13.089  0.00  0.00    +0.052 C 
ATOM     17  C   UNL     1      -5.240 -10.721  12.465  0.00  0.00    +0.163 C 
ATOM     18  C   UNL     1      -8.064 -11.462  12.807  0.00  0.00    +0.039 C 
ATOM     19  C   UNL     1      -7.030 -12.461  12.303  0.00  0.00    +0.110 C 
ATOM     21  C   UNL     1      -5.368 -12.311  10.488  0.00  0.00    +0.242 C 
ENDROOT
BRANCH  17  20
ATOM      3  O   UNL     1      -4.004 -12.548  13.381  0.00  0.00    -0.274 OA
ATOM     13  N   UNL     1      -4.099 -10.545  14.564  0.00  0.00    -0.302 N 
ATOM     20  C   UNL     1      -4.378 -11.384  13.499  0.00  0.00    +0.234 C 
ATOM     39  H   UNL     1      -4.419  -9.581  14.531  0.00  0.00    +0.150 HD
BRANCH  13  22
ATOM     22  C   UNL     1      -3.308 -10.952  15.703  0.00  0.00    +0.163 C 
BRANCH  22  26
ATOM      8  O   UNL     1      -1.530  -9.882  14.438  0.00  0.00    -0.274 OA
ATOM     14  N   UNL     1      -1.003 -10.895  16.430  0.00  0.00    -0.328 N 
ATOM     26  C   UNL     1      -1.873 -10.526  15.426  0.00  0.00    +0.231 C 
ATOM     40  H   UNL     1      -0.017 -10.661  16.378  0.00  0.00    +0.145 HD
ATOM     41  H   UNL     1      -1.305 -11.406  17.254  0.00  0.00    +0.145 HD
ENDBRANCH  22  26
BRANCH  22  25
ATOM     25  C   UNL     1      -3.808 -10.325  17.010  0.00  0.00    +0.067 C 
BRANCH  25  27
ATOM     27  C   UNL     1      -4.904 -11.132  17.662  0.00  0.00    -0.045 A 
ATOM     32  C   UNL     1      -5.330 -10.814  18.952  0.00  0.00    +0.004 A 
ATOM     33  C   UNL     1      -5.491 -12.195  16.976  0.00  0.00    +0.004 A 
ATOM     34  C   UNL     1      -6.344 -11.560  19.555  0.00  0.00    +0.000 A 
ATOM     35  C   UNL     1      -6.504 -12.940  17.578  0.00  0.00    +0.000 A 
ATOM     36  C   UNL     1      -6.930 -12.622  18.867  0.00  0.00    +0.000 A 
ENDBRANCH  25  27
ENDBRANCH  22  25
ENDBRANCH  13  22
ENDBRANCH  17  20
BRANCH  15  12
ATOM     12  N   UNL     1      -8.432  -9.453  14.171  0.00  0.00    -0.186 NA
ATOM     38  H   UNL     1      -9.297  -9.470  13.614  0.00  0.00    +0.148 HD
BRANCH  12   1
ATOM      1  S   UNL     1      -8.629  -9.156  15.844  0.00  0.00    +0.065 S 
ATOM      5  O   UNL     1      -9.563  -8.063  16.033  0.00  0.00    -0.153 OA
ATOM      6  O   UNL     1      -7.324  -9.150  16.475  0.00  0.00    -0.153 OA
BRANCH   1  24
ATOM      2  S   UNL     1      -9.849 -10.449  18.202  0.00  0.00    -0.077 S 
ATOM     24  C   UNL     1      -9.432 -10.596  16.548  0.00  0.00    +0.142 A 
ATOM     28  C   UNL     1      -9.793 -11.820  16.030  0.00  0.00    +0.036 A 
ATOM     29  C   UNL     1     -10.421 -12.649  17.005  0.00  0.00    +0.010 A 
ATOM     31  C   UNL     1     -10.515 -12.026  18.230  0.00  0.00    +0.047 A 
ENDBRANCH   1  24
ENDBRANCH  12   1
ENDBRANCH  15  12
BRANCH  21  23
ATOM     23  C   UNL     1      -4.189 -11.589   9.883  0.00  0.00    +0.256 C 
BRANCH  23   7
ATOM      7  O   UNL     1      -4.682 -10.871   8.777  0.00  0.00    -0.359 OA
BRANCH   7  30
ATOM     30  C   UNL     1      -4.556  -9.461   8.954  0.00  0.00    +0.280 C 
BRANCH  30  37
ATOM     10  O   UNL     1      -6.955  -9.459   9.336  0.00  0.00    -0.248 OA
ATOM     37  C   UNL     1      -5.916  -8.848   9.138  0.00  0.00    +0.331 C 
BRANCH  37   9
ATOM      9  O   UNL     1      -5.835  -7.496   9.056  0.00  0.00    -0.479 OA
ATOM     42  H   UNL     1      -4.904  -7.186   9.029  0.00  0.00    +0.295 HD
ENDBRANCH  37   9
ENDBRANCH  30  37
ENDBRANCH   7  30
ENDBRANCH  23   7
ENDBRANCH  21  23
TORSDOF 13
ENDMDL
MODEL 9
REMARK VINA RESULT:      -5.8      3.447      6.166
REMARK  Name = 7134370
REMARK  13 active torsions:
REMARK  status: ('A' for Active; 'I' for Inactive)
REMARK    1  A    between atoms: S_1  and  N_12
REMARK    2  A    between atoms: S_1  and  C_24
REMARK    3  A    between atoms: O_7  and  C_23
REMARK    4  A    between atoms: O_7  and  C_30
REMARK    5  A    between atoms: O_9  and  C_37
REMARK    6  A    between atoms: N_12  and  C_15
REMARK    7  A    between atoms: N_13  and  C_22
REMARK    8  A    between atoms: C_17  and  C_20
REMARK    9  A    between atoms: C_21  and  C_23
REMARK   10  A    between atoms: C_22  and  C_25
REMARK   11  A    between atoms: C_22  and  C_26
REMARK   12  A    between atoms: C_25  and  C_27
REMARK   13  A    between atoms: C_30  and  C_37
REMARK                            x       y       z     vdW  Elec       q    Type
REMARK                         _______ _______ _______ _____ _____    ______ ____
ROOT
ATOM      4  O   UNL     1      -5.950 -12.776   9.674  0.00  0.00    -0.273 OA
ATOM     11  N   UNL     1      -6.046 -11.425  11.568  0.00  0.00    -0.288 N 
ATOM     15  C   UNL     1      -7.655 -10.220  13.676  0.00  0.00    +0.080 C 
ATOM     16  C   UNL     1      -6.429  -9.494  13.119  0.00  0.00    +0.052 C 
ATOM     17  C   UNL     1      -5.419 -10.438  12.464  0.00  0.00    +0.163 C 
ATOM     18  C   UNL     1      -8.275 -11.119  12.611  0.00  0.00    +0.039 C 
ATOM     19  C   UNL     1      -7.245 -12.103  12.073  0.00  0.00    +0.110 C 
ATOM     21  C   UNL     1      -5.493 -11.854  10.356  0.00  0.00    +0.242 C 
ENDROOT
BRANCH  17  20
ATOM      3  O   UNL     1      -4.468 -12.425  13.386  0.00  0.00    -0.274 OA
ATOM     13  N   UNL     1      -4.145 -10.402  14.492  0.00  0.00    -0.302 N 
ATOM     20  C   UNL     1      -4.627 -11.210  13.478  0.00  0.00    +0.234 C 
ATOM     39  H   UNL     1      -4.294  -9.398  14.437  0.00  0.00    +0.150 HD
BRANCH  13  22
ATOM     22  C   UNL     1      -3.371 -10.906  15.604  0.00  0.00    +0.163 C 
BRANCH  22  26
ATOM      8  O   UNL     1      -1.527  -9.995  14.308  0.00  0.00    -0.274 OA
ATOM     14  N   UNL     1      -1.075 -10.929  16.357  0.00  0.00    -0.328 N 
ATOM     26  C   UNL     1      -1.914 -10.569  15.324  0.00  0.00    +0.231 C 
ATOM     40  H   UNL     1      -0.077 -10.748  16.306  0.00  0.00    +0.145 HD
ATOM     41  H   UNL     1      -1.411 -11.381  17.202  0.00  0.00    +0.145 HD
ENDBRANCH  22  26
BRANCH  22  25
ATOM     25  C   UNL     1      -3.813 -10.299  16.941  0.00  0.00    +0.067 C 
BRANCH  25  27
ATOM     27  C   UNL     1      -4.893 -11.105  17.619  0.00  0.00    -0.045 A 
ATOM     32  C   UNL     1      -5.256 -12.352  17.110  0.00  0.00    +0.004 A 
ATOM     33  C   UNL     1      -5.529 -10.603  18.754  0.00  0.00    +0.004 A 
ATOM     34  C   UNL     1      -6.255 -13.097  17.737  0.00  0.00    +0.000 A 
ATOM     35  C   UNL     1      -6.528 -11.348  19.381  0.00  0.00    +0.000 A 
ATOM     36  C   UNL     1      -6.890 -12.595  18.872  0.00  0.00    +0.000 A 
ENDBRANCH  25  27
ENDBRANCH  22  25
ENDBRANCH  13  22
ENDBRANCH  17  20
BRANCH  15  12
ATOM     12  N   UNL     1      -8.656  -9.219  14.121  0.00  0.00    -0.186 NA
ATOM     38  H   UNL     1      -9.327  -8.939  13.393  0.00  0.00    +0.148 HD
BRANCH  12   1
ATOM      1  S   UNL     1      -9.293  -9.377  15.700  0.00  0.00    +0.065 S 
ATOM      5  O   UNL     1      -8.344  -8.844  16.658  0.00  0.00    -0.153 OA
ATOM      6  O   UNL     1      -9.847 -10.709  15.851  0.00  0.00    -0.153 OA
BRANCH   1  24
ATOM      2  S   UNL     1     -10.391  -6.637  15.648  0.00  0.00    -0.077 S 
ATOM     24  C   UNL     1     -10.728  -8.308  15.804  0.00  0.00    +0.142 A 
ATOM     28  C   UNL     1     -12.072  -8.550  15.985  0.00  0.00    +0.036 A 
ATOM     29  C   UNL     1     -12.835  -7.347  15.996  0.00  0.00    +0.010 A 
ATOM     31  C   UNL     1     -12.045  -6.232  15.823  0.00  0.00    +0.047 A 
ENDBRANCH   1  24
ENDBRANCH  12   1
ENDBRANCH  15  12
BRANCH  21  23
ATOM     23  C   UNL     1      -4.267 -11.121   9.869  0.00  0.00    +0.256 C 
BRANCH  23   7
ATOM      7  O   UNL     1      -4.476 -10.852   8.504  0.00  0.00    -0.359 OA
BRANCH   7  30
ATOM     30  C   UNL     1      -5.061  -9.568   8.294  0.00  0.00    +0.280 C 
BRANCH  30  37
ATOM     10  O   UNL     1      -7.315 -10.332   7.801  0.00  0.00    -0.248 OA
ATOM     37  C   UNL     1      -6.316  -9.708   7.477  0.00  0.00    +0.331 C 
BRANCH  37   9
ATOM      9  O   UNL     1      -6.190  -9.032   6.307  0.00  0.00    -0.479 OA
ATOM     42  H   UNL     1      -5.264  -9.037   5.979  0.00  0.00    +0.295 HD
ENDBRANCH  37   9
ENDBRANCH  30  37
ENDBRANCH   7  30
ENDBRANCH  23   7
ENDBRANCH  21  23
TORSDOF 13
ENDMDL
MODEL 10
REMARK VINA RESULT:      -5.8     23.844     26.898
REMARK  Name = 7134370
REMARK  13 active torsions:
REMARK  status: ('A' for Active; 'I' for Inactive)
REMARK    1  A    between atoms: S_1  and  N_12
REMARK    2  A    between atoms: S_1  and  C_24
REMARK    3  A    between atoms: O_7  and  C_23
REMARK    4  A    between atoms: O_7  and  C_30
REMARK    5  A    between atoms: O_9  and  C_37
REMARK    6  A    between atoms: N_12  and  C_15
REMARK    7  A    between atoms: N_13  and  C_22
REMARK    8  A    between atoms: C_17  and  C_20
REMARK    9  A    between atoms: C_21  and  C_23
REMARK   10  A    between atoms: C_22  and  C_25
REMARK   11  A    between atoms: C_22  and  C_26
REMARK   12  A    between atoms: C_25  and  C_27
REMARK   13  A    between atoms: C_30  and  C_37
REMARK                            x       y       z     vdW  Elec       q    Type
REMARK                         _______ _______ _______ _____ _____    ______ ____
ROOT
ATOM      4  O   UNL     1       3.925  -6.351  38.433  0.00  0.00    -0.273 OA
ATOM     11  N   UNL     1       4.945  -8.138  37.343  0.00  0.00    -0.288 N 
ATOM     15  C   UNL     1       4.833 -10.931  36.519  0.00  0.00    +0.080 C 
ATOM     16  C   UNL     1       6.170 -10.272  36.865  0.00  0.00    +0.052 C 
ATOM     17  C   UNL     1       6.139  -8.747  36.734  0.00  0.00    +0.163 C 
ATOM     18  C   UNL     1       3.698 -10.282  37.305  0.00  0.00    +0.039 C 
ATOM     19  C   UNL     1       3.658  -8.781  37.051  0.00  0.00    +0.110 C 
ATOM     21  C   UNL     1       4.945  -6.925  38.041  0.00  0.00    +0.242 C 
ENDROOT
BRANCH  17  20
ATOM      3  O   UNL     1       5.414  -8.771  34.459  0.00  0.00    -0.274 OA
ATOM     13  N   UNL     1       7.155  -7.353  35.073  0.00  0.00    -0.302 N 
ATOM     20  C   UNL     1       6.175  -8.302  35.302  0.00  0.00    +0.234 C 
ATOM     39  H   UNL     1       7.693  -6.998  35.858  0.00  0.00    +0.150 HD
BRANCH  13  22
ATOM     22  C   UNL     1       7.410  -6.779  33.770  0.00  0.00    +0.163 C 
BRANCH  22  26
ATOM      8  O   UNL     1       8.893  -4.857  33.895  0.00  0.00    -0.274 OA
ATOM     14  N   UNL     1       6.647  -4.536  34.248  0.00  0.00    -0.328 N 
ATOM     26  C   UNL     1       7.755  -5.313  33.987  0.00  0.00    +0.231 C 
ATOM     40  H   UNL     1       6.734  -3.536  34.399  0.00  0.00    +0.145 HD
ATOM     41  H   UNL     1       5.709  -4.922  34.297  0.00  0.00    +0.145 HD
ENDBRANCH  22  26
BRANCH  22  25
ATOM     25  C   UNL     1       8.550  -7.493  33.036  0.00  0.00    +0.067 C 
BRANCH  25  27
ATOM     27  C   UNL     1       8.058  -8.572  32.103  0.00  0.00    -0.045 A 
ATOM     32  C   UNL     1       6.951  -8.337  31.287  0.00  0.00    +0.004 A 
ATOM     33  C   UNL     1       8.708  -9.805  32.057  0.00  0.00    +0.004 A 
ATOM     34  C   UNL     1       6.496  -9.335  30.425  0.00  0.00    +0.000 A 
ATOM     35  C   UNL     1       8.254 -10.802  31.195  0.00  0.00    +0.000 A 
ATOM     36  C   UNL     1       7.148 -10.567  30.379  0.00  0.00    +0.000 A 
ENDBRANCH  25  27
ENDBRANCH  22  25
ENDBRANCH  13  22
ENDBRANCH  17  20
BRANCH  15  12
ATOM     12  N   UNL     1       4.900 -12.375  36.850  0.00  0.00    -0.186 NA
ATOM     38  H   UNL     1       5.013 -12.575  37.853  0.00  0.00    +0.148 HD
BRANCH  12   1
ATOM      1  S   UNL     1       3.872 -13.437  35.990  0.00  0.00    +0.065 S 
ATOM      5  O   UNL     1       2.517 -12.919  36.011  0.00  0.00    -0.153 OA
ATOM      6  O   UNL     1       4.164 -14.799  36.391  0.00  0.00    -0.153 OA
BRANCH   1  24
ATOM      2  S   UNL     1       3.179 -13.894  33.156  0.00  0.00    -0.077 S 
ATOM     24  C   UNL     1       4.375 -13.386  34.270  0.00  0.00    +0.142 A 
ATOM     28  C   UNL     1       5.544 -13.017  33.641  0.00  0.00    +0.036 A 
ATOM     29  C   UNL     1       5.455 -13.152  32.225  0.00  0.00    +0.010 A 
ATOM     31  C   UNL     1       4.222 -13.621  31.827  0.00  0.00    +0.047 A 
ENDBRANCH   1  24
ENDBRANCH  12   1
ENDBRANCH  15  12
BRANCH  21  23
ATOM     23  C   UNL     1       6.291  -6.306  38.328  0.00  0.00    +0.256 C 
BRANCH  23   7
ATOM      7  O   UNL     1       6.517  -5.350  37.321  0.00  0.00    -0.359 OA
BRANCH   7  30
ATOM     30  C   UNL     1       6.682  -4.037  37.855  0.00  0.00    +0.280 C 
BRANCH  30  37
ATOM     10  O   UNL     1       5.126  -2.906  36.371  0.00  0.00    -0.248 OA
ATOM     37  C   UNL     1       5.491  -3.191  37.502  0.00  0.00    +0.331 C 
BRANCH  37   9
ATOM      9  O   UNL     1       4.858  -2.779  38.630  0.00  0.00    -0.479 OA
ATOM     42  H   UNL     1       5.462  -2.763  39.403  0.00  0.00    +0.295 HD
ENDBRANCH  37   9
ENDBRANCH  30  37
ENDBRANCH   7  30
ENDBRANCH  23   7
ENDBRANCH  21  23
TORSDOF 13
ENDMDL
