MODEL 1
REMARK VINA RESULT:      -7.6      0.000      0.000
REMARK  Name = 45361399
REMARK  10 active torsions:
REMARK  status: ('A' for Active; 'I' for Inactive)
REMARK    1  A    between atoms: O_2  and  C_10
REMARK    2  A    between atoms: N_5  and  C_14
REMARK    3  A    between atoms: N_6  and  C_24
REMARK    4  A    between atoms: C_7  and  C_17
REMARK    5  A    between atoms: C_9  and  C_19
REMARK    6  A    between atoms: C_13  and  C_18
REMARK    7  A    between atoms: C_18  and  C_20
REMARK    8  A    between atoms: C_18  and  C_21
REMARK    9  A    between atoms: C_22  and  C_23
REMARK   10  A    between atoms: C_24  and  C_27
REMARK                            x       y       z     vdW  Elec       q    Type
REMARK                         _______ _______ _______ _____ _____    ______ ____
ROOT
ATOM      7  C   UNL     1      -4.729 -11.028  16.926  0.00  0.00    -0.027 C 
ATOM      8  C   UNL     1      -5.513 -10.403  15.723  0.00  0.00    +0.028 C 
ATOM      9  C   UNL     1      -7.064 -10.502  15.954  0.00  0.00    +0.012 C 
ATOM     10  C   UNL     1      -5.001 -10.964  14.366  0.00  0.00    +0.122 C 
ATOM     11  C   UNL     1      -3.212 -10.813  16.721  0.00  0.00    +0.007 C 
ATOM     12  C   UNL     1      -5.137 -10.297  18.226  0.00  0.00    +0.009 C 
ATOM     13  C   UNL     1      -3.468 -10.841  14.210  0.00  0.00    +0.029 C 
ATOM     14  C   UNL     1      -7.451  -9.830  17.301  0.00  0.00    +0.076 C 
ATOM     15  C   UNL     1      -2.700 -11.396  15.410  0.00  0.00    +0.007 C 
ATOM     16  C   UNL     1      -6.635 -10.336  18.489  0.00  0.00    +0.023 C 
ATOM     17  C   UNL     1      -5.000 -12.545  17.087  0.00  0.00    +0.011 C 
ATOM     19  C   UNL     1      -7.896  -9.880  14.820  0.00  0.00    +0.010 C 
ENDROOT
BRANCH  14   5
ATOM      4  O   UNL     1      -9.444  -7.767  17.436  0.00  0.00    -0.270 OA
ATOM      5  N   UNL     1      -8.856 -10.004  17.602  0.00  0.00    -0.308 N 
ATOM     22  C   UNL     1      -9.742  -8.940  17.643  0.00  0.00    +0.244 C 
ATOM     36  H   UNL     1      -9.151 -10.929  17.896  0.00  0.00    +0.149 HD
BRANCH  22  23
ATOM     23  C   UNL     1     -11.145  -9.283  17.992  0.00  0.00    +0.037 A 
ATOM     25  C   UNL     1     -11.426  -9.922  19.200  0.00  0.00    +0.013 A 
ATOM     26  C   UNL     1     -12.180  -8.963  17.114  0.00  0.00    +0.013 A 
ATOM     28  C   UNL     1     -12.744 -10.242  19.528  0.00  0.00    +0.001 A 
ATOM     29  C   UNL     1     -13.497  -9.283  17.443  0.00  0.00    +0.001 A 
ATOM     30  C   UNL     1     -13.779  -9.922  18.650  0.00  0.00    +0.000 A 
ENDBRANCH  22  23
ENDBRANCH  14   5
BRANCH  10   2
ATOM      2  O   UNL     1      -5.582 -10.221  13.293  0.00  0.00    -0.391 OA
ATOM     37  H   UNL     1      -5.311 -10.636  12.457  0.00  0.00    +0.210 HD
ENDBRANCH  10   2
BRANCH  13  18
ATOM     18  C   UNL     1      -2.970 -11.517  12.927  0.00  0.00    +0.077 C 
ATOM     20  C   UNL     1      -1.803 -12.447  13.243  0.00  0.00    +0.017 C 
BRANCH  18  21
ATOM      3  O   UNL     1      -1.457  -9.952  11.865  0.00  0.00    -0.276 OA
ATOM      6  N   UNL     1      -3.614 -10.147  11.033  0.00  0.00    -0.311 N 
ATOM     21  C   UNL     1      -2.576 -10.459  11.900  0.00  0.00    +0.216 C 
ATOM     38  H   UNL     1      -4.498 -10.640  11.110  0.00  0.00    +0.149 HD
BRANCH   6  24
ATOM     24  C   UNL     1      -3.482  -9.172   9.976  0.00  0.00    +0.139 C 
BRANCH  24  27
ATOM      1  F   UNL     1      -8.211  -8.682   6.960  0.00  0.00    -0.205 F 
ATOM     27  C   UNL     1      -4.743  -9.041   9.172  0.00  0.00    -0.030 A 
ATOM     31  C   UNL     1      -4.909  -9.792   8.008  0.00  0.00    +0.008 A 
ATOM     32  C   UNL     1      -5.749  -8.168   9.589  0.00  0.00    +0.008 A 
ATOM     33  C   UNL     1      -6.080  -9.670   7.261  0.00  0.00    +0.038 A 
ATOM     34  C   UNL     1      -6.920  -8.047   8.841  0.00  0.00    +0.038 A 
ATOM     35  C   UNL     1      -7.085  -8.798   7.677  0.00  0.00    +0.123 A 
ENDBRANCH  24  27
ENDBRANCH   6  24
ENDBRANCH  18  21
ENDBRANCH  13  18
TORSDOF 7
ENDMDL
MODEL 2
REMARK VINA RESULT:      -7.3      2.901      8.706
REMARK  Name = 45361399
REMARK  10 active torsions:
REMARK  status: ('A' for Active; 'I' for Inactive)
REMARK    1  A    between atoms: O_2  and  C_10
REMARK    2  A    between atoms: N_5  and  C_14
REMARK    3  A    between atoms: N_6  and  C_24
REMARK    4  A    between atoms: C_7  and  C_17
REMARK    5  A    between atoms: C_9  and  C_19
REMARK    6  A    between atoms: C_13  and  C_18
REMARK    7  A    between atoms: C_18  and  C_20
REMARK    8  A    between atoms: C_18  and  C_21
REMARK    9  A    between atoms: C_22  and  C_23
REMARK   10  A    between atoms: C_24  and  C_27
REMARK                            x       y       z     vdW  Elec       q    Type
REMARK                         _______ _______ _______ _____ _____    ______ ____
ROOT
ATOM      7  C   UNL     1      -3.321 -11.450  11.747  0.00  0.00    -0.027 C 
ATOM      8  C   UNL     1      -4.663 -10.882  12.318  0.00  0.00    +0.028 C 
ATOM      9  C   UNL     1      -5.375  -9.962  11.263  0.00  0.00    +0.012 C 
ATOM     10  C   UNL     1      -4.454 -10.250  13.724  0.00  0.00    +0.122 C 
ATOM     11  C   UNL     1      -2.705 -12.439  12.765  0.00  0.00    +0.007 C 
ATOM     12  C   UNL     1      -3.618 -12.236  10.449  0.00  0.00    +0.009 C 
ATOM     13  C   UNL     1      -3.743 -11.208  14.708  0.00  0.00    +0.029 C 
ATOM     14  C   UNL     1      -5.600 -10.739   9.936  0.00  0.00    +0.076 C 
ATOM     15  C   UNL     1      -2.462 -11.811  14.131  0.00  0.00    +0.007 C 
ATOM     16  C   UNL     1      -4.333 -11.401   9.396  0.00  0.00    +0.023 C 
ATOM     17  C   UNL     1      -2.286 -10.337  11.445  0.00  0.00    +0.011 C 
ATOM     19  C   UNL     1      -6.717  -9.391  11.749  0.00  0.00    +0.010 C 
ENDROOT
BRANCH  14   5
ATOM      4  O   UNL     1      -7.685 -11.419   8.081  0.00  0.00    -0.270 OA
ATOM      5  N   UNL     1      -6.149  -9.887   8.902  0.00  0.00    -0.308 N 
ATOM     22  C   UNL     1      -7.158 -10.309   8.053  0.00  0.00    +0.244 C 
ATOM     36  H   UNL     1      -5.684  -8.999   8.746  0.00  0.00    +0.149 HD
BRANCH  22  23
ATOM     23  C   UNL     1      -7.593  -9.325   7.029  0.00  0.00    +0.037 A 
ATOM     25  C   UNL     1      -6.939  -9.265   5.798  0.00  0.00    +0.013 A 
ATOM     26  C   UNL     1      -8.655  -8.462   7.297  0.00  0.00    +0.013 A 
ATOM     28  C   UNL     1      -7.348  -8.342   4.836  0.00  0.00    +0.001 A 
ATOM     29  C   UNL     1      -9.065  -7.540   6.334  0.00  0.00    +0.001 A 
ATOM     30  C   UNL     1      -8.411  -7.479   5.104  0.00  0.00    +0.000 A 
ENDBRANCH  22  23
ENDBRANCH  14   5
BRANCH  10   2
ATOM      2  O   UNL     1      -5.724  -9.941  14.301  0.00  0.00    -0.391 OA
ATOM     37  H   UNL     1      -6.375 -10.573  13.954  0.00  0.00    +0.210 HD
ENDBRANCH  10   2
BRANCH  13  18
ATOM     18  C   UNL     1      -3.429 -10.522  16.043  0.00  0.00    +0.077 C 
ATOM     20  C   UNL     1      -1.942 -10.641  16.357  0.00  0.00    +0.017 C 
BRANCH  18  21
ATOM      3  O   UNL     1      -3.829 -11.908  17.988  0.00  0.00    -0.276 OA
ATOM      6  N   UNL     1      -5.602 -10.703  17.103  0.00  0.00    -0.311 N 
ATOM     21  C   UNL     1      -4.282 -11.129  17.154  0.00  0.00    +0.216 C 
ATOM     38  H   UNL     1      -5.886 -10.029  16.399  0.00  0.00    +0.149 HD
BRANCH   6  24
ATOM     24  C   UNL     1      -6.601 -11.142  18.049  0.00  0.00    +0.139 C 
BRANCH  24  27
ATOM      1  F   UNL     1     -11.352  -8.149  17.635  0.00  0.00    -0.205 F 
ATOM     27  C   UNL     1      -7.868 -10.344  17.938  0.00  0.00    -0.030 A 
ATOM     31  C   UNL     1      -7.904  -9.200  17.140  0.00  0.00    +0.008 A 
ATOM     32  C   UNL     1      -9.009 -10.746  18.634  0.00  0.00    +0.008 A 
ATOM     33  C   UNL     1      -9.081  -8.459  17.039  0.00  0.00    +0.038 A 
ATOM     34  C   UNL     1     -10.185 -10.004  18.531  0.00  0.00    +0.038 A 
ATOM     35  C   UNL     1     -10.221  -8.861  17.734  0.00  0.00    +0.123 A 
ENDBRANCH  24  27
ENDBRANCH   6  24
ENDBRANCH  18  21
ENDBRANCH  13  18
TORSDOF 7
ENDMDL
MODEL 3
REMARK VINA RESULT:      -7.2      1.581      2.040
REMARK  Name = 45361399
REMARK  10 active torsions:
REMARK  status: ('A' for Active; 'I' for Inactive)
REMARK    1  A    between atoms: O_2  and  C_10
REMARK    2  A    between atoms: N_5  and  C_14
REMARK    3  A    between atoms: N_6  and  C_24
REMARK    4  A    between atoms: C_7  and  C_17
REMARK    5  A    between atoms: C_9  and  C_19
REMARK    6  A    between atoms: C_13  and  C_18
REMARK    7  A    between atoms: C_18  and  C_20
REMARK    8  A    between atoms: C_18  and  C_21
REMARK    9  A    between atoms: C_22  and  C_23
REMARK   10  A    between atoms: C_24  and  C_27
REMARK                            x       y       z     vdW  Elec       q    Type
REMARK                         _______ _______ _______ _____ _____    ______ ____
ROOT
ATOM      7  C   UNL     1      -4.791 -11.273  17.188  0.00  0.00    -0.027 C 
ATOM      8  C   UNL     1      -5.765 -10.472  16.261  0.00  0.00    +0.028 C 
ATOM      9  C   UNL     1      -7.230 -10.506  16.827  0.00  0.00    +0.012 C 
ATOM     10  C   UNL     1      -5.613 -10.905  14.775  0.00  0.00    +0.122 C 
ATOM     11  C   UNL     1      -3.343 -11.125  16.665  0.00  0.00    +0.007 C 
ATOM     12  C   UNL     1      -4.841 -10.671  18.612  0.00  0.00    +0.009 C 
ATOM     13  C   UNL     1      -4.146 -10.854  14.288  0.00  0.00    +0.029 C 
ATOM     14  C   UNL     1      -7.256  -9.969  18.286  0.00  0.00    +0.076 C 
ATOM     15  C   UNL     1      -3.182 -11.586  15.223  0.00  0.00    +0.007 C 
ATOM     16  C   UNL     1      -6.244 -10.653  19.204  0.00  0.00    +0.023 C 
ATOM     17  C   UNL     1      -5.143 -12.781  17.259  0.00  0.00    +0.011 C 
ATOM     19  C   UNL     1      -8.237  -9.712  15.978  0.00  0.00    +0.010 C 
ENDROOT
BRANCH  14   5
ATOM      4  O   UNL     1      -8.426 -12.355  19.375  0.00  0.00    -0.270 OA
ATOM      5  N   UNL     1      -8.570 -10.094  18.880  0.00  0.00    -0.308 N 
ATOM     22  C   UNL     1      -9.046 -11.295  19.379  0.00  0.00    +0.244 C 
ATOM     36  H   UNL     1      -9.182  -9.288  18.813  0.00  0.00    +0.149 HD
BRANCH  22  23
ATOM     23  C   UNL     1     -10.425 -11.263  19.931  0.00  0.00    +0.037 A 
ATOM     25  C   UNL     1     -11.123 -10.057  19.992  0.00  0.00    +0.013 A 
ATOM     26  C   UNL     1     -11.022 -12.438  20.387  0.00  0.00    +0.013 A 
ATOM     28  C   UNL     1     -12.419 -10.027  20.509  0.00  0.00    +0.001 A 
ATOM     29  C   UNL     1     -12.317 -12.408  20.903  0.00  0.00    +0.001 A 
ATOM     30  C   UNL     1     -13.015 -11.203  20.964  0.00  0.00    +0.000 A 
ENDBRANCH  22  23
ENDBRANCH  14   5
BRANCH  10   2
ATOM      2  O   UNL     1      -6.351 -10.012  13.940  0.00  0.00    -0.391 OA
ATOM     37  H   UNL     1      -5.800  -9.229  13.774  0.00  0.00    +0.210 HD
ENDBRANCH  10   2
BRANCH  13  18
ATOM     18  C   UNL     1      -3.999 -11.409  12.866  0.00  0.00    +0.077 C 
ATOM     20  C   UNL     1      -2.929 -12.494  12.834  0.00  0.00    +0.017 C 
BRANCH  18  21
ATOM      3  O   UNL     1      -2.523 -10.000  11.561  0.00  0.00    -0.276 OA
ATOM      6  N   UNL     1      -4.808  -9.612  11.453  0.00  0.00    -0.311 N 
ATOM     21  C   UNL     1      -3.672 -10.276  11.896  0.00  0.00    +0.216 C 
ATOM     38  H   UNL     1      -5.725  -9.928  11.753  0.00  0.00    +0.149 HD
BRANCH   6  24
ATOM     24  C   UNL     1      -4.753  -8.502  10.531  0.00  0.00    +0.139 C 
BRANCH  24  27
ATOM      1  F   UNL     1      -7.549  -9.584   5.765  0.00  0.00    -0.205 F 
ATOM     27  C   UNL     1      -5.498  -8.791   9.260  0.00  0.00    -0.030 A 
ATOM     31  C   UNL     1      -6.748  -8.211   9.038  0.00  0.00    +0.008 A 
ATOM     32  C   UNL     1      -4.942  -9.639   8.302  0.00  0.00    +0.008 A 
ATOM     33  C   UNL     1      -7.441  -8.479   7.858  0.00  0.00    +0.038 A 
ATOM     34  C   UNL     1      -5.636  -9.907   7.122  0.00  0.00    +0.038 A 
ATOM     35  C   UNL     1      -6.885  -9.328   6.900  0.00  0.00    +0.123 A 
ENDBRANCH  24  27
ENDBRANCH   6  24
ENDBRANCH  18  21
ENDBRANCH  13  18
TORSDOF 7
ENDMDL
MODEL 4
REMARK VINA RESULT:      -7.1     25.014     27.852
REMARK  Name = 45361399
REMARK  10 active torsions:
REMARK  status: ('A' for Active; 'I' for Inactive)
REMARK    1  A    between atoms: O_2  and  C_10
REMARK    2  A    between atoms: N_5  and  C_14
REMARK    3  A    between atoms: N_6  and  C_24
REMARK    4  A    between atoms: C_7  and  C_17
REMARK    5  A    between atoms: C_9  and  C_19
REMARK    6  A    between atoms: C_13  and  C_18
REMARK    7  A    between atoms: C_18  and  C_20
REMARK    8  A    between atoms: C_18  and  C_21
REMARK    9  A    between atoms: C_22  and  C_23
REMARK   10  A    between atoms: C_24  and  C_27
REMARK                            x       y       z     vdW  Elec       q    Type
REMARK                         _______ _______ _______ _____ _____    ______ ____
ROOT
ATOM      7  C   UNL     1      16.741  -3.226  31.284  0.00  0.00    -0.027 C 
ATOM      8  C   UNL     1      16.810  -3.975  29.912  0.00  0.00    +0.028 C 
ATOM      9  C   UNL     1      16.218  -5.425  30.034  0.00  0.00    +0.012 C 
ATOM     10  C   UNL     1      18.235  -3.884  29.293  0.00  0.00    +0.122 C 
ATOM     11  C   UNL     1      17.225  -1.768  31.102  0.00  0.00    +0.007 C 
ATOM     12  C   UNL     1      15.269  -3.177  31.757  0.00  0.00    +0.009 C 
ATOM     13  C   UNL     1      18.757  -2.431  29.209  0.00  0.00    +0.029 C 
ATOM     14  C   UNL     1      14.765  -5.368  30.583  0.00  0.00    +0.076 C 
ATOM     15  C   UNL     1      18.635  -1.677  30.533  0.00  0.00    +0.007 C 
ATOM     16  C   UNL     1      14.632  -4.555  31.870  0.00  0.00    +0.023 C 
ATOM     17  C   UNL     1      17.606  -3.905  32.376  0.00  0.00    +0.011 C 
ATOM     19  C   UNL     1      16.230  -6.209  28.712  0.00  0.00    +0.010 C 
ENDROOT
BRANCH  14   5
ATOM      4  O   UNL     1      12.023  -6.179  30.319  0.00  0.00    -0.270 OA
ATOM      5  N   UNL     1      14.229  -6.691  30.819  0.00  0.00    -0.308 N 
ATOM     22  C   UNL     1      12.884  -6.984  30.663  0.00  0.00    +0.244 C 
ATOM     36  H   UNL     1      14.861  -7.378  31.216  0.00  0.00    +0.149 HD
BRANCH  22  23
ATOM     23  C   UNL     1      12.490  -8.384  30.970  0.00  0.00    +0.037 A 
ATOM     25  C   UNL     1      11.409  -8.633  31.816  0.00  0.00    +0.013 A 
ATOM     26  C   UNL     1      13.198  -9.447  30.410  0.00  0.00    +0.013 A 
ATOM     28  C   UNL     1      11.037  -9.946  32.103  0.00  0.00    +0.001 A 
ATOM     29  C   UNL     1      12.826 -10.759  30.696  0.00  0.00    +0.001 A 
ATOM     30  C   UNL     1      11.746 -11.010  31.542  0.00  0.00    +0.000 A 
ENDBRANCH  22  23
ENDBRANCH  14   5
BRANCH  10   2
ATOM      2  O   UNL     1      18.206  -4.385  27.955  0.00  0.00    -0.391 OA
ATOM     37  H   UNL     1      19.046  -4.846  27.788  0.00  0.00    +0.210 HD
ENDBRANCH  10   2
BRANCH  13  18
ATOM     18  C   UNL     1      20.209  -2.375  28.720  0.00  0.00    +0.077 C 
ATOM     20  C   UNL     1      21.111  -1.824  29.818  0.00  0.00    +0.017 C 
BRANCH  18  21
ATOM      3  O   UNL     1      21.178  -0.693  27.272  0.00  0.00    -0.276 OA
ATOM      6  N   UNL     1      19.287  -1.824  26.547  0.00  0.00    -0.311 N 
ATOM     21  C   UNL     1      20.299  -1.532  27.451  0.00  0.00    +0.216 C 
ATOM     38  H   UNL     1      18.619  -2.558  26.758  0.00  0.00    +0.149 HD
BRANCH   6  24
ATOM     24  C   UNL     1      19.162  -1.154  25.273  0.00  0.00    +0.139 C 
BRANCH  24  27
ATOM      1  F   UNL     1      14.707  -2.989  22.358  0.00  0.00    -0.205 F 
ATOM     27  C   UNL     1      17.974  -1.644  24.496  0.00  0.00    -0.030 A 
ATOM     31  C   UNL     1      17.583  -0.983  23.330  0.00  0.00    +0.008 A 
ATOM     32  C   UNL     1      17.261  -2.758  24.939  0.00  0.00    +0.008 A 
ATOM     33  C   UNL     1      16.479  -1.437  22.609  0.00  0.00    +0.038 A 
ATOM     34  C   UNL     1      16.157  -3.212  24.216  0.00  0.00    +0.038 A 
ATOM     35  C   UNL     1      15.767  -2.551  23.052  0.00  0.00    +0.123 A 
ENDBRANCH  24  27
ENDBRANCH   6  24
ENDBRANCH  18  21
ENDBRANCH  13  18
TORSDOF 7
ENDMDL
MODEL 5
REMARK VINA RESULT:      -7.1      4.271      9.167
REMARK  Name = 45361399
REMARK  10 active torsions:
REMARK  status: ('A' for Active; 'I' for Inactive)
REMARK    1  A    between atoms: O_2  and  C_10
REMARK    2  A    between atoms: N_5  and  C_14
REMARK    3  A    between atoms: N_6  and  C_24
REMARK    4  A    between atoms: C_7  and  C_17
REMARK    5  A    between atoms: C_9  and  C_19
REMARK    6  A    between atoms: C_13  and  C_18
REMARK    7  A    between atoms: C_18  and  C_20
REMARK    8  A    between atoms: C_18  and  C_21
REMARK    9  A    between atoms: C_22  and  C_23
REMARK   10  A    between atoms: C_24  and  C_27
REMARK                            x       y       z     vdW  Elec       q    Type
REMARK                         _______ _______ _______ _____ _____    ______ ____
ROOT
ATOM      7  C   UNL     1      -6.444 -10.321  11.802  0.00  0.00    -0.027 C 
ATOM      8  C   UNL     1      -5.279  -9.596  11.047  0.00  0.00    +0.028 C 
ATOM      9  C   UNL     1      -5.589  -9.490   9.510  0.00  0.00    +0.012 C 
ATOM     10  C   UNL     1      -3.901 -10.217  11.409  0.00  0.00    +0.122 C 
ATOM     11  C   UNL     1      -6.160 -10.307  13.322  0.00  0.00    +0.007 C 
ATOM     12  C   UNL     1      -7.759  -9.545  11.561  0.00  0.00    +0.009 C 
ATOM     13  C   UNL     1      -3.666 -10.297  12.936  0.00  0.00    +0.029 C 
ATOM     14  C   UNL     1      -6.951  -8.776   9.284  0.00  0.00    +0.076 C 
ATOM     15  C   UNL     1      -4.828 -10.951  13.684  0.00  0.00    +0.007 C 
ATOM     16  C   UNL     1      -8.099  -9.387  10.086  0.00  0.00    +0.023 C 
ATOM     17  C   UNL     1      -6.626 -11.790  11.342  0.00  0.00    +0.011 C 
ATOM     19  C   UNL     1      -4.497  -8.762   8.710  0.00  0.00    +0.010 C 
ENDROOT
BRANCH  14   5
ATOM      4  O   UNL     1      -7.954  -6.534   7.796  0.00  0.00    -0.270 OA
ATOM      5  N   UNL     1      -7.324  -8.764   7.885  0.00  0.00    -0.308 N 
ATOM     22  C   UNL     1      -7.800  -7.626   7.255  0.00  0.00    +0.244 C 
ATOM     36  H   UNL     1      -7.332  -9.658   7.405  0.00  0.00    +0.149 HD
BRANCH  22  23
ATOM     23  C   UNL     1      -8.164  -7.786   5.824  0.00  0.00    +0.037 A 
ATOM     25  C   UNL     1      -9.385  -7.299   5.357  0.00  0.00    +0.013 A 
ATOM     26  C   UNL     1      -7.285  -8.421   4.947  0.00  0.00    +0.013 A 
ATOM     28  C   UNL     1      -9.725  -7.447   4.012  0.00  0.00    +0.001 A 
ATOM     29  C   UNL     1      -7.625  -8.569   3.603  0.00  0.00    +0.001 A 
ATOM     30  C   UNL     1      -8.845  -8.082   3.135  0.00  0.00    +0.000 A 
ENDBRANCH  22  23
ENDBRANCH  14   5
BRANCH  10   2
ATOM      2  O   UNL     1      -2.855  -9.402  10.878  0.00  0.00    -0.391 OA
ATOM     37  H   UNL     1      -2.179  -9.290  11.568  0.00  0.00    +0.210 HD
ENDBRANCH  10   2
BRANCH  13  18
ATOM     18  C   UNL     1      -2.362 -11.030  13.274  0.00  0.00    +0.077 C 
ATOM     20  C   UNL     1      -2.513 -12.522  12.998  0.00  0.00    +0.017 C 
BRANCH  18  21
ATOM      3  O   UNL     1      -1.082  -9.997  15.051  0.00  0.00    -0.276 OA
ATOM      6  N   UNL     1      -2.756 -11.498  15.620  0.00  0.00    -0.311 N 
ATOM     21  C   UNL     1      -1.981 -10.770  14.729  0.00  0.00    +0.216 C 
ATOM     38  H   UNL     1      -3.503 -12.089  15.270  0.00  0.00    +0.149 HD
BRANCH   6  24
ATOM     24  C   UNL     1      -2.580 -11.421  17.051  0.00  0.00    +0.139 C 
BRANCH  24  27
ATOM      1  F   UNL     1      -7.473 -10.670  19.734  0.00  0.00    -0.205 F 
ATOM     27  C   UNL     1      -3.885 -11.221  17.767  0.00  0.00    -0.030 A 
ATOM     31  C   UNL     1      -4.880 -10.428  17.194  0.00  0.00    +0.008 A 
ATOM     32  C   UNL     1      -4.102 -11.827  19.004  0.00  0.00    +0.008 A 
ATOM     33  C   UNL     1      -6.091 -10.241  17.859  0.00  0.00    +0.038 A 
ATOM     34  C   UNL     1      -5.314 -11.641  19.669  0.00  0.00    +0.038 A 
ATOM     35  C   UNL     1      -6.309 -10.848  19.096  0.00  0.00    +0.123 A 
ENDBRANCH  24  27
ENDBRANCH   6  24
ENDBRANCH  18  21
ENDBRANCH  13  18
TORSDOF 7
ENDMDL
MODEL 6
REMARK VINA RESULT:      -7.1     29.697     32.822
REMARK  Name = 45361399
REMARK  10 active torsions:
REMARK  status: ('A' for Active; 'I' for Inactive)
REMARK    1  A    between atoms: O_2  and  C_10
REMARK    2  A    between atoms: N_5  and  C_14
REMARK    3  A    between atoms: N_6  and  C_24
REMARK    4  A    between atoms: C_7  and  C_17
REMARK    5  A    between atoms: C_9  and  C_19
REMARK    6  A    between atoms: C_13  and  C_18
REMARK    7  A    between atoms: C_18  and  C_20
REMARK    8  A    between atoms: C_18  and  C_21
REMARK    9  A    between atoms: C_22  and  C_23
REMARK   10  A    between atoms: C_24  and  C_27
REMARK                            x       y       z     vdW  Elec       q    Type
REMARK                         _______ _______ _______ _____ _____    ______ ____
ROOT
ATOM      7  C   UNL     1      19.431   9.815  22.097  0.00  0.00    -0.027 C 
ATOM      8  C   UNL     1      18.576   8.568  21.691  0.00  0.00    +0.028 C 
ATOM      9  C   UNL     1      19.479   7.455  21.050  0.00  0.00    +0.012 C 
ATOM     10  C   UNL     1      17.333   8.987  20.854  0.00  0.00    +0.122 C 
ATOM     11  C   UNL     1      18.533  10.842  22.826  0.00  0.00    +0.007 C 
ATOM     12  C   UNL     1      20.534   9.369  23.085  0.00  0.00    +0.009 C 
ATOM     13  C   UNL     1      16.495  10.090  21.541  0.00  0.00    +0.029 C 
ATOM     14  C   UNL     1      20.629   7.069  22.022  0.00  0.00    +0.076 C 
ATOM     15  C   UNL     1      17.337  11.283  21.992  0.00  0.00    +0.007 C 
ATOM     16  C   UNL     1      21.427   8.270  22.527  0.00  0.00    +0.023 C 
ATOM     17  C   UNL     1      20.089  10.507  20.876  0.00  0.00    +0.011 C 
ATOM     19  C   UNL     1      18.705   6.187  20.652  0.00  0.00    +0.010 C 
ENDROOT
BRANCH  14   5
ATOM      4  O   UNL     1      21.751   4.731  23.256  0.00  0.00    -0.270 OA
ATOM      5  N   UNL     1      21.549   6.129  21.417  0.00  0.00    -0.308 N 
ATOM     22  C   UNL     1      22.036   5.026  22.099  0.00  0.00    +0.244 C 
ATOM     36  H   UNL     1      21.917   6.371  20.503  0.00  0.00    +0.149 HD
BRANCH  22  23
ATOM     23  C   UNL     1      22.992   4.173  21.346  0.00  0.00    +0.037 A 
ATOM     25  C   UNL     1      23.862   4.751  20.422  0.00  0.00    +0.013 A 
ATOM     26  C   UNL     1      23.020   2.796  21.566  0.00  0.00    +0.013 A 
ATOM     28  C   UNL     1      24.761   3.950  19.717  0.00  0.00    +0.001 A 
ATOM     29  C   UNL     1      23.919   1.996  20.862  0.00  0.00    +0.001 A 
ATOM     30  C   UNL     1      24.789   2.573  19.937  0.00  0.00    +0.000 A 
ENDBRANCH  22  23
ENDBRANCH  14   5
BRANCH  10   2
ATOM      2  O   UNL     1      16.469   7.861  20.688  0.00  0.00    -0.391 OA
ATOM     37  H   UNL     1      16.131   7.872  19.776  0.00  0.00    +0.210 HD
ENDBRANCH  10   2
BRANCH  13  18
ATOM     18  C   UNL     1      15.353  10.579  20.643  0.00  0.00    +0.077 C 
ATOM     20  C   UNL     1      15.396  12.099  20.521  0.00  0.00    +0.017 C 
BRANCH  18  21
ATOM      3  O   UNL     1      13.891   9.059  21.833  0.00  0.00    -0.276 OA
ATOM      6  N   UNL     1      12.976  10.976  20.901  0.00  0.00    -0.311 N 
ATOM     21  C   UNL     1      14.013  10.104  21.198  0.00  0.00    +0.216 C 
ATOM     38  H   UNL     1      13.170  11.837  20.400  0.00  0.00    +0.149 HD
BRANCH   6  24
ATOM     24  C   UNL     1      11.613  10.739  21.319  0.00  0.00    +0.139 C 
BRANCH  24  27
ATOM      1  F   UNL     1      10.199  13.883  25.771  0.00  0.00    -0.205 F 
ATOM     27  C   UNL     1      11.236  11.577  22.506  0.00  0.00    -0.030 A 
ATOM     31  C   UNL     1      10.838  12.903  22.326  0.00  0.00    +0.008 A 
ATOM     32  C   UNL     1      11.284  11.032  23.789  0.00  0.00    +0.008 A 
ATOM     33  C   UNL     1      10.489  13.681  23.428  0.00  0.00    +0.038 A 
ATOM     34  C   UNL     1      10.934  11.811  24.891  0.00  0.00    +0.038 A 
ATOM     35  C   UNL     1      10.537  13.135  24.711  0.00  0.00    +0.123 A 
ENDBRANCH  24  27
ENDBRANCH   6  24
ENDBRANCH  18  21
ENDBRANCH  13  18
TORSDOF 7
ENDMDL
MODEL 7
REMARK VINA RESULT:      -6.9      1.873      2.385
REMARK  Name = 45361399
REMARK  10 active torsions:
REMARK  status: ('A' for Active; 'I' for Inactive)
REMARK    1  A    between atoms: O_2  and  C_10
REMARK    2  A    between atoms: N_5  and  C_14
REMARK    3  A    between atoms: N_6  and  C_24
REMARK    4  A    between atoms: C_7  and  C_17
REMARK    5  A    between atoms: C_9  and  C_19
REMARK    6  A    between atoms: C_13  and  C_18
REMARK    7  A    between atoms: C_18  and  C_20
REMARK    8  A    between atoms: C_18  and  C_21
REMARK    9  A    between atoms: C_22  and  C_23
REMARK   10  A    between atoms: C_24  and  C_27
REMARK                            x       y       z     vdW  Elec       q    Type
REMARK                         _______ _______ _______ _____ _____    ______ ____
ROOT
ATOM      7  C   UNL     1      -5.284 -11.471  17.719  0.00  0.00    -0.027 C 
ATOM      8  C   UNL     1      -6.408 -11.667  16.647  0.00  0.00    +0.028 C 
ATOM      9  C   UNL     1      -7.794 -11.945  17.332  0.00  0.00    +0.012 C 
ATOM     10  C   UNL     1      -5.979 -12.699  15.564  0.00  0.00    +0.122 C 
ATOM     11  C   UNL     1      -3.961 -11.089  17.016  0.00  0.00    +0.007 C 
ATOM     12  C   UNL     1      -5.677 -10.302  18.651  0.00  0.00    +0.009 C 
ATOM     13  C   UNL     1      -4.604 -12.368  14.937  0.00  0.00    +0.029 C 
ATOM     14  C   UNL     1      -8.142 -10.800  18.324  0.00  0.00    +0.076 C 
ATOM     15  C   UNL     1      -3.518 -12.117  15.983  0.00  0.00    +0.007 C 
ATOM     16  C   UNL     1      -7.027 -10.502  19.325  0.00  0.00    +0.023 C 
ATOM     17  C   UNL     1      -5.046 -12.744  18.570  0.00  0.00    +0.011 C 
ATOM     19  C   UNL     1      -8.951 -12.120  16.335  0.00  0.00    +0.010 C 
ENDROOT
BRANCH  14   5
ATOM      4  O   UNL     1     -10.519  -9.189  18.385  0.00  0.00    -0.270 OA
ATOM      5  N   UNL     1      -9.357 -11.080  19.060  0.00  0.00    -0.308 N 
ATOM     22  C   UNL     1     -10.455 -10.236  19.025  0.00  0.00    +0.244 C 
ATOM     36  H   UNL     1      -9.334 -11.866  19.700  0.00  0.00    +0.149 HD
BRANCH  22  23
ATOM     23  C   UNL     1     -11.614 -10.651  19.856  0.00  0.00    +0.037 A 
ATOM     25  C   UNL     1     -11.650 -11.931  20.411  0.00  0.00    +0.013 A 
ATOM     26  C   UNL     1     -12.664  -9.762  20.083  0.00  0.00    +0.013 A 
ATOM     28  C   UNL     1     -12.738 -12.320  21.193  0.00  0.00    +0.001 A 
ATOM     29  C   UNL     1     -13.750 -10.151  20.865  0.00  0.00    +0.001 A 
ATOM     30  C   UNL     1     -13.788 -11.430  21.420  0.00  0.00    +0.000 A 
ENDBRANCH  22  23
ENDBRANCH  14   5
BRANCH  10   2
ATOM      2  O   UNL     1      -6.927 -12.692  14.496  0.00  0.00    -0.391 OA
ATOM     37  H   UNL     1      -7.399 -13.541  14.506  0.00  0.00    +0.210 HD
ENDBRANCH  10   2
BRANCH  13  18
ATOM     18  C   UNL     1      -4.141 -13.465  13.971  0.00  0.00    +0.077 C 
ATOM     20  C   UNL     1      -3.532 -14.626  14.749  0.00  0.00    +0.017 C 
BRANCH  18  21
ATOM      3  O   UNL     1      -2.194 -13.528  12.532  0.00  0.00    -0.276 OA
ATOM      6  N   UNL     1      -3.449 -11.579  12.614  0.00  0.00    -0.311 N 
ATOM     21  C   UNL     1      -3.148 -12.887  12.966  0.00  0.00    +0.216 C 
ATOM     38  H   UNL     1      -4.278 -11.134  12.994  0.00  0.00    +0.149 HD
BRANCH   6  24
ATOM     24  C   UNL     1      -2.652 -10.819  11.679  0.00  0.00    +0.139 C 
BRANCH  24  27
ATOM      1  F   UNL     1      -5.564  -9.453   7.058  0.00  0.00    -0.205 F 
ATOM     27  C   UNL     1      -3.429 -10.455  10.446  0.00  0.00    -0.030 A 
ATOM     31  C   UNL     1      -3.995 -11.457   9.658  0.00  0.00    +0.008 A 
ATOM     32  C   UNL     1      -3.583  -9.115  10.090  0.00  0.00    +0.008 A 
ATOM     33  C   UNL     1      -4.716 -11.118   8.513  0.00  0.00    +0.038 A 
ATOM     34  C   UNL     1      -4.304  -8.777   8.945  0.00  0.00    +0.038 A 
ATOM     35  C   UNL     1      -4.870  -9.778   8.157  0.00  0.00    +0.123 A 
ENDBRANCH  24  27
ENDBRANCH   6  24
ENDBRANCH  18  21
ENDBRANCH  13  18
TORSDOF 7
ENDMDL
MODEL 8
REMARK VINA RESULT:      -6.9      5.323     11.763
REMARK  Name = 45361399
REMARK  10 active torsions:
REMARK  status: ('A' for Active; 'I' for Inactive)
REMARK    1  A    between atoms: O_2  and  C_10
REMARK    2  A    between atoms: N_5  and  C_14
REMARK    3  A    between atoms: N_6  and  C_24
REMARK    4  A    between atoms: C_7  and  C_17
REMARK    5  A    between atoms: C_9  and  C_19
REMARK    6  A    between atoms: C_13  and  C_18
REMARK    7  A    between atoms: C_18  and  C_20
REMARK    8  A    between atoms: C_18  and  C_21
REMARK    9  A    between atoms: C_22  and  C_23
REMARK   10  A    between atoms: C_24  and  C_27
REMARK                            x       y       z     vdW  Elec       q    Type
REMARK                         _______ _______ _______ _____ _____    ______ ____
ROOT
ATOM      7  C   UNL     1     -12.220  -7.719  15.723  0.00  0.00    -0.027 C 
ATOM      8  C   UNL     1     -12.329  -8.439  17.108  0.00  0.00    +0.028 C 
ATOM      9  C   UNL     1     -10.969  -9.125  17.492  0.00  0.00    +0.012 C 
ATOM     10  C   UNL     1     -13.582  -9.360  17.166  0.00  0.00    +0.122 C 
ATOM     11  C   UNL     1     -13.536  -6.962  15.429  0.00  0.00    +0.007 C 
ATOM     12  C   UNL     1     -11.081  -6.675  15.787  0.00  0.00    +0.009 C 
ATOM     13  C   UNL     1     -14.882  -8.623  16.770  0.00  0.00    +0.029 C 
ATOM     14  C   UNL     1      -9.818  -8.080  17.479  0.00  0.00    +0.076 C 
ATOM     15  C   UNL     1     -14.759  -7.868  15.446  0.00  0.00    +0.007 C 
ATOM     16  C   UNL     1      -9.739  -7.278  16.181  0.00  0.00    +0.023 C 
ATOM     17  C   UNL     1     -11.943  -8.705  14.560  0.00  0.00    +0.011 C 
ATOM     19  C   UNL     1     -10.998  -9.830  18.858  0.00  0.00    +0.010 C 
ENDROOT
BRANCH  14   5
ATOM      4  O   UNL     1      -8.249  -9.552  15.576  0.00  0.00    -0.270 OA
ATOM      5  N   UNL     1      -8.530  -8.699  17.714  0.00  0.00    -0.308 N 
ATOM     22  C   UNL     1      -7.850  -9.391  16.726  0.00  0.00    +0.244 C 
ATOM     36  H   UNL     1      -8.193  -8.706  18.671  0.00  0.00    +0.149 HD
BRANCH  22  23
ATOM     23  C   UNL     1      -6.553  -9.990  17.135  0.00  0.00    +0.037 A 
ATOM     25  C   UNL     1      -6.437 -10.621  18.374  0.00  0.00    +0.013 A 
ATOM     26  C   UNL     1      -5.454  -9.924  16.280  0.00  0.00    +0.013 A 
ATOM     28  C   UNL     1      -5.220 -11.185  18.757  0.00  0.00    +0.001 A 
ATOM     29  C   UNL     1      -4.237 -10.488  16.663  0.00  0.00    +0.001 A 
ATOM     30  C   UNL     1      -4.120 -11.118  17.901  0.00  0.00    +0.000 A 
ENDBRANCH  22  23
ENDBRANCH  14   5
BRANCH  10   2
ATOM      2  O   UNL     1     -13.768  -9.828  18.503  0.00  0.00    -0.391 OA
ATOM     37  H   UNL     1     -13.588 -10.783  18.516  0.00  0.00    +0.210 HD
ENDBRANCH  10   2
BRANCH  13  18
ATOM     18  C   UNL     1     -16.081  -9.577  16.707  0.00  0.00    +0.077 C 
ATOM     20  C   UNL     1     -16.627  -9.638  15.284  0.00  0.00    +0.017 C 
BRANCH  18  21
ATOM      3  O   UNL     1     -18.337  -9.016  17.385  0.00  0.00    -0.276 OA
ATOM      6  N   UNL     1     -16.639  -8.878  18.959  0.00  0.00    -0.311 N 
ATOM     21  C   UNL     1     -17.154  -9.132  17.696  0.00  0.00    +0.216 C 
ATOM     38  H   UNL     1     -15.653  -9.032  19.141  0.00  0.00    +0.149 HD
BRANCH   6  24
ATOM     24  C   UNL     1     -17.462  -8.441  20.064  0.00  0.00    +0.139 C 
BRANCH  24  27
ATOM      1  F   UNL     1     -15.901  -3.383  21.983  0.00  0.00    -0.205 F 
ATOM     27  C   UNL     1     -17.045  -7.092  20.575  0.00  0.00    -0.030 A 
ATOM     31  C   UNL     1     -16.786  -6.912  21.934  0.00  0.00    +0.008 A 
ATOM     32  C   UNL     1     -16.919  -6.020  19.692  0.00  0.00    +0.008 A 
ATOM     33  C   UNL     1     -16.400  -5.659  22.410  0.00  0.00    +0.038 A 
ATOM     34  C   UNL     1     -16.533  -4.767  20.168  0.00  0.00    +0.038 A 
ATOM     35  C   UNL     1     -16.274  -4.587  21.527  0.00  0.00    +0.123 A 
ENDBRANCH  24  27
ENDBRANCH   6  24
ENDBRANCH  18  21
ENDBRANCH  13  18
TORSDOF 7
ENDMDL
MODEL 9
REMARK VINA RESULT:      -6.8     26.635     30.879
REMARK  Name = 45361399
REMARK  10 active torsions:
REMARK  status: ('A' for Active; 'I' for Inactive)
REMARK    1  A    between atoms: O_2  and  C_10
REMARK    2  A    between atoms: N_5  and  C_14
REMARK    3  A    between atoms: N_6  and  C_24
REMARK    4  A    between atoms: C_7  and  C_17
REMARK    5  A    between atoms: C_9  and  C_19
REMARK    6  A    between atoms: C_13  and  C_18
REMARK    7  A    between atoms: C_18  and  C_20
REMARK    8  A    between atoms: C_18  and  C_21
REMARK    9  A    between atoms: C_22  and  C_23
REMARK   10  A    between atoms: C_24  and  C_27
REMARK                            x       y       z     vdW  Elec       q    Type
REMARK                         _______ _______ _______ _____ _____    ______ ____
ROOT
ATOM      7  C   UNL     1      14.709   4.983  -0.864  0.00  0.00    -0.027 C 
ATOM      8  C   UNL     1      15.409   5.620   0.384  0.00  0.00    +0.028 C 
ATOM      9  C   UNL     1      14.346   6.171   1.401  0.00  0.00    +0.012 C 
ATOM     10  C   UNL     1      16.511   6.630  -0.044  0.00  0.00    +0.122 C 
ATOM     11  C   UNL     1      15.776   4.352  -1.788  0.00  0.00    +0.007 C 
ATOM     12  C   UNL     1      13.768   3.852  -0.390  0.00  0.00    +0.009 C 
ATOM     13  C   UNL     1      17.517   6.024  -1.050  0.00  0.00    +0.029 C 
ATOM     14  C   UNL     1      13.359   5.042   1.812  0.00  0.00    +0.076 C 
ATOM     15  C   UNL     1      16.835   5.349  -2.240  0.00  0.00    +0.007 C 
ATOM     16  C   UNL     1      12.730   4.321   0.621  0.00  0.00    +0.023 C 
ATOM     17  C   UNL     1      13.893   6.018  -1.679  0.00  0.00    +0.011 C 
ATOM     19  C   UNL     1      14.966   6.786   2.667  0.00  0.00    +0.010 C 
ENDROOT
BRANCH  14   5
ATOM      4  O   UNL     1      11.194   3.519   2.926  0.00  0.00    -0.270 OA
ATOM      5  N   UNL     1      12.296   5.542   2.658  0.00  0.00    -0.308 N 
ATOM     22  C   UNL     1      11.292   4.723   3.148  0.00  0.00    +0.244 C 
ATOM     36  H   UNL     1      12.248   6.547   2.789  0.00  0.00    +0.149 HD
BRANCH  22  23
ATOM     23  C   UNL     1      10.261   5.394   3.981  0.00  0.00    +0.037 A 
ATOM     25  C   UNL     1       9.943   4.885   5.239  0.00  0.00    +0.013 A 
ATOM     26  C   UNL     1       9.614   6.534   3.505  0.00  0.00    +0.013 A 
ATOM     28  C   UNL     1       8.976   5.516   6.022  0.00  0.00    +0.001 A 
ATOM     29  C   UNL     1       8.648   7.165   4.288  0.00  0.00    +0.001 A 
ATOM     30  C   UNL     1       8.328   6.656   5.546  0.00  0.00    +0.000 A 
ENDBRANCH  22  23
ENDBRANCH  14   5
BRANCH  10   2
ATOM      2  O   UNL     1      17.268   7.024   1.102  0.00  0.00    -0.391 OA
ATOM     37  H   UNL     1      16.783   7.736   1.554  0.00  0.00    +0.210 HD
ENDBRANCH  10   2
BRANCH  13  18
ATOM     18  C   UNL     1      18.515   7.071  -1.558  0.00  0.00    +0.077 C 
ATOM     20  C   UNL     1      18.514   7.100  -3.083  0.00  0.00    +0.017 C 
BRANCH  18  21
ATOM      3  O   UNL     1      20.731   6.095  -1.619  0.00  0.00    -0.276 OA
ATOM      6  N   UNL     1      20.122   7.348   0.236  0.00  0.00    -0.311 N 
ATOM     21  C   UNL     1      19.908   6.773  -1.009  0.00  0.00    +0.216 C 
ATOM     38  H   UNL     1      19.399   7.923   0.655  0.00  0.00    +0.149 HD
BRANCH   6  24
ATOM     24  C   UNL     1      21.364   7.204   0.958  0.00  0.00    +0.139 C 
BRANCH  24  27
ATOM      1  F   UNL     1      20.603   7.465   6.531  0.00  0.00    -0.205 F 
ATOM     27  C   UNL     1      21.161   7.274   2.445  0.00  0.00    -0.030 A 
ATOM     31  C   UNL     1      21.960   6.507   3.294  0.00  0.00    +0.008 A 
ATOM     32  C   UNL     1      20.174   8.104   2.976  0.00  0.00    +0.008 A 
ATOM     33  C   UNL     1      21.770   6.571   4.674  0.00  0.00    +0.038 A 
ATOM     34  C   UNL     1      19.985   8.168   4.356  0.00  0.00    +0.038 A 
ATOM     35  C   UNL     1      20.783   7.402   5.205  0.00  0.00    +0.123 A 
ENDBRANCH  24  27
ENDBRANCH   6  24
ENDBRANCH  18  21
ENDBRANCH  13  18
TORSDOF 7
ENDMDL
MODEL 10
REMARK VINA RESULT:      -6.7     24.375     28.029
REMARK  Name = 45361399
REMARK  10 active torsions:
REMARK  status: ('A' for Active; 'I' for Inactive)
REMARK    1  A    between atoms: O_2  and  C_10
REMARK    2  A    between atoms: N_5  and  C_14
REMARK    3  A    between atoms: N_6  and  C_24
REMARK    4  A    between atoms: C_7  and  C_17
REMARK    5  A    between atoms: C_9  and  C_19
REMARK    6  A    between atoms: C_13  and  C_18
REMARK    7  A    between atoms: C_18  and  C_20
REMARK    8  A    between atoms: C_18  and  C_21
REMARK    9  A    between atoms: C_22  and  C_23
REMARK   10  A    between atoms: C_24  and  C_27
REMARK                            x       y       z     vdW  Elec       q    Type
REMARK                         _______ _______ _______ _____ _____    ______ ____
ROOT
ATOM      7  C   UNL     1      12.943   7.623   4.309  0.00  0.00    -0.027 C 
ATOM      8  C   UNL     1      12.169   6.265   4.402  0.00  0.00    +0.028 C 
ATOM      9  C   UNL     1      11.895   5.678   2.970  0.00  0.00    +0.012 C 
ATOM     10  C   UNL     1      10.923   6.389   5.324  0.00  0.00    +0.122 C 
ATOM     11  C   UNL     1      13.295   8.114   5.732  0.00  0.00    +0.007 C 
ATOM     12  C   UNL     1      14.269   7.396   3.548  0.00  0.00    +0.009 C 
ATOM     13  C   UNL     1      11.264   6.979   6.712  0.00  0.00    +0.029 C 
ATOM     14  C   UNL     1      13.229   5.526   2.186  0.00  0.00    +0.076 C 
ATOM     15  C   UNL     1      12.072   8.274   6.626  0.00  0.00    +0.007 C 
ATOM     16  C   UNL     1      14.068   6.803   2.160  0.00  0.00    +0.023 C 
ATOM     17  C   UNL     1      12.123   8.725   3.590  0.00  0.00    +0.011 C 
ATOM     19  C   UNL     1      11.161   4.327   2.988  0.00  0.00    +0.010 C 
ENDROOT
BRANCH  14   5
ATOM      4  O   UNL     1      14.324   3.194   0.918  0.00  0.00    -0.270 OA
ATOM      5  N   UNL     1      13.003   5.098   0.822  0.00  0.00    -0.308 N 
ATOM     22  C   UNL     1      13.580   3.952   0.301  0.00  0.00    +0.244 C 
ATOM     36  H   UNL     1      12.492   5.735   0.220  0.00  0.00    +0.149 HD
BRANCH  22  23
ATOM     23  C   UNL     1      13.270   3.664  -1.123  0.00  0.00    +0.037 A 
ATOM     25  C   UNL     1      13.914   4.378  -2.134  0.00  0.00    +0.013 A 
ATOM     26  C   UNL     1      12.337   2.680  -1.449  0.00  0.00    +0.013 A 
ATOM     28  C   UNL     1      13.624   4.107  -3.471  0.00  0.00    +0.001 A 
ATOM     29  C   UNL     1      12.048   2.409  -2.786  0.00  0.00    +0.001 A 
ATOM     30  C   UNL     1      12.691   3.122  -3.797  0.00  0.00    +0.000 A 
ENDBRANCH  22  23
ENDBRANCH  14   5
BRANCH  10   2
ATOM      2  O   UNL     1      10.371   5.092   5.556  0.00  0.00    -0.391 OA
ATOM     37  H   UNL     1      10.765   4.477   4.915  0.00  0.00    +0.210 HD
ENDBRANCH  10   2
BRANCH  13  18
ATOM     18  C   UNL     1      10.006   7.214   7.556  0.00  0.00    +0.077 C 
ATOM     20  C   UNL     1       9.756   6.020   8.469  0.00  0.00    +0.017 C 
BRANCH  18  21
ATOM      3  O   UNL     1       7.946   6.634   6.423  0.00  0.00    -0.276 OA
ATOM      6  N   UNL     1       8.822   8.759   6.111  0.00  0.00    -0.311 N 
ATOM     21  C   UNL     1       8.810   7.478   6.645  0.00  0.00    +0.216 C 
ATOM     38  H   UNL     1       9.556   9.408   6.375  0.00  0.00    +0.149 HD
BRANCH   6  24
ATOM     24  C   UNL     1       7.794   9.242   5.218  0.00  0.00    +0.139 C 
BRANCH  24  27
ATOM      1  F   UNL     1       9.414   9.026  -0.169  0.00  0.00    -0.205 F 
ATOM     27  C   UNL     1       8.226   9.185   3.781  0.00  0.00    -0.030 A 
ATOM     31  C   UNL     1       8.547   7.958   3.199  0.00  0.00    +0.008 A 
ATOM     32  C   UNL     1       8.307  10.357   3.030  0.00  0.00    +0.008 A 
ATOM     33  C   UNL     1       8.949   7.905   1.864  0.00  0.00    +0.038 A 
ATOM     34  C   UNL     1       8.709  10.303   1.696  0.00  0.00    +0.038 A 
ATOM     35  C   UNL     1       9.030   9.077   1.113  0.00  0.00    +0.123 A 
ENDBRANCH  24  27
ENDBRANCH   6  24
ENDBRANCH  18  21
ENDBRANCH  13  18
TORSDOF 7
ENDMDL
