MODEL 1
REMARK VINA RESULT:      -6.6      0.000      0.000
REMARK  Name = 75367813
REMARK  4 active torsions:
REMARK  status: ('A' for Active; 'I' for Inactive)
REMARK    1  A    between atoms: O_2  and  C_5
REMARK    2  A    between atoms: O_2  and  C_11
REMARK    3  A    between atoms: C_10  and  C_12
REMARK    4  A    between atoms: C_11  and  C_13
REMARK                            x       y       z     vdW  Elec       q    Type
REMARK                         _______ _______ _______ _____ _____    ______ ____
ROOT
ATOM      1  O   UNL     1      11.136   8.496  19.216  0.00  0.00    -0.376 OA
ATOM      3  O   UNL     1      15.418   6.382  18.503  0.00  0.00    -0.270 OA
ATOM      4  N   UNL     1      13.848   7.168  20.057  0.00  0.00    -0.293 N 
ATOM      5  C   UNL     1      12.169   8.518  21.426  0.00  0.00    +0.161 C 
ATOM      6  C   UNL     1      13.571   7.917  21.288  0.00  0.00    +0.142 C 
ATOM      7  C   UNL     1      12.716   6.627  19.303  0.00  0.00    +0.136 C 
ATOM      8  C   UNL     1      11.738   9.326  20.205  0.00  0.00    +0.193 C 
ATOM      9  C   UNL     1      12.052   7.710  18.460  0.00  0.00    +0.179 C 
ATOM     10  C   UNL     1      15.143   6.975  19.547  0.00  0.00    +0.247 C 
ENDROOT
BRANCH  10  12
ATOM     12  C   UNL     1      16.280   7.518  20.306  0.00  0.00    +0.037 A 
ATOM     14  C   UNL     1      16.418   8.896  20.465  0.00  0.00    +0.013 A 
ATOM     15  C   UNL     1      17.219   6.653  20.868  0.00  0.00    +0.013 A 
ATOM     18  C   UNL     1      17.496   9.411  21.186  0.00  0.00    +0.001 A 
ATOM     19  C   UNL     1      18.296   7.167  21.590  0.00  0.00    +0.001 A 
ATOM     22  C   UNL     1      18.435   8.546  21.749  0.00  0.00    +0.000 A 
ENDBRANCH  10  12
BRANCH   5   2
ATOM      2  O   UNL     1      12.202   9.379  22.566  0.00  0.00    -0.368 OA
BRANCH   2  11
ATOM     11  C   UNL     1      12.521  10.711  22.195  0.00  0.00    +0.195 C 
BRANCH  11  13
ATOM     13  C   UNL     1      11.732  11.659  23.051  0.00  0.00    -0.022 A 
ATOM     16  C   UNL     1      11.651  11.452  24.429  0.00  0.00    +0.006 A 
ATOM     17  C   UNL     1      11.078  12.745  22.469  0.00  0.00    +0.006 A 
ATOM     20  C   UNL     1      10.916  12.332  25.223  0.00  0.00    +0.000 A 
ATOM     21  C   UNL     1      10.344  13.624  23.265  0.00  0.00    +0.000 A 
ATOM     23  C   UNL     1      10.263  13.418  24.641  0.00  0.00    +0.000 A 
ENDBRANCH  11  13
ENDBRANCH   2  11
ENDBRANCH   5   2
TORSDOF 4
ENDMDL
MODEL 2
REMARK VINA RESULT:      -6.5      3.155      5.679
REMARK  Name = 75367813
REMARK  4 active torsions:
REMARK  status: ('A' for Active; 'I' for Inactive)
REMARK    1  A    between atoms: O_2  and  C_5
REMARK    2  A    between atoms: O_2  and  C_11
REMARK    3  A    between atoms: C_10  and  C_12
REMARK    4  A    between atoms: C_11  and  C_13
REMARK                            x       y       z     vdW  Elec       q    Type
REMARK                         _______ _______ _______ _____ _____    ______ ____
ROOT
ATOM      1  O   UNL     1      13.633  10.472  14.837  0.00  0.00    -0.376 OA
ATOM      3  O   UNL     1      14.900  13.235  18.588  0.00  0.00    -0.270 OA
ATOM      4  N   UNL     1      14.703  11.066  17.723  0.00  0.00    -0.293 N 
ATOM      5  C   UNL     1      13.937   8.876  16.657  0.00  0.00    +0.161 C 
ATOM      6  C   UNL     1      14.285   9.672  17.918  0.00  0.00    +0.142 C 
ATOM      7  C   UNL     1      15.227  11.457  16.413  0.00  0.00    +0.136 C 
ATOM      8  C   UNL     1      12.956   9.601  15.739  0.00  0.00    +0.193 C 
ATOM      9  C   UNL     1      14.097  11.687  15.417  0.00  0.00    +0.179 C 
ATOM     10  C   UNL     1      14.592  12.050  18.718  0.00  0.00    +0.247 C 
ENDROOT
BRANCH  10  12
ATOM     12  C   UNL     1      14.066  11.656  20.034  0.00  0.00    +0.037 A 
ATOM     14  C   UNL     1      14.853  10.899  20.902  0.00  0.00    +0.013 A 
ATOM     15  C   UNL     1      12.781  12.042  20.416  0.00  0.00    +0.013 A 
ATOM     18  C   UNL     1      14.355  10.527  22.151  0.00  0.00    +0.001 A 
ATOM     19  C   UNL     1      12.283  11.670  21.664  0.00  0.00    +0.001 A 
ATOM     22  C   UNL     1      13.070  10.913  22.532  0.00  0.00    +0.000 A 
ENDBRANCH  10  12
BRANCH   5   2
ATOM      2  O   UNL     1      13.346   7.651  17.094  0.00  0.00    -0.368 OA
BRANCH   2  11
ATOM     11  C   UNL     1      12.006   7.848  17.516  0.00  0.00    +0.195 C 
BRANCH  11  13
ATOM     13  C   UNL     1      11.945   7.750  19.013  0.00  0.00    -0.022 A 
ATOM     16  C   UNL     1      10.969   8.454  19.720  0.00  0.00    +0.006 A 
ATOM     17  C   UNL     1      12.866   6.956  19.697  0.00  0.00    +0.006 A 
ATOM     20  C   UNL     1      10.915   8.363  21.110  0.00  0.00    +0.000 A 
ATOM     21  C   UNL     1      12.810   6.866  21.088  0.00  0.00    +0.000 A 
ATOM     23  C   UNL     1      11.835   7.569  21.794  0.00  0.00    +0.000 A 
ENDBRANCH  11  13
ENDBRANCH   2  11
ENDBRANCH   5   2
TORSDOF 4
ENDMDL
MODEL 3
REMARK VINA RESULT:      -6.4      3.173      6.347
REMARK  Name = 75367813
REMARK  4 active torsions:
REMARK  status: ('A' for Active; 'I' for Inactive)
REMARK    1  A    between atoms: O_2  and  C_5
REMARK    2  A    between atoms: O_2  and  C_11
REMARK    3  A    between atoms: C_10  and  C_12
REMARK    4  A    between atoms: C_11  and  C_13
REMARK                            x       y       z     vdW  Elec       q    Type
REMARK                         _______ _______ _______ _____ _____    ______ ____
ROOT
ATOM      1  O   UNL     1      11.678   7.109  19.770  0.00  0.00    -0.376 OA
ATOM      3  O   UNL     1      12.996  11.709  19.131  0.00  0.00    -0.270 OA
ATOM      4  N   UNL     1      13.623   9.453  19.030  0.00  0.00    -0.293 N 
ATOM      5  C   UNL     1      14.096   6.984  19.472  0.00  0.00    +0.161 C 
ATOM      6  C   UNL     1      14.619   8.415  19.321  0.00  0.00    +0.142 C 
ATOM      7  C   UNL     1      12.350   9.046  18.432  0.00  0.00    +0.136 C 
ATOM      8  C   UNL     1      12.916   6.872  20.434  0.00  0.00    +0.193 C 
ATOM      9  C   UNL     1      11.407   8.477  19.486  0.00  0.00    +0.179 C 
ATOM     10  C   UNL     1      13.815  10.812  19.328  0.00  0.00    +0.247 C 
ENDROOT
BRANCH  10  12
ATOM     12  C   UNL     1      15.095  11.220  19.928  0.00  0.00    +0.037 A 
ATOM     14  C   UNL     1      15.297  11.085  21.301  0.00  0.00    +0.013 A 
ATOM     15  C   UNL     1      16.108  11.740  19.122  0.00  0.00    +0.013 A 
ATOM     18  C   UNL     1      16.511  11.471  21.869  0.00  0.00    +0.001 A 
ATOM     19  C   UNL     1      17.322  12.126  19.689  0.00  0.00    +0.001 A 
ATOM     22  C   UNL     1      17.524  11.991  21.064  0.00  0.00    +0.000 A 
ENDBRANCH  10  12
BRANCH   5   2
ATOM      2  O   UNL     1      15.181   6.201  19.973  0.00  0.00    -0.368 OA
BRANCH   2  11
ATOM     11  C   UNL     1      16.293   6.240  19.093  0.00  0.00    +0.195 C 
BRANCH  11  13
ATOM     13  C   UNL     1      17.552   6.363  19.901  0.00  0.00    -0.022 A 
ATOM     16  C   UNL     1      17.681   7.388  20.838  0.00  0.00    +0.006 A 
ATOM     17  C   UNL     1      18.593   5.453  19.714  0.00  0.00    +0.006 A 
ATOM     20  C   UNL     1      18.852   7.503  21.588  0.00  0.00    +0.000 A 
ATOM     21  C   UNL     1      19.763   5.569  20.464  0.00  0.00    +0.000 A 
ATOM     23  C   UNL     1      19.892   6.594  21.401  0.00  0.00    +0.000 A 
ENDBRANCH  11  13
ENDBRANCH   2  11
ENDBRANCH   5   2
TORSDOF 4
ENDMDL
MODEL 4
REMARK VINA RESULT:      -6.3      2.972      6.007
REMARK  Name = 75367813
REMARK  4 active torsions:
REMARK  status: ('A' for Active; 'I' for Inactive)
REMARK    1  A    between atoms: O_2  and  C_5
REMARK    2  A    between atoms: O_2  and  C_11
REMARK    3  A    between atoms: C_10  and  C_12
REMARK    4  A    between atoms: C_11  and  C_13
REMARK                            x       y       z     vdW  Elec       q    Type
REMARK                         _______ _______ _______ _____ _____    ______ ____
ROOT
ATOM      1  O   UNL     1      11.989   6.103  20.116  0.00  0.00    -0.376 OA
ATOM      3  O   UNL     1      11.028   9.601  23.302  0.00  0.00    -0.270 OA
ATOM      4  N   UNL     1      11.211   8.994  21.046  0.00  0.00    -0.293 N 
ATOM      5  C   UNL     1      11.938   8.129  18.757  0.00  0.00    +0.161 C 
ATOM      6  C   UNL     1      11.697   9.313  19.698  0.00  0.00    +0.142 C 
ATOM      7  C   UNL     1      10.536   7.712  21.256  0.00  0.00    +0.136 C 
ATOM      8  C   UNL     1      12.789   7.026  19.382  0.00  0.00    +0.193 C 
ATOM      9  C   UNL     1      11.546   6.577  21.384  0.00  0.00    +0.179 C 
ATOM     10  C   UNL     1      11.391   9.842  22.151  0.00  0.00    +0.247 C 
ENDROOT
BRANCH  10  12
ATOM     12  C   UNL     1      12.067  11.131  21.938  0.00  0.00    +0.037 A 
ATOM     14  C   UNL     1      13.454  11.220  22.057  0.00  0.00    +0.013 A 
ATOM     15  C   UNL     1      11.321  12.265  21.615  0.00  0.00    +0.013 A 
ATOM     18  C   UNL     1      14.096  12.441  21.854  0.00  0.00    +0.001 A 
ATOM     19  C   UNL     1      11.962  13.487  21.412  0.00  0.00    +0.001 A 
ATOM     22  C   UNL     1      13.350  13.575  21.531  0.00  0.00    +0.000 A 
ENDBRANCH  10  12
BRANCH   5   2
ATOM      2  O   UNL     1      12.616   8.646  17.610  0.00  0.00    -0.368 OA
BRANCH   2  11
ATOM     11  C   UNL     1      14.020   8.670  17.811  0.00  0.00    +0.195 C 
BRANCH  11  13
ATOM     13  C   UNL     1      14.524  10.064  17.576  0.00  0.00    -0.022 A 
ATOM     16  C   UNL     1      15.027  10.813  18.640  0.00  0.00    +0.006 A 
ATOM     17  C   UNL     1      14.488  10.612  16.293  0.00  0.00    +0.006 A 
ATOM     20  C   UNL     1      15.494  12.109  18.422  0.00  0.00    +0.000 A 
ATOM     21  C   UNL     1      14.955  11.908  16.076  0.00  0.00    +0.000 A 
ATOM     23  C   UNL     1      15.458  12.656  17.140  0.00  0.00    +0.000 A 
ENDBRANCH  11  13
ENDBRANCH   2  11
ENDBRANCH   5   2
TORSDOF 4
ENDMDL
MODEL 5
REMARK VINA RESULT:      -6.3      4.518      6.931
REMARK  Name = 75367813
REMARK  4 active torsions:
REMARK  status: ('A' for Active; 'I' for Inactive)
REMARK    1  A    between atoms: O_2  and  C_5
REMARK    2  A    between atoms: O_2  and  C_11
REMARK    3  A    between atoms: C_10  and  C_12
REMARK    4  A    between atoms: C_11  and  C_13
REMARK                            x       y       z     vdW  Elec       q    Type
REMARK                         _______ _______ _______ _____ _____    ______ ____
ROOT
ATOM      1  O   UNL     1      11.835   9.208  16.569  0.00  0.00    -0.376 OA
ATOM      3  O   UNL     1      13.239   6.775  20.496  0.00  0.00    -0.270 OA
ATOM      4  N   UNL     1      13.631   8.588  19.062  0.00  0.00    -0.293 N 
ATOM      5  C   UNL     1      14.028  10.147  17.081  0.00  0.00    +0.161 C 
ATOM      6  C   UNL     1      14.587   9.389  18.288  0.00  0.00    +0.142 C 
ATOM      7  C   UNL     1      12.209   8.924  18.973  0.00  0.00    +0.136 C 
ATOM      8  C   UNL     1      13.195   9.269  16.150  0.00  0.00    +0.193 C 
ATOM      9  C   UNL     1      11.595   8.368  17.693  0.00  0.00    +0.179 C 
ATOM     10  C   UNL     1      14.009   7.493  19.857  0.00  0.00    +0.247 C 
ENDROOT
BRANCH  10  12
ATOM     12  C   UNL     1      15.438   7.156  19.948  0.00  0.00    +0.037 A 
ATOM     14  C   UNL     1      16.016   6.306  19.006  0.00  0.00    +0.013 A 
ATOM     15  C   UNL     1      16.216   7.691  20.975  0.00  0.00    +0.013 A 
ATOM     18  C   UNL     1      17.372   5.988  19.091  0.00  0.00    +0.001 A 
ATOM     19  C   UNL     1      17.572   7.373  21.060  0.00  0.00    +0.001 A 
ATOM     22  C   UNL     1      18.150   6.522  20.117  0.00  0.00    +0.000 A 
ENDBRANCH  10  12
BRANCH   5   2
ATOM      2  O   UNL     1      15.151  10.655  16.359  0.00  0.00    -0.368 OA
BRANCH   2  11
ATOM     11  C   UNL     1      14.968  10.518  14.958  0.00  0.00    +0.195 C 
BRANCH  11  13
ATOM     13  C   UNL     1      15.974  11.375  14.247  0.00  0.00    -0.022 A 
ATOM     16  C   UNL     1      15.813  11.661  12.891  0.00  0.00    +0.006 A 
ATOM     17  C   UNL     1      17.070  11.886  14.942  0.00  0.00    +0.006 A 
ATOM     20  C   UNL     1      16.749  12.456  12.230  0.00  0.00    +0.000 A 
ATOM     21  C   UNL     1      18.005  12.681  14.281  0.00  0.00    +0.000 A 
ATOM     23  C   UNL     1      17.844  12.967  12.925  0.00  0.00    +0.000 A 
ENDBRANCH  11  13
ENDBRANCH   2  11
ENDBRANCH   5   2
TORSDOF 4
ENDMDL
MODEL 6
REMARK VINA RESULT:      -6.3     26.473     28.524
REMARK  Name = 75367813
REMARK  4 active torsions:
REMARK  status: ('A' for Active; 'I' for Inactive)
REMARK    1  A    between atoms: O_2  and  C_5
REMARK    2  A    between atoms: O_2  and  C_11
REMARK    3  A    between atoms: C_10  and  C_12
REMARK    4  A    between atoms: C_11  and  C_13
REMARK                            x       y       z     vdW  Elec       q    Type
REMARK                         _______ _______ _______ _____ _____    ______ ____
ROOT
ATOM      1  O   UNL     1      -8.933 -10.622  16.145  0.00  0.00    -0.376 OA
ATOM      3  O   UNL     1      -4.652 -11.275  18.280  0.00  0.00    -0.270 OA
ATOM      4  N   UNL     1      -5.841 -10.274  16.526  0.00  0.00    -0.293 N 
ATOM      5  C   UNL     1      -7.336  -9.733  14.529  0.00  0.00    +0.161 C 
ATOM      6  C   UNL     1      -5.931  -9.953  15.097  0.00  0.00    +0.142 C 
ATOM      7  C   UNL     1      -6.956  -9.895  17.395  0.00  0.00    +0.136 C 
ATOM      8  C   UNL     1      -8.311 -10.852  14.884  0.00  0.00    +0.193 C 
ATOM      9  C   UNL     1      -8.106 -10.888  17.274  0.00  0.00    +0.179 C 
ATOM     10  C   UNL     1      -4.754 -10.958  17.095  0.00  0.00    +0.247 C 
ENDROOT
BRANCH  10  12
ATOM     12  C   UNL     1      -3.633 -11.337  16.221  0.00  0.00    +0.037 A 
ATOM     14  C   UNL     1      -2.447 -10.603  16.249  0.00  0.00    +0.013 A 
ATOM     15  C   UNL     1      -3.755 -12.432  15.366  0.00  0.00    +0.013 A 
ATOM     18  C   UNL     1      -1.383 -10.963  15.422  0.00  0.00    +0.001 A 
ATOM     19  C   UNL     1      -2.691 -12.793  14.539  0.00  0.00    +0.001 A 
ATOM     22  C   UNL     1      -1.505 -12.058  14.567  0.00  0.00    +0.000 A 
ENDBRANCH  10  12
BRANCH   5   2
ATOM      2  O   UNL     1      -7.200  -9.667  13.108  0.00  0.00    -0.368 OA
BRANCH   2  11
ATOM     11  C   UNL     1      -6.406 -10.736  12.618  0.00  0.00    +0.195 C 
BRANCH  11  13
ATOM     13  C   UNL     1      -5.290 -10.174  11.786  0.00  0.00    -0.022 A 
ATOM     16  C   UNL     1      -5.544  -9.139  10.886  0.00  0.00    +0.006 A 
ATOM     17  C   UNL     1      -3.999 -10.686  11.913  0.00  0.00    +0.006 A 
ATOM     20  C   UNL     1      -4.507  -8.617  10.112  0.00  0.00    +0.000 A 
ATOM     21  C   UNL     1      -2.963 -10.164  11.140  0.00  0.00    +0.000 A 
ATOM     23  C   UNL     1      -3.217  -9.130  10.240  0.00  0.00    +0.000 A 
ENDBRANCH  11  13
ENDBRANCH   2  11
ENDBRANCH   5   2
TORSDOF 4
ENDMDL
MODEL 7
REMARK VINA RESULT:      -6.1     27.298     28.708
REMARK  Name = 75367813
REMARK  4 active torsions:
REMARK  status: ('A' for Active; 'I' for Inactive)
REMARK    1  A    between atoms: O_2  and  C_5
REMARK    2  A    between atoms: O_2  and  C_11
REMARK    3  A    between atoms: C_10  and  C_12
REMARK    4  A    between atoms: C_11  and  C_13
REMARK                            x       y       z     vdW  Elec       q    Type
REMARK                         _______ _______ _______ _____ _____    ______ ____
ROOT
ATOM      1  O   UNL     1      -3.329 -15.049  14.194  0.00  0.00    -0.376 OA
ATOM      3  O   UNL     1      -4.044 -13.176   9.802  0.00  0.00    -0.270 OA
ATOM      4  N   UNL     1      -3.066 -12.912  11.915  0.00  0.00    -0.293 N 
ATOM      5  C   UNL     1      -2.546 -12.748  14.409  0.00  0.00    +0.161 C 
ATOM      6  C   UNL     1      -2.791 -12.048  13.069  0.00  0.00    +0.142 C 
ATOM      7  C   UNL     1      -2.623 -14.306  11.970  0.00  0.00    +0.136 C 
ATOM      8  C   UNL     1      -3.622 -13.773  14.758  0.00  0.00    +0.193 C 
ATOM      9  C   UNL     1      -3.583 -15.154  12.797  0.00  0.00    +0.179 C 
ATOM     10  C   UNL     1      -3.764 -12.478  10.776  0.00  0.00    +0.247 C 
ENDROOT
BRANCH  10  12
ATOM     12  C   UNL     1      -4.208 -11.077  10.722  0.00  0.00    +0.037 A 
ATOM     14  C   UNL     1      -5.346 -10.677  11.422  0.00  0.00    +0.013 A 
ATOM     15  C   UNL     1      -3.488 -10.147   9.971  0.00  0.00    +0.013 A 
ATOM     18  C   UNL     1      -5.766  -9.348  11.371  0.00  0.00    +0.001 A 
ATOM     19  C   UNL     1      -3.907  -8.817   9.921  0.00  0.00    +0.001 A 
ATOM     22  C   UNL     1      -5.046  -8.418  10.621  0.00  0.00    +0.000 A 
ENDBRANCH  10  12
BRANCH   5   2
ATOM      2  O   UNL     1      -2.533 -11.728  15.410  0.00  0.00    -0.368 OA
BRANCH   2  11
ATOM     11  C   UNL     1      -3.368 -10.640  15.046  0.00  0.00    +0.195 C 
BRANCH  11  13
ATOM     13  C   UNL     1      -4.448 -10.487  16.076  0.00  0.00    -0.022 A 
ATOM     16  C   UNL     1      -4.267 -11.004  17.359  0.00  0.00    +0.006 A 
ATOM     17  C   UNL     1      -5.635  -9.830  15.750  0.00  0.00    +0.006 A 
ATOM     20  C   UNL     1      -5.272 -10.863  18.316  0.00  0.00    +0.000 A 
ATOM     21  C   UNL     1      -6.639  -9.689  16.707  0.00  0.00    +0.000 A 
ATOM     23  C   UNL     1      -6.458 -10.205  17.990  0.00  0.00    +0.000 A 
ENDBRANCH  11  13
ENDBRANCH   2  11
ENDBRANCH   5   2
TORSDOF 4
ENDMDL
MODEL 8
REMARK VINA RESULT:      -6.1     18.845     22.067
REMARK  Name = 75367813
REMARK  4 active torsions:
REMARK  status: ('A' for Active; 'I' for Inactive)
REMARK    1  A    between atoms: O_2  and  C_5
REMARK    2  A    between atoms: O_2  and  C_11
REMARK    3  A    between atoms: C_10  and  C_12
REMARK    4  A    between atoms: C_11  and  C_13
REMARK                            x       y       z     vdW  Elec       q    Type
REMARK                         _______ _______ _______ _____ _____    ______ ____
ROOT
ATOM      1  O   UNL     1      14.366   4.012   1.689  0.00  0.00    -0.376 OA
ATOM      3  O   UNL     1      13.911   3.934  -3.117  0.00  0.00    -0.270 OA
ATOM      4  N   UNL     1      12.955   4.531  -1.062  0.00  0.00    -0.293 N 
ATOM      5  C   UNL     1      12.032   4.619   1.317  0.00  0.00    +0.161 C 
ATOM      6  C   UNL     1      11.774   4.562  -0.192  0.00  0.00    +0.142 C 
ATOM      7  C   UNL     1      14.222   5.036  -0.531  0.00  0.00    +0.136 C 
ATOM      8  C   UNL     1      13.019   3.559   1.799  0.00  0.00    +0.193 C 
ATOM      9  C   UNL     1      14.892   4.000   0.366  0.00  0.00    +0.179 C 
ATOM     10  C   UNL     1      12.938   4.009  -2.366  0.00  0.00    +0.247 C 
ENDROOT
BRANCH  10  12
ATOM     12  C   UNL     1      11.664   3.503  -2.899  0.00  0.00    +0.037 A 
ATOM     14  C   UNL     1      10.863   4.326  -3.691  0.00  0.00    +0.013 A 
ATOM     15  C   UNL     1      11.258   2.200  -2.614  0.00  0.00    +0.013 A 
ATOM     18  C   UNL     1       9.656   3.846  -4.198  0.00  0.00    +0.001 A 
ATOM     19  C   UNL     1      10.050   1.719  -3.121  0.00  0.00    +0.001 A 
ATOM     22  C   UNL     1       9.249   2.543  -3.913  0.00  0.00    +0.000 A 
ENDBRANCH  10  12
BRANCH   5   2
ATOM      2  O   UNL     1      10.773   4.409   1.958  0.00  0.00    -0.368 OA
BRANCH   2  11
ATOM     11  C   UNL     1      10.903   4.444   3.371  0.00  0.00    +0.195 C 
BRANCH  11  13
ATOM     13  C   UNL     1       9.932   5.444   3.926  0.00  0.00    -0.022 A 
ATOM     16  C   UNL     1       9.629   6.598   3.203  0.00  0.00    +0.006 A 
ATOM     17  C   UNL     1       9.334   5.221   5.167  0.00  0.00    +0.006 A 
ATOM     20  C   UNL     1       8.728   7.528   3.721  0.00  0.00    +0.000 A 
ATOM     21  C   UNL     1       8.432   6.151   5.683  0.00  0.00    +0.000 A 
ATOM     23  C   UNL     1       8.130   7.304   4.960  0.00  0.00    +0.000 A 
ENDBRANCH  11  13
ENDBRANCH   2  11
ENDBRANCH   5   2
TORSDOF 4
ENDMDL
MODEL 9
REMARK VINA RESULT:      -6.1     29.976     32.348
REMARK  Name = 75367813
REMARK  4 active torsions:
REMARK  status: ('A' for Active; 'I' for Inactive)
REMARK    1  A    between atoms: O_2  and  C_5
REMARK    2  A    between atoms: O_2  and  C_11
REMARK    3  A    between atoms: C_10  and  C_12
REMARK    4  A    between atoms: C_11  and  C_13
REMARK                            x       y       z     vdW  Elec       q    Type
REMARK                         _______ _______ _______ _____ _____    ______ ____
ROOT
ATOM      1  O   UNL     1      -7.880  -9.237  40.614  0.00  0.00    -0.376 OA
ATOM      3  O   UNL     1     -11.537  -6.103  40.283  0.00  0.00    -0.270 OA
ATOM      4  N   UNL     1      -9.378  -6.685  39.580  0.00  0.00    -0.293 N 
ATOM      5  C   UNL     1      -6.922  -7.353  39.395  0.00  0.00    +0.161 C 
ATOM      6  C   UNL     1      -8.000  -6.271  39.292  0.00  0.00    +0.142 C 
ATOM      7  C   UNL     1      -9.717  -8.104  39.458  0.00  0.00    +0.136 C 
ATOM      8  C   UNL     1      -6.978  -8.138  40.703  0.00  0.00    +0.193 C 
ATOM      9  C   UNL     1      -9.258  -8.885  40.684  0.00  0.00    +0.179 C 
ATOM     10  C   UNL     1     -10.379  -5.794  40.001  0.00  0.00    +0.247 C 
ENDROOT
BRANCH  10  12
ATOM     12  C   UNL     1     -10.038  -4.368  40.122  0.00  0.00    +0.037 A 
ATOM     14  C   UNL     1     -10.372  -3.482  39.099  0.00  0.00    +0.013 A 
ATOM     15  C   UNL     1      -9.384  -3.903  41.262  0.00  0.00    +0.013 A 
ATOM     18  C   UNL     1     -10.050  -2.129  39.214  0.00  0.00    +0.001 A 
ATOM     19  C   UNL     1      -9.061  -2.550  41.378  0.00  0.00    +0.001 A 
ATOM     22  C   UNL     1      -9.395  -1.664  40.354  0.00  0.00    +0.000 A 
ENDBRANCH  10  12
BRANCH   5   2
ATOM      2  O   UNL     1      -5.661  -6.687  39.306  0.00  0.00    -0.368 OA
BRANCH   2  11
ATOM     11  C   UNL     1      -4.761  -7.155  40.298  0.00  0.00    +0.195 C 
BRANCH  11  13
ATOM     13  C   UNL     1      -3.668  -6.143  40.483  0.00  0.00    -0.022 A 
ATOM     16  C   UNL     1      -3.548  -5.460  41.694  0.00  0.00    +0.006 A 
ATOM     17  C   UNL     1      -2.775  -5.883  39.444  0.00  0.00    +0.006 A 
ATOM     20  C   UNL     1      -2.533  -4.519  41.865  0.00  0.00    +0.000 A 
ATOM     21  C   UNL     1      -1.761  -4.941  39.616  0.00  0.00    +0.000 A 
ATOM     23  C   UNL     1      -1.640  -4.259  40.826  0.00  0.00    +0.000 A 
ENDBRANCH  11  13
ENDBRANCH   2  11
ENDBRANCH   5   2
TORSDOF 4
ENDMDL
MODEL 10
REMARK VINA RESULT:      -6.0     26.410     28.526
REMARK  Name = 75367813
REMARK  4 active torsions:
REMARK  status: ('A' for Active; 'I' for Inactive)
REMARK    1  A    between atoms: O_2  and  C_5
REMARK    2  A    between atoms: O_2  and  C_11
REMARK    3  A    between atoms: C_10  and  C_12
REMARK    4  A    between atoms: C_11  and  C_13
REMARK                            x       y       z     vdW  Elec       q    Type
REMARK                         _______ _______ _______ _____ _____    ______ ____
ROOT
ATOM      1  O   UNL     1      -2.940 -12.173  15.665  0.00  0.00    -0.376 OA
ATOM      3  O   UNL     1      -1.133 -10.279  11.608  0.00  0.00    -0.270 OA
ATOM      4  N   UNL     1      -2.924 -10.345  13.119  0.00  0.00    -0.293 N 
ATOM      5  C   UNL     1      -4.837 -11.000  14.677  0.00  0.00    +0.161 C 
ATOM      6  C   UNL     1      -4.373 -10.411  13.341  0.00  0.00    +0.142 C 
ATOM      7  C   UNL     1      -2.040 -10.360  14.285  0.00  0.00    +0.136 C 
ATOM      8  C   UNL     1      -4.188 -12.343  15.000  0.00  0.00    +0.193 C 
ATOM      9  C   UNL     1      -1.864 -11.777  14.820  0.00  0.00    +0.179 C 
ATOM     10  C   UNL     1      -2.341 -10.303  11.841  0.00  0.00    +0.247 C 
ENDROOT
BRANCH  10  12
ATOM     12  C   UNL     1      -3.230 -10.285  10.669  0.00  0.00    +0.037 A 
ATOM     14  C   UNL     1      -3.615  -9.070  10.103  0.00  0.00    +0.013 A 
ATOM     15  C   UNL     1      -3.686 -11.485  10.122  0.00  0.00    +0.013 A 
ATOM     18  C   UNL     1      -4.456  -9.054   8.990  0.00  0.00    +0.001 A 
ATOM     19  C   UNL     1      -4.528 -11.469   9.010  0.00  0.00    +0.001 A 
ATOM     22  C   UNL     1      -4.912 -10.253   8.444  0.00  0.00    +0.000 A 
ENDBRANCH  10  12
BRANCH   5   2
ATOM      2  O   UNL     1      -6.251 -11.178  14.578  0.00  0.00    -0.368 OA
BRANCH   2  11
ATOM     11  C   UNL     1      -6.941 -10.322  15.477  0.00  0.00    +0.195 C 
BRANCH  11  13
ATOM     13  C   UNL     1      -6.916 -10.932  16.848  0.00  0.00    -0.022 A 
ATOM     16  C   UNL     1      -7.387 -12.231  17.042  0.00  0.00    +0.006 A 
ATOM     17  C   UNL     1      -6.423 -10.200  17.928  0.00  0.00    +0.006 A 
ATOM     20  C   UNL     1      -7.365 -12.797  18.317  0.00  0.00    +0.000 A 
ATOM     21  C   UNL     1      -6.401 -10.766  19.202  0.00  0.00    +0.000 A 
ATOM     23  C   UNL     1      -6.872 -12.064  19.396  0.00  0.00    +0.000 A 
ENDBRANCH  11  13
ENDBRANCH   2  11
ENDBRANCH   5   2
TORSDOF 4
ENDMDL
