MODEL 1
REMARK VINA RESULT:      -7.2      0.000      0.000
REMARK  Name = 75536640
REMARK  7 active torsions:
REMARK  status: ('A' for Active; 'I' for Inactive)
REMARK    1  A    between atoms: O_4  and  C_9
REMARK    2  A    between atoms: N_6  and  C_8
REMARK    3  A    between atoms: N_6  and  C_13
REMARK    4  A    between atoms: N_7  and  C_12
REMARK    5  A    between atoms: C_10  and  C_12
REMARK    6  A    between atoms: C_13  and  C_14
REMARK    7  A    between atoms: C_15  and  C_18
REMARK                            x       y       z     vdW  Elec       q    Type
REMARK                         _______ _______ _______ _____ _____    ______ ____
ROOT
ATOM      3  O   UNL     1      11.105   8.722  20.046  0.00  0.00    -0.371 OA
ATOM      8  C   UNL     1      12.510   6.841  19.686  0.00  0.00    +0.111 C 
ATOM      9  C   UNL     1      12.089   6.871  21.143  0.00  0.00    +0.164 C 
ATOM     10  C   UNL     1      10.845   7.748  21.071  0.00  0.00    +0.165 C 
ATOM     11  C   UNL     1      12.222   8.271  19.259  0.00  0.00    +0.181 C 
ENDROOT
BRANCH   9   4
ATOM      4  O   UNL     1      11.799   5.585  21.654  0.00  0.00    -0.388 OA
ATOM     28  H   UNL     1      12.621   5.067  21.664  0.00  0.00    +0.210 HD
ENDBRANCH   9   4
BRANCH   8   6
ATOM      6  N   UNL     1      13.900   6.462  19.488  0.00  0.00    -0.305 NA
ATOM     27  H   UNL     1      14.063   6.302  18.493  0.00  0.00    +0.123 HD
BRANCH   6  13
ATOM     13  C   UNL     1      14.803   7.508  19.952  0.00  0.00    +0.116 C 
BRANCH  13  14
ATOM      1  F   UNL     1      20.118   5.678  20.333  0.00  0.00    -0.205 F 
ATOM     14  C   UNL     1      16.222   7.019  20.054  0.00  0.00    -0.033 A 
ATOM     16  C   UNL     1      17.070   7.539  21.032  0.00  0.00    +0.008 A 
ATOM     17  C   UNL     1      16.691   6.047  19.170  0.00  0.00    +0.008 A 
ATOM     19  C   UNL     1      18.386   7.086  21.126  0.00  0.00    +0.038 A 
ATOM     20  C   UNL     1      18.007   5.594  19.264  0.00  0.00    +0.038 A 
ATOM     21  C   UNL     1      18.855   6.114  20.243  0.00  0.00    +0.123 A 
ENDBRANCH  13  14
ENDBRANCH   6  13
ENDBRANCH   8   6
BRANCH  10  12
ATOM     12  C   UNL     1      10.528   8.449  22.378  0.00  0.00    +0.138 C 
BRANCH  12   7
ATOM      5  O   UNL     1      10.932  11.292  22.374  0.00  0.00    -0.270 OA
ATOM      7  N   UNL     1      11.672   9.153  22.885  0.00  0.00    -0.309 N 
ATOM     15  C   UNL     1      11.783  10.539  22.840  0.00  0.00    +0.244 C 
ATOM     29  H   UNL     1      12.443   8.586  23.220  0.00  0.00    +0.149 HD
BRANCH  15  18
ATOM      2  F   UNL     1      16.540  12.710  24.885  0.00  0.00    -0.205 F 
ATOM     18  C   UNL     1      13.042  11.114  23.381  0.00  0.00    +0.037 A 
ATOM     22  C   UNL     1      13.031  11.790  24.601  0.00  0.00    +0.016 A 
ATOM     23  C   UNL     1      14.234  10.978  22.669  0.00  0.00    +0.016 A 
ATOM     24  C   UNL     1      14.213  12.330  25.109  0.00  0.00    +0.039 A 
ATOM     25  C   UNL     1      15.415  11.517  23.177  0.00  0.00    +0.039 A 
ATOM     26  C   UNL     1      15.405  12.193  24.397  0.00  0.00    +0.123 A 
ENDBRANCH  15  18
ENDBRANCH  12   7
ENDBRANCH  10  12
TORSDOF 7
ENDMDL
MODEL 2
REMARK VINA RESULT:      -7.0     27.455     30.468
REMARK  Name = 75536640
REMARK  7 active torsions:
REMARK  status: ('A' for Active; 'I' for Inactive)
REMARK    1  A    between atoms: O_4  and  C_9
REMARK    2  A    between atoms: N_6  and  C_8
REMARK    3  A    between atoms: N_6  and  C_13
REMARK    4  A    between atoms: N_7  and  C_12
REMARK    5  A    between atoms: C_10  and  C_12
REMARK    6  A    between atoms: C_13  and  C_14
REMARK    7  A    between atoms: C_15  and  C_18
REMARK                            x       y       z     vdW  Elec       q    Type
REMARK                         _______ _______ _______ _____ _____    ______ ____
ROOT
ATOM      3  O   UNL     1     -16.805   3.883  25.500  0.00  0.00    -0.371 OA
ATOM      8  C   UNL     1     -16.114   4.019  23.232  0.00  0.00    +0.111 C 
ATOM      9  C   UNL     1     -16.497   2.585  23.546  0.00  0.00    +0.164 C 
ATOM     10  C   UNL     1     -17.374   2.778  24.776  0.00  0.00    +0.165 C 
ATOM     11  C   UNL     1     -15.906   4.588  24.626  0.00  0.00    +0.181 C 
ENDROOT
BRANCH   9   4
ATOM      4  O   UNL     1     -17.201   1.963  22.489  0.00  0.00    -0.388 OA
ATOM     28  H   UNL     1     -17.673   1.192  22.848  0.00  0.00    +0.210 HD
ENDBRANCH   9   4
BRANCH   8   6
ATOM      6  N   UNL     1     -14.933   4.137  22.391  0.00  0.00    -0.305 NA
ATOM     27  H   UNL     1     -15.227   4.302  21.428  0.00  0.00    +0.123 HD
BRANCH   6  13
ATOM     13  C   UNL     1     -14.089   5.244  22.824  0.00  0.00    +0.116 C 
BRANCH  13  14
ATOM      1  F   UNL     1     -12.380   8.401  18.480  0.00  0.00    -0.205 F 
ATOM     14  C   UNL     1     -13.633   6.088  21.663  0.00  0.00    -0.033 A 
ATOM     16  C   UNL     1     -12.272   6.202  21.377  0.00  0.00    +0.008 A 
ATOM     17  C   UNL     1     -14.569   6.755  20.875  0.00  0.00    +0.008 A 
ATOM     19  C   UNL     1     -11.849   6.983  20.302  0.00  0.00    +0.038 A 
ATOM     20  C   UNL     1     -14.146   7.537  19.799  0.00  0.00    +0.038 A 
ATOM     21  C   UNL     1     -12.786   7.651  19.513  0.00  0.00    +0.123 A 
ENDBRANCH  13  14
ENDBRANCH   6  13
ENDBRANCH   8   6
BRANCH  10  12
ATOM     12  C   UNL     1     -17.433   1.553  25.670  0.00  0.00    +0.138 C 
BRANCH  12   7
ATOM      5  O   UNL     1     -17.778   0.304  28.233  0.00  0.00    -0.270 OA
ATOM      7  N   UNL     1     -16.583   1.702  26.818  0.00  0.00    -0.309 N 
ATOM     15  C   UNL     1     -16.829   1.056  28.025  0.00  0.00    +0.244 C 
ATOM     29  H   UNL     1     -15.820   2.365  26.735  0.00  0.00    +0.149 HD
BRANCH  15  18
ATOM      2  F   UNL     1     -13.207   2.110  32.184  0.00  0.00    -0.205 F 
ATOM     18  C   UNL     1     -15.871   1.335  29.126  0.00  0.00    +0.037 A 
ATOM     22  C   UNL     1     -15.643   0.375  30.112  0.00  0.00    +0.016 A 
ATOM     23  C   UNL     1     -15.200   2.557  29.173  0.00  0.00    +0.016 A 
ATOM     24  C   UNL     1     -14.743   0.637  31.145  0.00  0.00    +0.039 A 
ATOM     25  C   UNL     1     -14.301   2.819  30.206  0.00  0.00    +0.039 A 
ATOM     26  C   UNL     1     -14.072   1.859  31.192  0.00  0.00    +0.123 A 
ENDBRANCH  15  18
ENDBRANCH  12   7
ENDBRANCH  10  12
TORSDOF 7
ENDMDL
MODEL 3
REMARK VINA RESULT:      -6.7      1.587      2.223
REMARK  Name = 75536640
REMARK  7 active torsions:
REMARK  status: ('A' for Active; 'I' for Inactive)
REMARK    1  A    between atoms: O_4  and  C_9
REMARK    2  A    between atoms: N_6  and  C_8
REMARK    3  A    between atoms: N_6  and  C_13
REMARK    4  A    between atoms: N_7  and  C_12
REMARK    5  A    between atoms: C_10  and  C_12
REMARK    6  A    between atoms: C_13  and  C_14
REMARK    7  A    between atoms: C_15  and  C_18
REMARK                            x       y       z     vdW  Elec       q    Type
REMARK                         _______ _______ _______ _____ _____    ______ ____
ROOT
ATOM      3  O   UNL     1      13.098   9.111  18.990  0.00  0.00    -0.371 OA
ATOM      8  C   UNL     1      14.085   6.982  19.358  0.00  0.00    +0.111 C 
ATOM      9  C   UNL     1      12.679   6.979  19.928  0.00  0.00    +0.164 C 
ATOM     10  C   UNL     1      12.052   8.140  19.168  0.00  0.00    +0.165 C 
ATOM     11  C   UNL     1      14.362   8.472  19.245  0.00  0.00    +0.181 C 
ENDROOT
BRANCH   9   4
ATOM      4  O   UNL     1      11.996   5.764  19.693  0.00  0.00    -0.388 OA
ATOM     28  H   UNL     1      11.751   5.728  18.752  0.00  0.00    +0.210 HD
ENDBRANCH   9   4
BRANCH   8   6
ATOM      6  N   UNL     1      15.054   6.289  20.192  0.00  0.00    -0.305 NA
ATOM     27  H   UNL     1      15.703   5.777  19.592  0.00  0.00    +0.123 HD
BRANCH   6  13
ATOM     13  C   UNL     1      15.810   7.228  21.012  0.00  0.00    +0.116 C 
BRANCH  13  14
ATOM      1  F   UNL     1      21.365   6.391  20.582  0.00  0.00    -0.205 F 
ATOM     14  C   UNL     1      17.294   7.005  20.897  0.00  0.00    -0.033 A 
ATOM     16  C   UNL     1      17.782   5.946  20.131  0.00  0.00    +0.008 A 
ATOM     17  C   UNL     1      18.181   7.855  21.557  0.00  0.00    +0.008 A 
ATOM     19  C   UNL     1      19.158   5.739  20.025  0.00  0.00    +0.038 A 
ATOM     20  C   UNL     1      19.556   7.648  21.451  0.00  0.00    +0.038 A 
ATOM     21  C   UNL     1      20.045   6.589  20.685  0.00  0.00    +0.123 A 
ENDBRANCH  13  14
ENDBRANCH   6  13
ENDBRANCH   8   6
BRANCH  10  12
ATOM     12  C   UNL     1      10.881   8.774  19.896  0.00  0.00    +0.138 C 
BRANCH  12   7
ATOM      5  O   UNL     1      10.720   8.448  22.745  0.00  0.00    -0.270 OA
ATOM      7  N   UNL     1      11.328   9.706  20.892  0.00  0.00    -0.309 N 
ATOM     15  C   UNL     1      11.209   9.465  22.257  0.00  0.00    +0.244 C 
ATOM     29  H   UNL     1      11.678  10.597  20.556  0.00  0.00    +0.149 HD
BRANCH  15  18
ATOM      2  F   UNL     1      13.046  13.530  25.665  0.00  0.00    -0.205 F 
ATOM     18  C   UNL     1      11.694  10.541  23.159  0.00  0.00    +0.037 A 
ATOM     22  C   UNL     1      10.845  11.075  24.127  0.00  0.00    +0.016 A 
ATOM     23  C   UNL     1      13.000  11.016  23.037  0.00  0.00    +0.016 A 
ATOM     24  C   UNL     1      11.301  12.085  24.974  0.00  0.00    +0.039 A 
ATOM     25  C   UNL     1      13.456  12.026  23.883  0.00  0.00    +0.039 A 
ATOM     26  C   UNL     1      12.607  12.561  24.852  0.00  0.00    +0.123 A 
ENDBRANCH  15  18
ENDBRANCH  12   7
ENDBRANCH  10  12
TORSDOF 7
ENDMDL
MODEL 4
REMARK VINA RESULT:      -6.6     26.686     29.789
REMARK  Name = 75536640
REMARK  7 active torsions:
REMARK  status: ('A' for Active; 'I' for Inactive)
REMARK    1  A    between atoms: O_4  and  C_9
REMARK    2  A    between atoms: N_6  and  C_8
REMARK    3  A    between atoms: N_6  and  C_13
REMARK    4  A    between atoms: N_7  and  C_12
REMARK    5  A    between atoms: C_10  and  C_12
REMARK    6  A    between atoms: C_13  and  C_14
REMARK    7  A    between atoms: C_15  and  C_18
REMARK                            x       y       z     vdW  Elec       q    Type
REMARK                         _______ _______ _______ _____ _____    ______ ____
ROOT
ATOM      3  O   UNL     1     -17.523   5.171  23.265  0.00  0.00    -0.371 OA
ATOM      8  C   UNL     1     -15.335   4.810  22.414  0.00  0.00    +0.111 C 
ATOM      9  C   UNL     1     -15.281   4.809  23.930  0.00  0.00    +0.164 C 
ATOM     10  C   UNL     1     -16.736   4.517  24.275  0.00  0.00    +0.165 C 
ATOM     11  C   UNL     1     -16.664   5.503  22.159  0.00  0.00    +0.181 C 
ENDROOT
BRANCH   9   4
ATOM      4  O   UNL     1     -14.409   3.822  24.445  0.00  0.00    -0.388 OA
ATOM     28  H   UNL     1     -14.023   4.158  25.272  0.00  0.00    +0.210 HD
ENDBRANCH   9   4
BRANCH   8   6
ATOM      6  N   UNL     1     -14.213   5.493  21.790  0.00  0.00    -0.305 NA
ATOM     27  H   UNL     1     -14.267   5.366  20.779  0.00  0.00    +0.123 HD
BRANCH   6  13
ATOM     13  C   UNL     1     -14.234   6.920  22.090  0.00  0.00    +0.116 C 
BRANCH  13  14
ATOM      1  F   UNL     1     -10.201   9.706  19.309  0.00  0.00    -0.205 F 
ATOM     14  C   UNL     1     -13.156   7.664  21.347  0.00  0.00    -0.033 A 
ATOM     16  C   UNL     1     -13.131   9.058  21.369  0.00  0.00    +0.008 A 
ATOM     17  C   UNL     1     -12.184   6.960  20.637  0.00  0.00    +0.008 A 
ATOM     19  C   UNL     1     -12.133   9.748  20.680  0.00  0.00    +0.038 A 
ATOM     20  C   UNL     1     -11.186   7.650  19.948  0.00  0.00    +0.038 A 
ATOM     21  C   UNL     1     -11.160   9.044  19.970  0.00  0.00    +0.123 A 
ENDBRANCH  13  14
ENDBRANCH   6  13
ENDBRANCH   8   6
BRANCH  10  12
ATOM     12  C   UNL     1     -17.140   5.020  25.648  0.00  0.00    +0.138 C 
BRANCH  12   7
ATOM      5  O   UNL     1     -17.965   2.715  27.149  0.00  0.00    -0.270 OA
ATOM      7  N   UNL     1     -16.398   4.363  26.685  0.00  0.00    -0.309 N 
ATOM     15  C   UNL     1     -16.878   3.246  27.363  0.00  0.00    +0.244 C 
ATOM     29  H   UNL     1     -15.522   4.794  26.960  0.00  0.00    +0.149 HD
BRANCH  15  18
ATOM      2  F   UNL     1     -13.560   1.175  31.391  0.00  0.00    -0.205 F 
ATOM     18  C   UNL     1     -16.000   2.698  28.429  0.00  0.00    +0.037 A 
ATOM     22  C   UNL     1     -15.992   1.328  28.689  0.00  0.00    +0.016 A 
ATOM     23  C   UNL     1     -15.184   3.554  29.170  0.00  0.00    +0.016 A 
ATOM     24  C   UNL     1     -15.168   0.813  29.690  0.00  0.00    +0.039 A 
ATOM     25  C   UNL     1     -14.361   3.039  30.170  0.00  0.00    +0.039 A 
ATOM     26  C   UNL     1     -14.353   1.669  30.430  0.00  0.00    +0.123 A 
ENDBRANCH  15  18
ENDBRANCH  12   7
ENDBRANCH  10  12
TORSDOF 7
ENDMDL
MODEL 5
REMARK VINA RESULT:      -6.6     27.132     29.475
REMARK  Name = 75536640
REMARK  7 active torsions:
REMARK  status: ('A' for Active; 'I' for Inactive)
REMARK    1  A    between atoms: O_4  and  C_9
REMARK    2  A    between atoms: N_6  and  C_8
REMARK    3  A    between atoms: N_6  and  C_13
REMARK    4  A    between atoms: N_7  and  C_12
REMARK    5  A    between atoms: C_10  and  C_12
REMARK    6  A    between atoms: C_13  and  C_14
REMARK    7  A    between atoms: C_15  and  C_18
REMARK                            x       y       z     vdW  Elec       q    Type
REMARK                         _______ _______ _______ _____ _____    ______ ____
ROOT
ATOM      3  O   UNL     1      -4.818 -11.293  18.718  0.00  0.00    -0.371 OA
ATOM      8  C   UNL     1      -6.952 -10.543  17.995  0.00  0.00    +0.111 C 
ATOM      9  C   UNL     1      -5.928 -10.226  16.922  0.00  0.00    +0.164 C 
ATOM     10  C   UNL     1      -4.813 -11.199  17.283  0.00  0.00    +0.165 C 
ATOM     11  C   UNL     1      -6.061 -10.761  19.207  0.00  0.00    +0.181 C 
ENDROOT
BRANCH   9   4
ATOM      4  O   UNL     1      -6.419 -10.449  15.614  0.00  0.00    -0.388 OA
ATOM     28  H   UNL     1      -7.242 -10.963  15.680  0.00  0.00    +0.210 HD
ENDBRANCH   9   4
BRANCH   8   6
ATOM      6  N   UNL     1      -7.933  -9.488  18.196  0.00  0.00    -0.305 NA
ATOM     27  H   UNL     1      -7.782  -8.757  17.500  0.00  0.00    +0.123 HD
BRANCH   6  13
ATOM     13  C   UNL     1      -9.291 -10.000  18.058  0.00  0.00    +0.116 C 
BRANCH  13  14
ATOM      1  F   UNL     1     -12.711  -6.243  15.621  0.00  0.00    -0.205 F 
ATOM     14  C   UNL     1     -10.204  -8.996  17.407  0.00  0.00    -0.033 A 
ATOM     16  C   UNL     1     -11.579  -9.229  17.366  0.00  0.00    +0.008 A 
ATOM     17  C   UNL     1      -9.677  -7.835  16.844  0.00  0.00    +0.008 A 
ATOM     19  C   UNL     1     -12.426  -8.298  16.763  0.00  0.00    +0.038 A 
ATOM     20  C   UNL     1     -10.524  -6.904  16.241  0.00  0.00    +0.038 A 
ATOM     21  C   UNL     1     -11.898  -7.137  16.200  0.00  0.00    +0.123 A 
ENDBRANCH  13  14
ENDBRANCH   6  13
ENDBRANCH   8   6
BRANCH  10  12
ATOM     12  C   UNL     1      -3.446 -10.752  16.801  0.00  0.00    +0.138 C 
BRANCH  12   7
ATOM      5  O   UNL     1      -2.900 -12.353  14.480  0.00  0.00    -0.270 OA
ATOM      7  N   UNL     1      -3.489 -10.320  15.433  0.00  0.00    -0.309 N 
ATOM     15  C   UNL     1      -3.207 -11.168  14.367  0.00  0.00    +0.244 C 
ATOM     29  H   UNL     1      -3.668  -9.335  15.273  0.00  0.00    +0.149 HD
BRANCH  15  18
ATOM      2  F   UNL     1      -3.440  -8.876   9.247  0.00  0.00    -0.205 F 
ATOM     18  C   UNL     1      -3.269 -10.562  13.012  0.00  0.00    +0.037 A 
ATOM     22  C   UNL     1      -4.503 -10.234  12.451  0.00  0.00    +0.016 A 
ATOM     23  C   UNL     1      -2.093 -10.321  12.301  0.00  0.00    +0.016 A 
ATOM     24  C   UNL     1      -4.561  -9.664  11.178  0.00  0.00    +0.039 A 
ATOM     25  C   UNL     1      -2.151  -9.752  11.029  0.00  0.00    +0.039 A 
ATOM     26  C   UNL     1      -3.385  -9.424  10.468  0.00  0.00    +0.123 A 
ENDBRANCH  15  18
ENDBRANCH  12   7
ENDBRANCH  10  12
TORSDOF 7
ENDMDL
MODEL 6
REMARK VINA RESULT:      -6.6     26.703     29.316
REMARK  Name = 75536640
REMARK  7 active torsions:
REMARK  status: ('A' for Active; 'I' for Inactive)
REMARK    1  A    between atoms: O_4  and  C_9
REMARK    2  A    between atoms: N_6  and  C_8
REMARK    3  A    between atoms: N_6  and  C_13
REMARK    4  A    between atoms: N_7  and  C_12
REMARK    5  A    between atoms: C_10  and  C_12
REMARK    6  A    between atoms: C_13  and  C_14
REMARK    7  A    between atoms: C_15  and  C_18
REMARK                            x       y       z     vdW  Elec       q    Type
REMARK                         _______ _______ _______ _____ _____    ______ ____
ROOT
ATOM      3  O   UNL     1      -8.715 -12.194  18.136  0.00  0.00    -0.371 OA
ATOM      8  C   UNL     1      -6.513 -11.309  18.061  0.00  0.00    +0.111 C 
ATOM      9  C   UNL     1      -7.347 -10.474  19.013  0.00  0.00    +0.164 C 
ATOM     10  C   UNL     1      -8.477 -11.442  19.339  0.00  0.00    +0.165 C 
ATOM     11  C   UNL     1      -7.590 -12.018  17.257  0.00  0.00    +0.181 C 
ENDROOT
BRANCH   9   4
ATOM      4  O   UNL     1      -6.633 -10.088  20.171  0.00  0.00    -0.388 OA
ATOM     28  H   UNL     1      -6.094 -10.843  20.464  0.00  0.00    +0.210 HD
ENDBRANCH   9   4
BRANCH   8   6
ATOM      6  N   UNL     1      -5.613 -10.524  17.230  0.00  0.00    -0.305 NA
ATOM     27  H   UNL     1      -5.625  -9.555  17.551  0.00  0.00    +0.123 HD
BRANCH   6  13
ATOM     13  C   UNL     1      -4.248 -11.030  17.308  0.00  0.00    +0.116 C 
BRANCH  13  14
ATOM      1  F   UNL     1      -1.408 -10.147  12.523  0.00  0.00    -0.205 F 
ATOM     14  C   UNL     1      -3.489 -10.794  16.030  0.00  0.00    -0.033 A 
ATOM     16  C   UNL     1      -4.159 -10.818  14.807  0.00  0.00    +0.008 A 
ATOM     17  C   UNL     1      -2.116 -10.552  16.068  0.00  0.00    +0.008 A 
ATOM     19  C   UNL     1      -3.456 -10.600  13.622  0.00  0.00    +0.038 A 
ATOM     20  C   UNL     1      -1.413 -10.334  14.883  0.00  0.00    +0.038 A 
ATOM     21  C   UNL     1      -2.083 -10.358  13.660  0.00  0.00    +0.123 A 
ENDBRANCH  13  14
ENDBRANCH   6  13
ENDBRANCH   8   6
BRANCH  10  12
ATOM     12  C   UNL     1      -9.755 -10.750  19.774  0.00  0.00    +0.138 C 
BRANCH  12   7
ATOM      5  O   UNL     1     -11.978 -10.648  17.960  0.00  0.00    -0.270 OA
ATOM      7  N   UNL     1     -10.091  -9.670  18.890  0.00  0.00    -0.309 N 
ATOM     15  C   UNL     1     -11.193  -9.707  18.041  0.00  0.00    +0.244 C 
ATOM     29  H   UNL     1      -9.442  -8.891  18.857  0.00  0.00    +0.149 HD
BRANCH  15  18
ATOM      2  F   UNL     1     -11.936  -5.226  14.742  0.00  0.00    -0.205 F 
ATOM     18  C   UNL     1     -11.389  -8.521  17.168  0.00  0.00    +0.037 A 
ATOM     22  C   UNL     1     -10.302  -7.715  16.831  0.00  0.00    +0.016 A 
ATOM     23  C   UNL     1     -12.661  -8.213  16.685  0.00  0.00    +0.016 A 
ATOM     24  C   UNL     1     -10.486  -6.602  16.012  0.00  0.00    +0.039 A 
ATOM     25  C   UNL     1     -12.846  -7.100  15.867  0.00  0.00    +0.039 A 
ATOM     26  C   UNL     1     -11.759  -6.294  15.530  0.00  0.00    +0.123 A 
ENDBRANCH  15  18
ENDBRANCH  12   7
ENDBRANCH  10  12
TORSDOF 7
ENDMDL
MODEL 7
REMARK VINA RESULT:      -6.5     25.180     28.207
REMARK  Name = 75536640
REMARK  7 active torsions:
REMARK  status: ('A' for Active; 'I' for Inactive)
REMARK    1  A    between atoms: O_4  and  C_9
REMARK    2  A    between atoms: N_6  and  C_8
REMARK    3  A    between atoms: N_6  and  C_13
REMARK    4  A    between atoms: N_7  and  C_12
REMARK    5  A    between atoms: C_10  and  C_12
REMARK    6  A    between atoms: C_13  and  C_14
REMARK    7  A    between atoms: C_15  and  C_18
REMARK                            x       y       z     vdW  Elec       q    Type
REMARK                         _______ _______ _______ _____ _____    ______ ____
ROOT
ATOM      3  O   UNL     1     -10.829  10.586  15.527  0.00  0.00    -0.371 OA
ATOM      8  C   UNL     1      -9.786   9.521  17.376  0.00  0.00    +0.111 C 
ATOM      9  C   UNL     1     -10.682   8.520  16.671  0.00  0.00    +0.164 C 
ATOM     10  C   UNL     1     -10.821   9.166  15.299  0.00  0.00    +0.165 C 
ATOM     11  C   UNL     1     -10.336  10.838  16.855  0.00  0.00    +0.181 C 
ENDROOT
BRANCH   9   4
ATOM      4  O   UNL     1     -10.105   7.231  16.591  0.00  0.00    -0.388 OA
ATOM     28  H   UNL     1     -10.585   6.723  15.915  0.00  0.00    +0.210 HD
ENDBRANCH   9   4
BRANCH   8   6
ATOM      6  N   UNL     1      -9.830   9.424  18.826  0.00  0.00    -0.305 NA
ATOM     27  H   UNL     1      -9.042   9.942  19.218  0.00  0.00    +0.123 HD
BRANCH   6  13
ATOM     13  C   UNL     1     -11.070   9.980  19.353  0.00  0.00    +0.116 C 
BRANCH  13  14
ATOM      1  F   UNL     1     -13.889   6.233  22.478  0.00  0.00    -0.205 F 
ATOM     14  C   UNL     1     -11.823   8.979  20.188  0.00  0.00    -0.033 A 
ATOM     16  C   UNL     1     -12.849   9.406  21.031  0.00  0.00    +0.008 A 
ATOM     17  C   UNL     1     -11.495   7.626  20.119  0.00  0.00    +0.008 A 
ATOM     19  C   UNL     1     -13.547   8.478  21.805  0.00  0.00    +0.038 A 
ATOM     20  C   UNL     1     -12.193   6.698  20.893  0.00  0.00    +0.038 A 
ATOM     21  C   UNL     1     -13.219   7.124  21.736  0.00  0.00    +0.123 A 
ENDBRANCH  13  14
ENDBRANCH   6  13
ENDBRANCH   8   6
BRANCH  10  12
ATOM     12  C   UNL     1     -12.085   8.756  14.567  0.00  0.00    +0.138 C 
BRANCH  12   7
ATOM      5  O   UNL     1     -14.599   9.897  15.355  0.00  0.00    -0.270 OA
ATOM      7  N   UNL     1     -13.045   8.178  15.465  0.00  0.00    -0.309 N 
ATOM     15  C   UNL     1     -14.243   8.806  15.792  0.00  0.00    +0.244 C 
ATOM     29  H   UNL     1     -12.780   7.309  15.915  0.00  0.00    +0.149 HD
BRANCH  15  18
ATOM      2  F   UNL     1     -17.547   6.101  19.437  0.00  0.00    -0.205 F 
ATOM     18  C   UNL     1     -15.117   8.090  16.756  0.00  0.00    +0.037 A 
ATOM     22  C   UNL     1     -14.809   8.100  18.117  0.00  0.00    +0.016 A 
ATOM     23  C   UNL     1     -16.246   7.408  16.302  0.00  0.00    +0.016 A 
ATOM     24  C   UNL     1     -15.630   7.427  19.023  0.00  0.00    +0.039 A 
ATOM     25  C   UNL     1     -17.066   6.736  17.207  0.00  0.00    +0.039 A 
ATOM     26  C   UNL     1     -16.758   6.746  18.567  0.00  0.00    +0.123 A 
ENDBRANCH  15  18
ENDBRANCH  12   7
ENDBRANCH  10  12
TORSDOF 7
ENDMDL
MODEL 8
REMARK VINA RESULT:      -6.5     27.148     28.874
REMARK  Name = 75536640
REMARK  7 active torsions:
REMARK  status: ('A' for Active; 'I' for Inactive)
REMARK    1  A    between atoms: O_4  and  C_9
REMARK    2  A    between atoms: N_6  and  C_8
REMARK    3  A    between atoms: N_6  and  C_13
REMARK    4  A    between atoms: N_7  and  C_12
REMARK    5  A    between atoms: C_10  and  C_12
REMARK    6  A    between atoms: C_13  and  C_14
REMARK    7  A    between atoms: C_15  and  C_18
REMARK                            x       y       z     vdW  Elec       q    Type
REMARK                         _______ _______ _______ _____ _____    ______ ____
ROOT
ATOM      3  O   UNL     1      -5.182 -11.613  15.787  0.00  0.00    -0.371 OA
ATOM      8  C   UNL     1      -3.128 -11.156  14.686  0.00  0.00    +0.111 C 
ATOM      9  C   UNL     1      -3.000 -10.771  16.148  0.00  0.00    +0.164 C 
ATOM     10  C   UNL     1      -4.128 -11.588  16.765  0.00  0.00    +0.165 C 
ATOM     11  C   UNL     1      -4.638 -11.208  14.518  0.00  0.00    +0.181 C 
ENDROOT
BRANCH   9   4
ATOM      4  O   UNL     1      -1.742 -11.113  16.695  0.00  0.00    -0.388 OA
ATOM     28  H   UNL     1      -1.853 -11.257  17.650  0.00  0.00    +0.210 HD
ENDBRANCH   9   4
BRANCH   8   6
ATOM      6  N   UNL     1      -2.491 -10.216  13.777  0.00  0.00    -0.305 NA
ATOM     27  H   UNL     1      -1.748  -9.724  14.275  0.00  0.00    +0.123 HD
BRANCH   6  13
ATOM     13  C   UNL     1      -1.915 -10.904  12.628  0.00  0.00    +0.116 C 
BRANCH  13  14
ATOM      1  F   UNL     1      -4.998 -10.151   7.972  0.00  0.00    -0.205 F 
ATOM     14  C   UNL     1      -2.738 -10.702  11.384  0.00  0.00    -0.033 A 
ATOM     16  C   UNL     1      -3.421 -11.779  10.819  0.00  0.00    +0.008 A 
ATOM     17  C   UNL     1      -2.818  -9.440  10.797  0.00  0.00    +0.008 A 
ATOM     19  C   UNL     1      -4.185 -11.592   9.666  0.00  0.00    +0.038 A 
ATOM     20  C   UNL     1      -3.581  -9.254   9.644  0.00  0.00    +0.038 A 
ATOM     21  C   UNL     1      -4.264 -10.330   9.078  0.00  0.00    +0.123 A 
ENDBRANCH  13  14
ENDBRANCH   6  13
ENDBRANCH   8   6
BRANCH  10  12
ATOM     12  C   UNL     1      -4.649 -11.006  18.066  0.00  0.00    +0.138 C 
BRANCH  12   7
ATOM      5  O   UNL     1      -6.786 -11.371  19.949  0.00  0.00    -0.270 OA
ATOM      7  N   UNL     1      -6.000 -10.543  17.928  0.00  0.00    -0.309 N 
ATOM     15  C   UNL     1      -6.975 -10.767  18.896  0.00  0.00    +0.244 C 
ATOM     29  H   UNL     1      -6.241 -10.098  17.050  0.00  0.00    +0.149 HD
BRANCH  15  18
ATOM      2  F   UNL     1     -12.107  -8.801  17.747  0.00  0.00    -0.205 F 
ATOM     18  C   UNL     1      -8.333 -10.247  18.592  0.00  0.00    +0.037 A 
ATOM     22  C   UNL     1      -9.430 -10.687  19.332  0.00  0.00    +0.016 A 
ATOM     23  C   UNL     1      -8.511  -9.319  17.566  0.00  0.00    +0.016 A 
ATOM     24  C   UNL     1     -10.705 -10.199  19.047  0.00  0.00    +0.039 A 
ATOM     25  C   UNL     1      -9.786  -8.831  17.280  0.00  0.00    +0.039 A 
ATOM     26  C   UNL     1     -10.883  -9.271  18.021  0.00  0.00    +0.123 A 
ENDBRANCH  15  18
ENDBRANCH  12   7
ENDBRANCH  10  12
TORSDOF 7
ENDMDL
MODEL 9
REMARK VINA RESULT:      -6.4     26.570     29.824
REMARK  Name = 75536640
REMARK  7 active torsions:
REMARK  status: ('A' for Active; 'I' for Inactive)
REMARK    1  A    between atoms: O_4  and  C_9
REMARK    2  A    between atoms: N_6  and  C_8
REMARK    3  A    between atoms: N_6  and  C_13
REMARK    4  A    between atoms: N_7  and  C_12
REMARK    5  A    between atoms: C_10  and  C_12
REMARK    6  A    between atoms: C_13  and  C_14
REMARK    7  A    between atoms: C_15  and  C_18
REMARK                            x       y       z     vdW  Elec       q    Type
REMARK                         _______ _______ _______ _____ _____    ______ ____
ROOT
ATOM      3  O   UNL     1      -8.300 -11.606  19.804  0.00  0.00    -0.371 OA
ATOM      8  C   UNL     1      -9.813 -10.290  18.532  0.00  0.00    +0.111 C 
ATOM      9  C   UNL     1      -8.394  -9.912  18.155  0.00  0.00    +0.164 C 
ATOM     10  C   UNL     1      -7.629 -11.145  18.619  0.00  0.00    +0.165 C 
ATOM     11  C   UNL     1      -9.597 -10.986  19.866  0.00  0.00    +0.181 C 
ENDROOT
BRANCH   9   4
ATOM      4  O   UNL     1      -8.238  -9.686  16.767  0.00  0.00    -0.388 OA
ATOM     28  H   UNL     1      -7.379 -10.051  16.493  0.00  0.00    +0.210 HD
ENDBRANCH   9   4
BRANCH   8   6
ATOM      6  N   UNL     1     -10.715  -9.153  18.628  0.00  0.00    -0.305 NA
ATOM     27  H   UNL     1     -10.198  -8.300  18.410  0.00  0.00    +0.123 HD
BRANCH   6  13
ATOM     13  C   UNL     1     -11.827  -9.284  17.694  0.00  0.00    +0.116 C 
BRANCH  13  14
ATOM      1  F   UNL     1     -12.215  -4.835  14.257  0.00  0.00    -0.205 F 
ATOM     14  C   UNL     1     -11.931  -8.095  16.776  0.00  0.00    -0.033 A 
ATOM     16  C   UNL     1     -13.094  -7.886  16.036  0.00  0.00    +0.008 A 
ATOM     17  C   UNL     1     -10.863  -7.204  16.665  0.00  0.00    +0.008 A 
ATOM     19  C   UNL     1     -13.190  -6.784  15.185  0.00  0.00    +0.038 A 
ATOM     20  C   UNL     1     -10.959  -6.103  15.814  0.00  0.00    +0.038 A 
ATOM     21  C   UNL     1     -12.123  -5.893  15.073  0.00  0.00    +0.123 A 
ENDBRANCH  13  14
ENDBRANCH   6  13
ENDBRANCH   8   6
BRANCH  10  12
ATOM     12  C   UNL     1      -6.170 -10.865  18.930  0.00  0.00    +0.138 C 
BRANCH  12   7
ATOM      5  O   UNL     1      -3.485 -11.777  18.481  0.00  0.00    -0.270 OA
ATOM      7  N   UNL     1      -5.401 -10.705  17.729  0.00  0.00    -0.309 N 
ATOM     15  C   UNL     1      -4.099 -11.181  17.600  0.00  0.00    +0.244 C 
ATOM     29  H   UNL     1      -5.825 -10.160  16.987  0.00  0.00    +0.149 HD
BRANCH  15  18
ATOM      2  F   UNL     1      -1.562 -10.163  12.696  0.00  0.00    -0.205 F 
ATOM     18  C   UNL     1      -3.428 -10.912  16.302  0.00  0.00    +0.037 A 
ATOM     22  C   UNL     1      -4.160 -10.960  15.116  0.00  0.00    +0.016 A 
ATOM     23  C   UNL     1      -2.066 -10.611  16.270  0.00  0.00    +0.016 A 
ATOM     24  C   UNL     1      -3.529 -10.707  13.897  0.00  0.00    +0.039 A 
ATOM     25  C   UNL     1      -1.436 -10.359  15.053  0.00  0.00    +0.039 A 
ATOM     26  C   UNL     1      -2.168 -10.407  13.866  0.00  0.00    +0.123 A 
ENDBRANCH  15  18
ENDBRANCH  12   7
ENDBRANCH  10  12
TORSDOF 7
ENDMDL
MODEL 10
REMARK VINA RESULT:      -6.3      1.936      2.621
REMARK  Name = 75536640
REMARK  7 active torsions:
REMARK  status: ('A' for Active; 'I' for Inactive)
REMARK    1  A    between atoms: O_4  and  C_9
REMARK    2  A    between atoms: N_6  and  C_8
REMARK    3  A    between atoms: N_6  and  C_13
REMARK    4  A    between atoms: N_7  and  C_12
REMARK    5  A    between atoms: C_10  and  C_12
REMARK    6  A    between atoms: C_13  and  C_14
REMARK    7  A    between atoms: C_15  and  C_18
REMARK                            x       y       z     vdW  Elec       q    Type
REMARK                         _______ _______ _______ _____ _____    ______ ____
ROOT
ATOM      3  O   UNL     1      12.920  10.259  22.069  0.00  0.00    -0.371 OA
ATOM      8  C   UNL     1      13.043   8.291  20.745  0.00  0.00    +0.111 C 
ATOM      9  C   UNL     1      11.784   8.239  21.590  0.00  0.00    +0.164 C 
ATOM     10  C   UNL     1      11.597   9.713  21.928  0.00  0.00    +0.165 C 
ATOM     11  C   UNL     1      13.859   9.340  21.483  0.00  0.00    +0.181 C 
ENDROOT
BRANCH   9   4
ATOM      4  O   UNL     1      10.675   7.715  20.887  0.00  0.00    -0.388 OA
ATOM     28  H   UNL     1      10.934   6.862  20.500  0.00  0.00    +0.210 HD
ENDBRANCH   9   4
BRANCH   8   6
ATOM      6  N   UNL     1      13.729   7.013  20.640  0.00  0.00    -0.305 NA
ATOM     27  H   UNL     1      13.035   6.265  20.608  0.00  0.00    +0.123 HD
BRANCH   6  13
ATOM     13  C   UNL     1      14.546   6.952  19.435  0.00  0.00    +0.116 C 
BRANCH  13  14
ATOM      1  F   UNL     1      19.907   5.661  20.596  0.00  0.00    -0.205 F 
ATOM     14  C   UNL     1      15.978   6.607  19.745  0.00  0.00    -0.033 A 
ATOM     16  C   UNL     1      16.743   5.904  18.814  0.00  0.00    +0.008 A 
ATOM     17  C   UNL     1      16.540   6.989  20.963  0.00  0.00    +0.008 A 
ATOM     19  C   UNL     1      18.070   5.585  19.102  0.00  0.00    +0.038 A 
ATOM     20  C   UNL     1      17.867   6.670  21.251  0.00  0.00    +0.038 A 
ATOM     21  C   UNL     1      18.632   5.967  20.320  0.00  0.00    +0.123 A 
ENDBRANCH  13  14
ENDBRANCH   6  13
ENDBRANCH   8   6
BRANCH  10  12
ATOM     12  C   UNL     1      10.809   9.941  23.204  0.00  0.00    +0.138 C 
BRANCH  12   7
ATOM      5  O   UNL     1       9.870  12.478  24.166  0.00  0.00    -0.270 OA
ATOM      7  N   UNL     1      11.500  10.828  24.095  0.00  0.00    -0.309 N 
ATOM     15  C   UNL     1      10.967  12.045  24.510  0.00  0.00    +0.244 C 
ATOM     29  H   UNL     1      12.442  10.562  24.361  0.00  0.00    +0.149 HD
BRANCH  15  18
ATOM      2  F   UNL     1      14.188  15.130  27.920  0.00  0.00    -0.205 F 
ATOM     18  C   UNL     1      11.819  12.862  25.412  0.00  0.00    +0.037 A 
ATOM     22  C   UNL     1      11.326  14.049  25.952  0.00  0.00    +0.016 A 
ATOM     23  C   UNL     1      13.114  12.441  25.719  0.00  0.00    +0.016 A 
ATOM     24  C   UNL     1      12.126  14.816  26.799  0.00  0.00    +0.039 A 
ATOM     25  C   UNL     1      13.914  13.207  26.565  0.00  0.00    +0.039 A 
ATOM     26  C   UNL     1      13.420  14.395  27.105  0.00  0.00    +0.123 A 
ENDBRANCH  15  18
ENDBRANCH  12   7
ENDBRANCH  10  12
TORSDOF 7
ENDMDL
