MODEL 1
REMARK VINA RESULT:      -8.0      0.000      0.000
REMARK  Name = 40777671
REMARK  8 active torsions:
REMARK  status: ('A' for Active; 'I' for Inactive)
REMARK    1  A    between atoms: S_1  and  N_8
REMARK    2  A    between atoms: S_1  and  C_22
REMARK    3  A    between atoms: N_8  and  C_13
REMARK    4  A    between atoms: N_9  and  C_21
REMARK    5  A    between atoms: C_11  and  C_14
REMARK    6  A    between atoms: C_17  and  C_19
REMARK    7  A    between atoms: C_18  and  C_20
REMARK    8  A    between atoms: C_28  and  C_31
REMARK                            x       y       z     vdW  Elec       q    Type
REMARK                         _______ _______ _______ _____ _____    ______ ____
ROOT
ATOM      9  N   UNL     1      20.280   6.359  21.007  0.00  0.00    -0.236 N 
ATOM     10  N   UNL     1      20.461   7.497  21.699  0.00  0.00    -0.171 NA
ATOM     14  C   UNL     1      18.355   7.376  20.826  0.00  0.00    +0.003 A 
ATOM     17  C   UNL     1      19.035   6.239  20.463  0.00  0.00    +0.046 A 
ATOM     18  C   UNL     1      19.282   8.114  21.585  0.00  0.00    +0.064 A 
ATOM     19  C   UNL     1      18.610   5.074  19.660  0.00  0.00    +0.066 C 
ATOM     20  C   UNL     1      19.085   9.425  22.227  0.00  0.00    +0.068 C 
ENDROOT
BRANCH   9  21
ATOM     21  C   UNL     1      21.322   5.439  20.903  0.00  0.00    +0.066 A 
ATOM     23  C   UNL     1      22.532   5.817  20.322  0.00  0.00    +0.028 A 
ATOM     24  C   UNL     1      21.152   4.137  21.377  0.00  0.00    +0.028 A 
ATOM     26  C   UNL     1      23.573   4.894  20.216  0.00  0.00    +0.014 A 
ATOM     27  C   UNL     1      22.193   3.215  21.269  0.00  0.00    +0.014 A 
ATOM     28  C   UNL     1      23.403   3.593  20.689  0.00  0.00    +0.055 A 
BRANCH  28  31
ATOM      3  F   UNL     1      25.105   2.621  19.343  0.00  0.00    -0.166 F 
ATOM      4  F   UNL     1      25.529   2.818  21.467  0.00  0.00    -0.166 F 
ATOM      5  F   UNL     1      24.124   1.315  20.777  0.00  0.00    -0.166 F 
ATOM     31  C   UNL     1      24.516   2.607  20.573  0.00  0.00    +0.417 C 
ENDBRANCH  28  31
ENDBRANCH   9  21
BRANCH  14  11
ATOM     11  C   UNL     1      16.931   7.750  20.482  0.00  0.00    +0.047 C 
ATOM     12  C   UNL     1      16.288   6.812  19.439  0.00  0.00    +0.037 C 
ATOM     13  C   UNL     1      14.811   6.694  19.834  0.00  0.00    +0.100 C 
ATOM     15  C   UNL     1      15.968   7.667  21.631  0.00  0.00    -0.021 C 
ATOM     16  C   UNL     1      14.813   7.097  21.271  0.00  0.00    -0.010 C 
BRANCH  13   8
ATOM      8  N   UNL     1      13.988   7.650  19.065  0.00  0.00    -0.183 NA
ATOM     32  H   UNL     1      14.431   8.018  18.212  0.00  0.00    +0.149 HD
BRANCH   8   1
ATOM      1  S   UNL     1      12.293   7.514  19.073  0.00  0.00    +0.065 S 
ATOM      6  O   UNL     1      11.919   6.189  19.529  0.00  0.00    -0.153 OA
ATOM      7  O   UNL     1      11.774   8.028  17.820  0.00  0.00    -0.153 OA
BRANCH   1  22
ATOM      2  S   UNL     1      10.841   8.033  21.566  0.00  0.00    -0.077 S 
ATOM     22  C   UNL     1      11.842   8.672  20.331  0.00  0.00    +0.142 A 
ATOM     25  C   UNL     1      12.130  10.003  20.536  0.00  0.00    +0.036 A 
ATOM     29  C   UNL     1      11.520  10.507  21.721  0.00  0.00    +0.010 A 
ATOM     30  C   UNL     1      10.790   9.541  22.377  0.00  0.00    +0.047 A 
ENDBRANCH   1  22
ENDBRANCH   8   1
ENDBRANCH  13   8
ENDBRANCH  14  11
TORSDOF 6
ENDMDL
MODEL 2
REMARK VINA RESULT:      -7.8      7.096     10.677
REMARK  Name = 40777671
REMARK  8 active torsions:
REMARK  status: ('A' for Active; 'I' for Inactive)
REMARK    1  A    between atoms: S_1  and  N_8
REMARK    2  A    between atoms: S_1  and  C_22
REMARK    3  A    between atoms: N_8  and  C_13
REMARK    4  A    between atoms: N_9  and  C_21
REMARK    5  A    between atoms: C_11  and  C_14
REMARK    6  A    between atoms: C_17  and  C_19
REMARK    7  A    between atoms: C_18  and  C_20
REMARK    8  A    between atoms: C_28  and  C_31
REMARK                            x       y       z     vdW  Elec       q    Type
REMARK                         _______ _______ _______ _____ _____    ______ ____
ROOT
ATOM      9  N   UNL     1      17.305   6.993  20.609  0.00  0.00    -0.236 N 
ATOM     10  N   UNL     1      17.946   7.477  21.687  0.00  0.00    -0.171 NA
ATOM     14  C   UNL     1      19.256   6.015  20.520  0.00  0.00    +0.003 A 
ATOM     17  C   UNL     1      18.047   6.113  19.877  0.00  0.00    +0.046 A 
ATOM     18  C   UNL     1      19.137   6.875  21.628  0.00  0.00    +0.064 A 
ATOM     19  C   UNL     1      17.548   5.454  18.652  0.00  0.00    +0.066 C 
ATOM     20  C   UNL     1      20.144   7.158  22.666  0.00  0.00    +0.068 C 
ENDROOT
BRANCH   9  21
ATOM     21  C   UNL     1      16.002   7.406  20.335  0.00  0.00    +0.066 A 
ATOM     23  C   UNL     1      14.925   6.586  20.671  0.00  0.00    +0.028 A 
ATOM     24  C   UNL     1      15.775   8.639  19.722  0.00  0.00    +0.028 A 
ATOM     26  C   UNL     1      13.622   6.999  20.394  0.00  0.00    +0.014 A 
ATOM     27  C   UNL     1      14.472   9.050  19.445  0.00  0.00    +0.014 A 
ATOM     28  C   UNL     1      13.394   8.231  19.781  0.00  0.00    +0.055 A 
BRANCH  28  31
ATOM      3  F   UNL     1      11.711   9.893  20.017  0.00  0.00    -0.166 F 
ATOM      4  F   UNL     1      11.733   8.779  18.149  0.00  0.00    -0.166 F 
ATOM      5  F   UNL     1      11.046   7.823  19.971  0.00  0.00    -0.166 F 
ATOM     31  C   UNL     1      12.001   8.670  19.484  0.00  0.00    +0.417 C 
ENDBRANCH  28  31
ENDBRANCH   9  21
BRANCH  14  11
ATOM     11  C   UNL     1      20.446   5.169  20.127  0.00  0.00    +0.047 C 
ATOM     12  C   UNL     1      21.801   5.827  20.464  0.00  0.00    +0.037 C 
ATOM     13  C   UNL     1      22.735   4.681  20.867  0.00  0.00    +0.100 C 
ATOM     15  C   UNL     1      20.539   3.851  20.839  0.00  0.00    -0.021 C 
ATOM     16  C   UNL     1      21.789   3.587  21.234  0.00  0.00    -0.010 C 
BRANCH  13   8
ATOM      8  N   UNL     1      23.554   4.246  19.715  0.00  0.00    -0.183 NA
ATOM     32  H   UNL     1      23.276   4.646  18.808  0.00  0.00    +0.149 HD
BRANCH   8   1
ATOM      1  S   UNL     1      25.195   3.860  19.934  0.00  0.00    +0.065 S 
ATOM      6  O   UNL     1      25.891   5.008  20.483  0.00  0.00    -0.153 OA
ATOM      7  O   UNL     1      25.690   3.213  18.733  0.00  0.00    -0.153 OA
BRANCH   1  22
ATOM      2  S   UNL     1      25.746   3.096  22.710  0.00  0.00    -0.077 S 
ATOM     22  C   UNL     1      25.112   2.620  21.191  0.00  0.00    +0.142 A 
ATOM     25  C   UNL     1      24.636   1.328  21.212  0.00  0.00    +0.036 A 
ATOM     29  C   UNL     1      24.795   0.719  22.490  0.00  0.00    +0.010 A 
ATOM     30  C   UNL     1      25.386   1.570  23.398  0.00  0.00    +0.047 A 
ENDBRANCH   1  22
ENDBRANCH   8   1
ENDBRANCH  13   8
ENDBRANCH  14  11
TORSDOF 6
ENDMDL
MODEL 3
REMARK VINA RESULT:      -7.4     28.813     31.092
REMARK  Name = 40777671
REMARK  8 active torsions:
REMARK  status: ('A' for Active; 'I' for Inactive)
REMARK    1  A    between atoms: S_1  and  N_8
REMARK    2  A    between atoms: S_1  and  C_22
REMARK    3  A    between atoms: N_8  and  C_13
REMARK    4  A    between atoms: N_9  and  C_21
REMARK    5  A    between atoms: C_11  and  C_14
REMARK    6  A    between atoms: C_17  and  C_19
REMARK    7  A    between atoms: C_18  and  C_20
REMARK    8  A    between atoms: C_28  and  C_31
REMARK                            x       y       z     vdW  Elec       q    Type
REMARK                         _______ _______ _______ _____ _____    ______ ____
ROOT
ATOM      9  N   UNL     1      -4.454 -10.654  14.154  0.00  0.00    -0.236 N 
ATOM     10  N   UNL     1      -3.153 -10.901  13.925  0.00  0.00    -0.171 NA
ATOM     14  C   UNL     1      -4.196 -10.107  12.055  0.00  0.00    +0.003 A 
ATOM     17  C   UNL     1      -5.123 -10.177  13.065  0.00  0.00    +0.046 A 
ATOM     18  C   UNL     1      -3.001 -10.565  12.641  0.00  0.00    +0.064 A 
ATOM     19  C   UNL     1      -6.561  -9.838  13.082  0.00  0.00    +0.066 C 
ATOM     20  C   UNL     1      -1.677 -10.701  12.008  0.00  0.00    +0.068 C 
ENDROOT
BRANCH   9  21
ATOM     21  C   UNL     1      -4.991 -10.890  15.419  0.00  0.00    +0.066 A 
ATOM     23  C   UNL     1      -5.604 -12.111  15.700  0.00  0.00    +0.028 A 
ATOM     24  C   UNL     1      -4.919  -9.903  16.403  0.00  0.00    +0.028 A 
ATOM     26  C   UNL     1      -6.144 -12.345  16.965  0.00  0.00    +0.014 A 
ATOM     27  C   UNL     1      -5.460 -10.138  17.667  0.00  0.00    +0.014 A 
ATOM     28  C   UNL     1      -6.073 -11.359  17.948  0.00  0.00    +0.055 A 
BRANCH  28  31
ATOM      3  F   UNL     1      -7.145 -12.875  19.433  0.00  0.00    -0.166 F 
ATOM      4  F   UNL     1      -5.752 -11.458  20.317  0.00  0.00    -0.166 F 
ATOM      5  F   UNL     1      -7.688 -10.777  19.613  0.00  0.00    -0.166 F 
ATOM     31  C   UNL     1      -6.651 -11.610  19.299  0.00  0.00    +0.417 C 
ENDBRANCH  28  31
ENDBRANCH   9  21
BRANCH  14  11
ATOM     11  C   UNL     1      -4.413  -9.645  10.632  0.00  0.00    +0.047 C 
ATOM     12  C   UNL     1      -5.478 -10.468   9.878  0.00  0.00    +0.037 C 
ATOM     13  C   UNL     1      -6.202  -9.477   8.960  0.00  0.00    +0.100 C 
ATOM     15  C   UNL     1      -4.933  -8.243  10.503  0.00  0.00    -0.021 C 
ATOM     16  C   UNL     1      -5.903  -8.156   9.586  0.00  0.00    -0.010 C 
BRANCH  13   8
ATOM      8  N   UNL     1      -5.623  -9.508   7.599  0.00  0.00    -0.183 NA
ATOM     32  H   UNL     1      -4.631  -9.779   7.555  0.00  0.00    +0.149 HD
BRANCH   8   1
ATOM      1  S   UNL     1      -6.603  -9.896   6.266  0.00  0.00    +0.065 S 
ATOM      6  O   UNL     1      -6.750  -8.726   5.420  0.00  0.00    -0.153 OA
ATOM      7  O   UNL     1      -7.777 -10.608   6.736  0.00  0.00    -0.153 OA
BRANCH   1  22
ATOM      2  S   UNL     1      -6.236 -11.591   3.903  0.00  0.00    -0.077 S 
ATOM     22  C   UNL     1      -5.599 -11.069   5.405  0.00  0.00    +0.142 A 
ATOM     25  C   UNL     1      -4.389 -11.662   5.688  0.00  0.00    +0.036 A 
ATOM     29  C   UNL     1      -3.980 -12.560   4.660  0.00  0.00    +0.010 A 
ATOM     30  C   UNL     1      -4.892 -12.617   3.630  0.00  0.00    +0.047 A 
ENDBRANCH   1  22
ENDBRANCH   8   1
ENDBRANCH  13   8
ENDBRANCH  14  11
TORSDOF 6
ENDMDL
MODEL 4
REMARK VINA RESULT:      -7.4     28.701     31.055
REMARK  Name = 40777671
REMARK  8 active torsions:
REMARK  status: ('A' for Active; 'I' for Inactive)
REMARK    1  A    between atoms: S_1  and  N_8
REMARK    2  A    between atoms: S_1  and  C_22
REMARK    3  A    between atoms: N_8  and  C_13
REMARK    4  A    between atoms: N_9  and  C_21
REMARK    5  A    between atoms: C_11  and  C_14
REMARK    6  A    between atoms: C_17  and  C_19
REMARK    7  A    between atoms: C_18  and  C_20
REMARK    8  A    between atoms: C_28  and  C_31
REMARK                            x       y       z     vdW  Elec       q    Type
REMARK                         _______ _______ _______ _____ _____    ______ ____
ROOT
ATOM      9  N   UNL     1      -4.436 -10.587  14.154  0.00  0.00    -0.236 N 
ATOM     10  N   UNL     1      -3.117 -10.763  13.963  0.00  0.00    -0.171 NA
ATOM     14  C   UNL     1      -4.151 -10.060  12.053  0.00  0.00    +0.003 A 
ATOM     17  C   UNL     1      -5.100 -10.166  13.040  0.00  0.00    +0.046 A 
ATOM     18  C   UNL     1      -2.949 -10.441  12.678  0.00  0.00    +0.064 A 
ATOM     19  C   UNL     1      -6.555  -9.908  13.013  0.00  0.00    +0.066 C 
ATOM     20  C   UNL     1      -1.603 -10.512  12.084  0.00  0.00    +0.068 C 
ENDROOT
BRANCH   9  21
ATOM     21  C   UNL     1      -4.993 -10.833  15.408  0.00  0.00    +0.066 A 
ATOM     23  C   UNL     1      -5.267  -9.772  16.271  0.00  0.00    +0.028 A 
ATOM     24  C   UNL     1      -5.274 -12.142  15.802  0.00  0.00    +0.028 A 
ATOM     26  C   UNL     1      -5.821 -10.019  17.526  0.00  0.00    +0.014 A 
ATOM     27  C   UNL     1      -5.827 -12.388  17.058  0.00  0.00    +0.014 A 
ATOM     28  C   UNL     1      -6.101 -11.328  17.921  0.00  0.00    +0.055 A 
BRANCH  28  31
ATOM      3  F   UNL     1      -7.224 -12.844  19.368  0.00  0.00    -0.166 F 
ATOM      4  F   UNL     1      -5.795 -11.487  20.288  0.00  0.00    -0.166 F 
ATOM      5  F   UNL     1      -7.708 -10.736  19.591  0.00  0.00    -0.166 F 
ATOM     31  C   UNL     1      -6.693 -11.591  19.264  0.00  0.00    +0.417 C 
ENDBRANCH  28  31
ENDBRANCH   9  21
BRANCH  14  11
ATOM     11  C   UNL     1      -4.354  -9.633  10.618  0.00  0.00    +0.047 C 
ATOM     12  C   UNL     1      -5.286 -10.575   9.826  0.00  0.00    +0.037 C 
ATOM     13  C   UNL     1      -6.074  -9.677   8.866  0.00  0.00    +0.100 C 
ATOM     15  C   UNL     1      -5.023  -8.299  10.450  0.00  0.00    -0.021 C 
ATOM     16  C   UNL     1      -5.955  -8.328   9.491  0.00  0.00    -0.010 C 
BRANCH  13   8
ATOM      8  N   UNL     1      -5.435  -9.651   7.533  0.00  0.00    -0.183 NA
ATOM     32  H   UNL     1      -4.464  -9.311   7.523  0.00  0.00    +0.149 HD
BRANCH   8   1
ATOM      1  S   UNL     1      -5.880 -10.791   6.354  0.00  0.00    +0.065 S 
ATOM      6  O   UNL     1      -6.789 -11.759   6.937  0.00  0.00    -0.153 OA
ATOM      7  O   UNL     1      -4.687 -11.238   5.658  0.00  0.00    -0.153 OA
BRANCH   1  22
ATOM      2  S   UNL     1      -7.388 -10.639   3.844  0.00  0.00    -0.077 S 
ATOM     22  C   UNL     1      -6.798  -9.798   5.216  0.00  0.00    +0.142 A 
ATOM     25  C   UNL     1      -7.149  -8.467   5.196  0.00  0.00    +0.036 A 
ATOM     29  C   UNL     1      -7.911  -8.131   4.040  0.00  0.00    +0.010 A 
ATOM     30  C   UNL     1      -8.114  -9.219   3.220  0.00  0.00    +0.047 A 
ENDBRANCH   1  22
ENDBRANCH   8   1
ENDBRANCH  13   8
ENDBRANCH  14  11
TORSDOF 6
ENDMDL
MODEL 5
REMARK VINA RESULT:      -7.3      6.852     10.457
REMARK  Name = 40777671
REMARK  8 active torsions:
REMARK  status: ('A' for Active; 'I' for Inactive)
REMARK    1  A    between atoms: S_1  and  N_8
REMARK    2  A    between atoms: S_1  and  C_22
REMARK    3  A    between atoms: N_8  and  C_13
REMARK    4  A    between atoms: N_9  and  C_21
REMARK    5  A    between atoms: C_11  and  C_14
REMARK    6  A    between atoms: C_17  and  C_19
REMARK    7  A    between atoms: C_18  and  C_20
REMARK    8  A    between atoms: C_28  and  C_31
REMARK                            x       y       z     vdW  Elec       q    Type
REMARK                         _______ _______ _______ _____ _____    ______ ____
ROOT
ATOM      9  N   UNL     1      17.043   8.831  21.365  0.00  0.00    -0.236 N 
ATOM     10  N   UNL     1      17.611  10.003  21.699  0.00  0.00    -0.171 NA
ATOM     14  C   UNL     1      19.148   8.316  21.641  0.00  0.00    +0.003 A 
ATOM     17  C   UNL     1      17.922   7.789  21.317  0.00  0.00    +0.046 A 
ATOM     18  C   UNL     1      18.896   9.682  21.867  0.00  0.00    +0.064 A 
ATOM     19  C   UNL     1      17.524   6.408  20.973  0.00  0.00    +0.066 C 
ATOM     20  C   UNL     1      19.861  10.728  22.248  0.00  0.00    +0.068 C 
ENDROOT
BRANCH   9  21
ATOM     21  C   UNL     1      15.674   8.773  21.106  0.00  0.00    +0.066 A 
ATOM     23  C   UNL     1      14.772   8.615  22.158  0.00  0.00    +0.028 A 
ATOM     24  C   UNL     1      15.207   8.871  19.795  0.00  0.00    +0.028 A 
ATOM     26  C   UNL     1      13.402   8.554  21.898  0.00  0.00    +0.014 A 
ATOM     27  C   UNL     1      13.839   8.809  19.536  0.00  0.00    +0.014 A 
ATOM     28  C   UNL     1      12.935   8.651  20.587  0.00  0.00    +0.055 A 
BRANCH  28  31
ATOM      3  F   UNL     1      10.754   9.463  21.068  0.00  0.00    -0.166 F 
ATOM      4  F   UNL     1      11.146   8.868  19.014  0.00  0.00    -0.166 F 
ATOM      5  F   UNL     1      10.924   7.357  20.554  0.00  0.00    -0.166 F 
ATOM     31  C   UNL     1      11.472   8.585  20.310  0.00  0.00    +0.417 C 
ENDBRANCH  28  31
ENDBRANCH   9  21
BRANCH  14  11
ATOM     11  C   UNL     1      20.470   7.588  21.736  0.00  0.00    +0.047 C 
ATOM     12  C   UNL     1      20.478   6.475  22.805  0.00  0.00    +0.037 C 
ATOM     13  C   UNL     1      21.357   5.355  22.238  0.00  0.00    +0.100 C 
ATOM     15  C   UNL     1      20.868   6.848  20.493  0.00  0.00    -0.021 C 
ATOM     16  C   UNL     1      21.356   5.634  20.772  0.00  0.00    -0.010 C 
BRANCH  13   8
ATOM      8  N   UNL     1      22.740   5.467  22.750  0.00  0.00    -0.183 NA
ATOM     32  H   UNL     1      23.092   6.429  22.845  0.00  0.00    +0.149 HD
BRANCH   8   1
ATOM      1  S   UNL     1      23.346   4.299  23.825  0.00  0.00    +0.065 S 
ATOM      6  O   UNL     1      22.265   3.798  24.653  0.00  0.00    -0.153 OA
ATOM      7  O   UNL     1      24.559   4.809  24.439  0.00  0.00    -0.153 OA
BRANCH   1  22
ATOM      2  S   UNL     1      24.623   1.684  23.471  0.00  0.00    -0.077 S 
ATOM     22  C   UNL     1      23.832   3.006  22.722  0.00  0.00    +0.142 A 
ATOM     25  C   UNL     1      23.705   2.829  21.362  0.00  0.00    +0.036 A 
ATOM     29  C   UNL     1      24.267   1.594  20.928  0.00  0.00    +0.010 A 
ATOM     30  C   UNL     1      24.800   0.873  21.973  0.00  0.00    +0.047 A 
ENDBRANCH   1  22
ENDBRANCH   8   1
ENDBRANCH  13   8
ENDBRANCH  14  11
TORSDOF 6
ENDMDL
MODEL 6
REMARK VINA RESULT:      -7.3     18.211     20.678
REMARK  Name = 40777671
REMARK  8 active torsions:
REMARK  status: ('A' for Active; 'I' for Inactive)
REMARK    1  A    between atoms: S_1  and  N_8
REMARK    2  A    between atoms: S_1  and  C_22
REMARK    3  A    between atoms: N_8  and  C_13
REMARK    4  A    between atoms: N_9  and  C_21
REMARK    5  A    between atoms: C_11  and  C_14
REMARK    6  A    between atoms: C_17  and  C_19
REMARK    7  A    between atoms: C_18  and  C_20
REMARK    8  A    between atoms: C_28  and  C_31
REMARK                            x       y       z     vdW  Elec       q    Type
REMARK                         _______ _______ _______ _____ _____    ______ ____
ROOT
ATOM      9  N   UNL     1       9.293   6.686   4.496  0.00  0.00    -0.236 N 
ATOM     10  N   UNL     1       8.451   7.673   4.144  0.00  0.00    -0.171 NA
ATOM     14  C   UNL     1       9.691   6.957   2.365  0.00  0.00    +0.003 A 
ATOM     17  C   UNL     1      10.058   6.223   3.466  0.00  0.00    +0.046 A 
ATOM     18  C   UNL     1       8.699   7.835   2.842  0.00  0.00    +0.064 A 
ATOM     19  C   UNL     1      11.054   5.142   3.618  0.00  0.00    +0.066 C 
ATOM     20  C   UNL     1       7.953   8.855   2.084  0.00  0.00    +0.068 C 
ENDROOT
BRANCH   9  21
ATOM     21  C   UNL     1       9.318   6.234   5.815  0.00  0.00    +0.066 A 
ATOM     23  C   UNL     1       8.987   7.101   6.856  0.00  0.00    +0.028 A 
ATOM     24  C   UNL     1       9.678   4.915   6.094  0.00  0.00    +0.028 A 
ATOM     26  C   UNL     1       9.016   6.649   8.175  0.00  0.00    +0.014 A 
ATOM     27  C   UNL     1       9.707   4.464   7.413  0.00  0.00    +0.014 A 
ATOM     28  C   UNL     1       9.376   5.331   8.454  0.00  0.00    +0.055 A 
BRANCH  28  31
ATOM      3  F   UNL     1       9.587   3.500   9.956  0.00  0.00    -0.166 F 
ATOM      4  F   UNL     1      10.408   5.404  10.611  0.00  0.00    -0.166 F 
ATOM      5  F   UNL     1       8.259   5.113  10.558  0.00  0.00    -0.166 F 
ATOM     31  C   UNL     1       9.407   4.849   9.865  0.00  0.00    +0.417 C 
ENDBRANCH  28  31
ENDBRANCH   9  21
BRANCH  14  11
ATOM     11  C   UNL     1      10.234   6.848   0.959  0.00  0.00    +0.047 C 
ATOM     12  C   UNL     1      10.043   5.449   0.337  0.00  0.00    +0.037 C 
ATOM     13  C   UNL     1       9.771   5.685  -1.153  0.00  0.00    +0.100 C 
ATOM     15  C   UNL     1       9.563   7.743  -0.042  0.00  0.00    -0.021 C 
ATOM     16  C   UNL     1       9.319   7.107  -1.193  0.00  0.00    -0.010 C 
BRANCH  13   8
ATOM      8  N   UNL     1      11.017   5.552  -1.938  0.00  0.00    -0.183 NA
ATOM     32  H   UNL     1      11.676   6.337  -1.844  0.00  0.00    +0.149 HD
BRANCH   8   1
ATOM      1  S   UNL     1      11.668   4.013  -2.247  0.00  0.00    +0.065 S 
ATOM      6  O   UNL     1      12.314   4.015  -3.546  0.00  0.00    -0.153 OA
ATOM      7  O   UNL     1      10.670   3.008  -1.930  0.00  0.00    -0.153 OA
BRANCH   1  22
ATOM      2  S   UNL     1      14.485   4.389  -1.529  0.00  0.00    -0.077 S 
ATOM     22  C   UNL     1      12.928   3.896  -1.013  0.00  0.00    +0.142 A 
ATOM     25  C   UNL     1      12.925   3.487   0.302  0.00  0.00    +0.036 A 
ATOM     29  C   UNL     1      14.218   3.577   0.894  0.00  0.00    +0.010 A 
ATOM     30  C   UNL     1      15.160   4.053   0.009  0.00  0.00    +0.047 A 
ENDBRANCH   1  22
ENDBRANCH   8   1
ENDBRANCH  13   8
ENDBRANCH  14  11
TORSDOF 6
ENDMDL
MODEL 7
REMARK VINA RESULT:      -7.2     29.518     30.805
REMARK  Name = 40777671
REMARK  8 active torsions:
REMARK  status: ('A' for Active; 'I' for Inactive)
REMARK    1  A    between atoms: S_1  and  N_8
REMARK    2  A    between atoms: S_1  and  C_22
REMARK    3  A    between atoms: N_8  and  C_13
REMARK    4  A    between atoms: N_9  and  C_21
REMARK    5  A    between atoms: C_11  and  C_14
REMARK    6  A    between atoms: C_17  and  C_19
REMARK    7  A    between atoms: C_18  and  C_20
REMARK    8  A    between atoms: C_28  and  C_31
REMARK                            x       y       z     vdW  Elec       q    Type
REMARK                         _______ _______ _______ _____ _____    ______ ____
ROOT
ATOM      9  N   UNL     1      -4.621 -11.735  14.008  0.00  0.00    -0.236 N 
ATOM     10  N   UNL     1      -3.963 -12.833  13.595  0.00  0.00    -0.171 NA
ATOM     14  C   UNL     1      -4.348 -11.389  11.869  0.00  0.00    +0.003 A 
ATOM     17  C   UNL     1      -4.876 -10.840  13.011  0.00  0.00    +0.046 A 
ATOM     18  C   UNL     1      -3.800 -12.616  12.288  0.00  0.00    +0.064 A 
ATOM     19  C   UNL     1      -5.588  -9.564  13.230  0.00  0.00    +0.066 C 
ATOM     20  C   UNL     1      -3.104 -13.623  11.468  0.00  0.00    +0.068 C 
ENDROOT
BRANCH   9  21
ATOM     21  C   UNL     1      -4.972 -11.603  15.351  0.00  0.00    +0.066 A 
ATOM     23  C   UNL     1      -4.086 -11.008  16.249  0.00  0.00    +0.028 A 
ATOM     24  C   UNL     1      -6.210 -12.069  15.797  0.00  0.00    +0.028 A 
ATOM     26  C   UNL     1      -4.437 -10.879  17.593  0.00  0.00    +0.014 A 
ATOM     27  C   UNL     1      -6.559 -11.940  17.141  0.00  0.00    +0.014 A 
ATOM     28  C   UNL     1      -5.674 -11.346  18.039  0.00  0.00    +0.055 A 
BRANCH  28  31
ATOM      3  F   UNL     1      -6.381  -9.928  19.812  0.00  0.00    -0.166 F 
ATOM      4  F   UNL     1      -7.120 -11.974  19.839  0.00  0.00    -0.166 F 
ATOM      5  F   UNL     1      -5.049 -11.565  20.337  0.00  0.00    -0.166 F 
ATOM     31  C   UNL     1      -6.048 -11.208  19.476  0.00  0.00    +0.417 C 
ENDBRANCH  28  31
ENDBRANCH   9  21
BRANCH  14  11
ATOM     11  C   UNL     1      -4.359 -10.807  10.474  0.00  0.00    +0.047 C 
ATOM     12  C   UNL     1      -5.757 -10.339  10.018  0.00  0.00    +0.037 C 
ATOM     13  C   UNL     1      -5.523  -9.091   9.159  0.00  0.00    +0.100 C 
ATOM     15  C   UNL     1      -3.531  -9.566  10.308  0.00  0.00    -0.021 C 
ATOM     16  C   UNL     1      -4.167  -8.637   9.586  0.00  0.00    -0.010 C 
BRANCH  13   8
ATOM      8  N   UNL     1      -5.485  -9.445   7.724  0.00  0.00    -0.183 NA
ATOM     32  H   UNL     1      -4.717 -10.074   7.451  0.00  0.00    +0.149 HD
BRANCH   8   1
ATOM      1  S   UNL     1      -6.927  -9.535   6.830  0.00  0.00    +0.065 S 
ATOM      6  O   UNL     1      -7.574 -10.808   7.085  0.00  0.00    -0.153 OA
ATOM      7  O   UNL     1      -6.663  -9.111   5.468  0.00  0.00    -0.153 OA
BRANCH   1  22
ATOM      2  S   UNL     1      -9.170  -8.839   8.585  0.00  0.00    -0.077 S 
ATOM     22  C   UNL     1      -7.902  -8.267   7.585  0.00  0.00    +0.142 A 
ATOM     25  C   UNL     1      -7.858  -6.892   7.541  0.00  0.00    +0.036 A 
ATOM     29  C   UNL     1      -8.879  -6.298   8.337  0.00  0.00    +0.010 A 
ATOM     30  C   UNL     1      -9.664  -7.242   8.961  0.00  0.00    +0.047 A 
ENDBRANCH   1  22
ENDBRANCH   8   1
ENDBRANCH  13   8
ENDBRANCH  14  11
TORSDOF 6
ENDMDL
MODEL 8
REMARK VINA RESULT:      -7.1     30.078     32.928
REMARK  Name = 40777671
REMARK  8 active torsions:
REMARK  status: ('A' for Active; 'I' for Inactive)
REMARK    1  A    between atoms: S_1  and  N_8
REMARK    2  A    between atoms: S_1  and  C_22
REMARK    3  A    between atoms: N_8  and  C_13
REMARK    4  A    between atoms: N_9  and  C_21
REMARK    5  A    between atoms: C_11  and  C_14
REMARK    6  A    between atoms: C_17  and  C_19
REMARK    7  A    between atoms: C_18  and  C_20
REMARK    8  A    between atoms: C_28  and  C_31
REMARK                            x       y       z     vdW  Elec       q    Type
REMARK                         _______ _______ _______ _____ _____    ______ ____
ROOT
ATOM      9  N   UNL     1      -9.414 -11.172  19.221  0.00  0.00    -0.236 N 
ATOM     10  N   UNL     1      -8.314 -10.994  19.973  0.00  0.00    -0.171 NA
ATOM     14  C   UNL     1      -7.789 -11.202  17.761  0.00  0.00    +0.003 A 
ATOM     17  C   UNL     1      -9.153 -11.302  17.888  0.00  0.00    +0.046 A 
ATOM     18  C   UNL     1      -7.325 -11.014  19.076  0.00  0.00    +0.064 A 
ATOM     19  C   UNL     1     -10.205 -11.507  16.872  0.00  0.00    +0.066 C 
ATOM     20  C   UNL     1      -5.933 -10.846  19.529  0.00  0.00    +0.068 C 
ENDROOT
BRANCH   9  21
ATOM     21  C   UNL     1     -10.669 -11.207  19.826  0.00  0.00    +0.066 A 
ATOM     23  C   UNL     1     -11.185 -12.415  20.293  0.00  0.00    +0.028 A 
ATOM     24  C   UNL     1     -11.411 -10.033  19.962  0.00  0.00    +0.028 A 
ATOM     26  C   UNL     1     -12.443 -12.450  20.896  0.00  0.00    +0.014 A 
ATOM     27  C   UNL     1     -12.668 -10.068  20.564  0.00  0.00    +0.014 A 
ATOM     28  C   UNL     1     -13.185 -11.277  21.031  0.00  0.00    +0.055 A 
BRANCH  28  31
ATOM      3  F   UNL     1     -14.476 -11.712  22.979  0.00  0.00    -0.166 F 
ATOM      4  F   UNL     1     -15.167 -10.106  21.685  0.00  0.00    -0.166 F 
ATOM      5  F   UNL     1     -15.402 -12.172  21.067  0.00  0.00    -0.166 F 
ATOM     31  C   UNL     1     -14.530 -11.315  21.675  0.00  0.00    +0.417 C 
ENDBRANCH  28  31
ENDBRANCH   9  21
BRANCH  14  11
ATOM     11  C   UNL     1      -6.972 -11.280  16.492  0.00  0.00    +0.047 C 
ATOM     12  C   UNL     1      -6.223  -9.970  16.166  0.00  0.00    +0.037 C 
ATOM     13  C   UNL     1      -4.892 -10.393  15.535  0.00  0.00    +0.100 C 
ATOM     15  C   UNL     1      -5.861 -12.290  16.524  0.00  0.00    -0.021 C 
ATOM     16  C   UNL     1      -4.733 -11.803  15.996  0.00  0.00    -0.010 C 
BRANCH  13   8
ATOM      8  N   UNL     1      -4.985 -10.374  14.059  0.00  0.00    -0.183 NA
ATOM     32  H   UNL     1      -5.613  -9.656  13.672  0.00  0.00    +0.149 HD
BRANCH   8   1
ATOM      1  S   UNL     1      -3.651 -10.843  13.116  0.00  0.00    +0.065 S 
ATOM      6  O   UNL     1      -3.739 -12.262  12.829  0.00  0.00    -0.153 OA
ATOM      7  O   UNL     1      -2.444 -10.291  13.702  0.00  0.00    -0.153 OA
BRANCH   1  22
ATOM      2  S   UNL     1      -5.516  -9.301  11.461  0.00  0.00    -0.077 S 
ATOM     22  C   UNL     1      -3.943  -9.963  11.611  0.00  0.00    +0.142 A 
ATOM     25  C   UNL     1      -3.161  -9.689  10.511  0.00  0.00    +0.036 A 
ATOM     29  C   UNL     1      -3.861  -8.927   9.532  0.00  0.00    +0.010 A 
ATOM     30  C   UNL     1      -5.152  -8.647   9.921  0.00  0.00    +0.047 A 
ENDBRANCH   1  22
ENDBRANCH   8   1
ENDBRANCH  13   8
ENDBRANCH  14  11
TORSDOF 6
ENDMDL
MODEL 9
REMARK VINA RESULT:      -7.1     23.427     24.986
REMARK  Name = 40777671
REMARK  8 active torsions:
REMARK  status: ('A' for Active; 'I' for Inactive)
REMARK    1  A    between atoms: S_1  and  N_8
REMARK    2  A    between atoms: S_1  and  C_22
REMARK    3  A    between atoms: N_8  and  C_13
REMARK    4  A    between atoms: N_9  and  C_21
REMARK    5  A    between atoms: C_11  and  C_14
REMARK    6  A    between atoms: C_17  and  C_19
REMARK    7  A    between atoms: C_18  and  C_20
REMARK    8  A    between atoms: C_28  and  C_31
REMARK                            x       y       z     vdW  Elec       q    Type
REMARK                         _______ _______ _______ _____ _____    ______ ____
ROOT
ATOM      9  N   UNL     1      21.479  -5.616   0.279  0.00  0.00    -0.236 N 
ATOM     10  N   UNL     1      22.499  -5.564  -0.595  0.00  0.00    -0.171 NA
ATOM     14  C   UNL     1      20.602  -4.639  -1.467  0.00  0.00    +0.003 A 
ATOM     17  C   UNL     1      20.320  -5.075  -0.196  0.00  0.00    +0.046 A 
ATOM     18  C   UNL     1      21.957  -4.966  -1.660  0.00  0.00    +0.064 A 
ATOM     19  C   UNL     1      19.069  -5.023   0.588  0.00  0.00    +0.066 C 
ATOM     20  C   UNL     1      22.785  -4.726  -2.855  0.00  0.00    +0.068 C 
ENDROOT
BRANCH   9  21
ATOM     21  C   UNL     1      21.673  -6.187   1.536  0.00  0.00    +0.066 A 
ATOM     23  C   UNL     1      21.265  -7.499   1.776  0.00  0.00    +0.028 A 
ATOM     24  C   UNL     1      22.271  -5.445   2.555  0.00  0.00    +0.028 A 
ATOM     26  C   UNL     1      21.457  -8.069   3.035  0.00  0.00    +0.014 A 
ATOM     27  C   UNL     1      22.461  -6.015   3.813  0.00  0.00    +0.014 A 
ATOM     28  C   UNL     1      22.054  -7.327   4.054  0.00  0.00    +0.055 A 
BRANCH  28  31
ATOM      3  F   UNL     1      23.576  -8.047   5.733  0.00  0.00    -0.166 F 
ATOM      4  F   UNL     1      21.681  -7.227   6.415  0.00  0.00    -0.166 F 
ATOM      5  F   UNL     1      21.745  -9.198   5.511  0.00  0.00    -0.166 F 
ATOM     31  C   UNL     1      22.258  -7.936   5.400  0.00  0.00    +0.417 C 
ENDBRANCH  28  31
ENDBRANCH   9  21
BRANCH  14  11
ATOM     11  C   UNL     1      19.664  -3.962  -2.440  0.00  0.00    +0.047 C 
ATOM     12  C   UNL     1      18.492  -4.861  -2.885  0.00  0.00    +0.037 C 
ATOM     13  C   UNL     1      17.286  -3.929  -3.050  0.00  0.00    +0.100 C 
ATOM     15  C   UNL     1      18.959  -2.755  -1.893  0.00  0.00    -0.021 C 
ATOM     16  C   UNL     1      17.665  -2.739  -2.233  0.00  0.00    -0.010 C 
BRANCH  13   8
ATOM      8  N   UNL     1      17.135  -3.517  -4.462  0.00  0.00    -0.183 NA
ATOM     32  H   UNL     1      17.834  -2.838  -4.795  0.00  0.00    +0.149 HD
BRANCH   8   1
ATOM      1  S   UNL     1      16.491  -4.603  -5.601  0.00  0.00    +0.065 S 
ATOM      6  O   UNL     1      17.534  -5.503  -6.052  0.00  0.00    -0.153 OA
ATOM      7  O   UNL     1      15.702  -3.858  -6.565  0.00  0.00    -0.153 OA
BRANCH   1  22
ATOM      2  S   UNL     1      15.760  -7.187  -4.427  0.00  0.00    -0.077 S 
ATOM     22  C   UNL     1      15.356  -5.533  -4.615  0.00  0.00    +0.142 A 
ATOM     25  C   UNL     1      14.195  -5.205  -3.951  0.00  0.00    +0.036 A 
ATOM     29  C   UNL     1      13.627  -6.327  -3.280  0.00  0.00    +0.010 A 
ATOM     30  C   UNL     1      14.377  -7.469  -3.456  0.00  0.00    +0.047 A 
ENDBRANCH   1  22
ENDBRANCH   8   1
ENDBRANCH  13   8
ENDBRANCH  14  11
TORSDOF 6
ENDMDL
MODEL 10
REMARK VINA RESULT:      -7.1     29.342     32.220
REMARK  Name = 40777671
REMARK  8 active torsions:
REMARK  status: ('A' for Active; 'I' for Inactive)
REMARK    1  A    between atoms: S_1  and  N_8
REMARK    2  A    between atoms: S_1  and  C_22
REMARK    3  A    between atoms: N_8  and  C_13
REMARK    4  A    between atoms: N_9  and  C_21
REMARK    5  A    between atoms: C_11  and  C_14
REMARK    6  A    between atoms: C_17  and  C_19
REMARK    7  A    between atoms: C_18  and  C_20
REMARK    8  A    between atoms: C_28  and  C_31
REMARK                            x       y       z     vdW  Elec       q    Type
REMARK                         _______ _______ _______ _____ _____    ______ ____
ROOT
ATOM      9  N   UNL     1      -6.957 -10.258  17.052  0.00  0.00    -0.236 N 
ATOM     10  N   UNL     1      -7.604  -9.097  16.856  0.00  0.00    -0.171 NA
ATOM     14  C   UNL     1      -8.878 -10.575  18.042  0.00  0.00    +0.003 A 
ATOM     17  C   UNL     1      -7.677 -11.177  17.757  0.00  0.00    +0.046 A 
ATOM     18  C   UNL     1      -8.777  -9.296  17.463  0.00  0.00    +0.064 A 
ATOM     19  C   UNL     1      -7.168 -12.523  18.091  0.00  0.00    +0.066 C 
ATOM     20  C   UNL     1      -9.785  -8.221  17.462  0.00  0.00    +0.068 C 
ENDROOT
BRANCH   9  21
ATOM     21  C   UNL     1      -5.667 -10.426  16.548  0.00  0.00    +0.066 A 
ATOM     23  C   UNL     1      -4.582 -10.508  17.420  0.00  0.00    +0.028 A 
ATOM     24  C   UNL     1      -5.463 -10.508  15.170  0.00  0.00    +0.028 A 
ATOM     26  C   UNL     1      -3.292 -10.672  16.914  0.00  0.00    +0.014 A 
ATOM     27  C   UNL     1      -4.173 -10.671  14.666  0.00  0.00    +0.014 A 
ATOM     28  C   UNL     1      -3.087 -10.753  15.537  0.00  0.00    +0.055 A 
BRANCH  28  31
ATOM      3  F   UNL     1      -0.744 -10.568  15.894  0.00  0.00    -0.166 F 
ATOM      4  F   UNL     1      -1.417 -12.215  14.644  0.00  0.00    -0.166 F 
ATOM      5  F   UNL     1      -1.462 -10.187  13.877  0.00  0.00    -0.166 F 
ATOM     31  C   UNL     1      -1.708 -10.928  14.998  0.00  0.00    +0.417 C 
ENDBRANCH  28  31
ENDBRANCH   9  21
BRANCH  14  11
ATOM     11  C   UNL     1     -10.046 -11.158  18.805  0.00  0.00    +0.047 C 
ATOM     12  C   UNL     1     -10.389 -10.374  20.089  0.00  0.00    +0.037 C 
ATOM     13  C   UNL     1     -11.914 -10.437  20.225  0.00  0.00    +0.100 C 
ATOM     15  C   UNL     1     -11.348 -11.146  18.059  0.00  0.00    -0.021 C 
ATOM     16  C   UNL     1     -12.363 -10.759  18.839  0.00  0.00    -0.010 C 
BRANCH  13   8
ATOM      8  N   UNL     1     -12.311 -11.538  21.130  0.00  0.00    -0.183 NA
ATOM     32  H   UNL     1     -11.666 -11.712  21.912  0.00  0.00    +0.149 HD
BRANCH   8   1
ATOM      1  S   UNL     1     -13.956 -11.885  21.376  0.00  0.00    +0.065 S 
ATOM      6  O   UNL     1     -14.372 -12.929  20.459  0.00  0.00    -0.153 OA
ATOM      7  O   UNL     1     -14.695 -10.638  21.445  0.00  0.00    -0.153 OA
BRANCH   1  22
ATOM      2  S   UNL     1     -13.047 -14.017  23.171  0.00  0.00    -0.077 S 
ATOM     22  C   UNL     1     -13.944 -12.567  23.008  0.00  0.00    +0.142 A 
ATOM     25  C   UNL     1     -14.510 -12.172  24.199  0.00  0.00    +0.036 A 
ATOM     29  C   UNL     1     -14.207 -13.073  25.261  0.00  0.00    +0.010 A 
ATOM     30  C   UNL     1     -13.418 -14.121  24.840  0.00  0.00    +0.047 A 
ENDBRANCH   1  22
ENDBRANCH   8   1
ENDBRANCH  13   8
ENDBRANCH  14  11
TORSDOF 6
ENDMDL
