MODEL 1
REMARK VINA RESULT:      -7.4      0.000      0.000
REMARK  Name = 11866358
REMARK  15 active torsions:
REMARK  status: ('A' for Active; 'I' for Inactive)
REMARK    1  A    between atoms: O_1  and  C_11
REMARK    2  A    between atoms: O_2  and  C_14
REMARK    3  A    between atoms: O_3  and  C_16
REMARK    4  A    between atoms: N_7  and  C_12
REMARK    5  A    between atoms: N_8  and  C_20
REMARK    6  A    between atoms: N_9  and  C_19
REMARK    7  A    between atoms: N_9  and  C_27
REMARK    8  A    between atoms: C_11  and  C_17
REMARK    9  A    between atoms: C_18  and  C_19
REMARK   10  A    between atoms: C_19  and  C_21
REMARK   11  A    between atoms: C_20  and  C_22
REMARK   12  A    between atoms: C_20  and  C_25
REMARK   13  A    between atoms: C_21  and  C_23
REMARK   14  A    between atoms: C_21  and  C_24
REMARK   15  A    between atoms: C_22  and  C_26
REMARK                            x       y       z     vdW  Elec       q    Type
REMARK                         _______ _______ _______ _____ _____    ______ ____
ROOT
ATOM     11  C   UNL     1      15.270   7.272  20.274  0.00  0.00    +0.146 C 
ATOM     12  C   UNL     1      17.652   7.108  21.143  0.00  0.00    +0.107 C 
ATOM     13  C   UNL     1      16.419   8.001  20.972  0.00  0.00    +0.069 C 
ATOM     14  C   UNL     1      18.096   6.488  19.813  0.00  0.00    +0.163 C 
ATOM     15  C   UNL     1      15.720   6.676  18.942  0.00  0.00    +0.078 C 
ATOM     16  C   UNL     1      16.945   5.775  19.099  0.00  0.00    +0.148 C 
ENDROOT
BRANCH  11  17
ATOM      4  O   UNL     1      14.008   8.890  19.052  0.00  0.00    -0.273 OA
ATOM      8  N   UNL     1      13.219   8.174  21.122  0.00  0.00    -0.301 N 
ATOM     17  C   UNL     1      14.108   8.195  20.061  0.00  0.00    +0.246 C 
ATOM     37  H   UNL     1      13.342   7.478  21.852  0.00  0.00    +0.150 HD
BRANCH   8  20
ATOM     20  C   UNL     1      12.028   8.992  21.174  0.00  0.00    +0.163 C 
BRANCH  20  25
ATOM      6  O   UNL     1      10.611   8.441  19.278  0.00  0.00    -0.274 OA
ATOM     10  N   UNL     1      10.367   7.236  21.219  0.00  0.00    -0.328 N 
ATOM     25  C   UNL     1      10.931   8.230  20.446  0.00  0.00    +0.231 C 
ATOM     39  H   UNL     1      10.659   7.058  22.174  0.00  0.00    +0.145 HD
ATOM     40  H   UNL     1       9.632   6.643  20.849  0.00  0.00    +0.145 HD
ENDBRANCH  20  25
BRANCH  20  22
ATOM     22  C   UNL     1      11.599   9.301  22.613  0.00  0.00    +0.067 C 
BRANCH  22  26
ATOM     26  C   UNL     1      11.257  10.756  22.818  0.00  0.00    -0.045 A 
ATOM     28  C   UNL     1      11.317  11.628  21.743  0.00  0.00    +0.004 A 
ATOM     29  C   UNL     1      10.889  11.196  24.081  0.00  0.00    +0.004 A 
ATOM     30  C   UNL     1      11.001  12.973  21.933  0.00  0.00    +0.000 A 
ATOM     31  C   UNL     1      10.574  12.542  24.271  0.00  0.00    +0.000 A 
ATOM     32  C   UNL     1      10.630  13.430  23.198  0.00  0.00    +0.000 A 
ENDBRANCH  22  26
ENDBRANCH  20  22
ENDBRANCH   8  20
ENDBRANCH  11  17
BRANCH  12   7
ATOM      5  O   UNL     1      19.697   6.123  22.911  0.00  0.00    -0.274 OA
ATOM      7  N   UNL     1      18.730   7.871  21.735  0.00  0.00    -0.309 N 
ATOM     18  C   UNL     1      19.673   7.307  22.579  0.00  0.00    +0.231 C 
ATOM     33  H   UNL     1      18.757   8.871  21.559  0.00  0.00    +0.149 HD
BRANCH  18  19
ATOM     19  C   UNL     1      20.696   8.327  23.076  0.00  0.00    +0.143 C 
BRANCH  19   9
ATOM      9  N   UNL     1      20.040   9.114  24.124  0.00  0.00    -0.309 NA
ATOM     27  C   UNL     1      20.140  10.535  23.835  0.00  0.00    +0.101 C 
ATOM     38  H   UNL     1      19.059   8.852  24.208  0.00  0.00    +0.122 HD
ENDBRANCH  19   9
BRANCH  19  21
ATOM     21  C   UNL     1      22.002   7.679  23.596  0.00  0.00    +0.009 C 
ATOM     23  C   UNL     1      23.245   8.384  23.045  0.00  0.00    +0.009 C 
ATOM     24  C   UNL     1      22.090   7.595  25.124  0.00  0.00    +0.009 C 
ENDBRANCH  19  21
ENDBRANCH  18  19
ENDBRANCH  12   7
BRANCH  11   1
ATOM      1  O   UNL     1      14.765   6.229  21.101  0.00  0.00    -0.379 OA
ATOM     34  H   UNL     1      15.281   6.212  21.925  0.00  0.00    +0.211 HD
ENDBRANCH  11   1
BRANCH  14   2
ATOM      2  O   UNL     1      19.116   5.517  20.066  0.00  0.00    -0.387 OA
ATOM     35  H   UNL     1      18.688   4.744  20.472  0.00  0.00    +0.210 HD
ENDBRANCH  14   2
BRANCH  16   3
ATOM      3  O   UNL     1      17.395   5.377  17.803  0.00  0.00    -0.389 OA
ATOM     36  H   UNL     1      16.891   4.588  17.538  0.00  0.00    +0.210 HD
ENDBRANCH  16   3
TORSDOF 12
ENDMDL
MODEL 2
REMARK VINA RESULT:      -7.2      0.910      1.767
REMARK  Name = 11866358
REMARK  15 active torsions:
REMARK  status: ('A' for Active; 'I' for Inactive)
REMARK    1  A    between atoms: O_1  and  C_11
REMARK    2  A    between atoms: O_2  and  C_14
REMARK    3  A    between atoms: O_3  and  C_16
REMARK    4  A    between atoms: N_7  and  C_12
REMARK    5  A    between atoms: N_8  and  C_20
REMARK    6  A    between atoms: N_9  and  C_19
REMARK    7  A    between atoms: N_9  and  C_27
REMARK    8  A    between atoms: C_11  and  C_17
REMARK    9  A    between atoms: C_18  and  C_19
REMARK   10  A    between atoms: C_19  and  C_21
REMARK   11  A    between atoms: C_20  and  C_22
REMARK   12  A    between atoms: C_20  and  C_25
REMARK   13  A    between atoms: C_21  and  C_23
REMARK   14  A    between atoms: C_21  and  C_24
REMARK   15  A    between atoms: C_22  and  C_26
REMARK                            x       y       z     vdW  Elec       q    Type
REMARK                         _______ _______ _______ _____ _____    ______ ____
ROOT
ATOM     11  C   UNL     1      15.387   7.577  20.633  0.00  0.00    +0.146 C 
ATOM     12  C   UNL     1      17.839   7.204  21.184  0.00  0.00    +0.107 C 
ATOM     13  C   UNL     1      16.688   8.213  21.127  0.00  0.00    +0.069 C 
ATOM     14  C   UNL     1      18.030   6.480  19.846  0.00  0.00    +0.163 C 
ATOM     15  C   UNL     1      15.587   6.878  19.291  0.00  0.00    +0.078 C 
ATOM     16  C   UNL     1      16.727   5.860  19.336  0.00  0.00    +0.148 C 
ENDROOT
BRANCH  11  17
ATOM      4  O   UNL     1      14.478   9.674  19.936  0.00  0.00    -0.273 OA
ATOM      8  N   UNL     1      13.140   8.217  21.165  0.00  0.00    -0.301 N 
ATOM     17  C   UNL     1      14.302   8.608  20.522  0.00  0.00    +0.246 C 
ATOM     37  H   UNL     1      13.070   7.268  21.520  0.00  0.00    +0.150 HD
BRANCH   8  20
ATOM     20  C   UNL     1      11.954   9.042  21.227  0.00  0.00    +0.163 C 
BRANCH  20  25
ATOM      6  O   UNL     1      10.583   8.482  19.299  0.00  0.00    -0.274 OA
ATOM     10  N   UNL     1      10.225   7.353  21.268  0.00  0.00    -0.328 N 
ATOM     25  C   UNL     1      10.854   8.298  20.484  0.00  0.00    +0.231 C 
ATOM     39  H   UNL     1      10.477   7.195  22.238  0.00  0.00    +0.145 HD
ATOM     40  H   UNL     1       9.481   6.776  20.891  0.00  0.00    +0.145 HD
ENDBRANCH  20  25
BRANCH  20  22
ATOM     22  C   UNL     1      11.523   9.332  22.669  0.00  0.00    +0.067 C 
BRANCH  22  26
ATOM     26  C   UNL     1      11.208  10.789  22.901  0.00  0.00    -0.045 A 
ATOM     28  C   UNL     1      10.882  11.220  24.177  0.00  0.00    +0.004 A 
ATOM     29  C   UNL     1      11.247  11.671  21.832  0.00  0.00    +0.004 A 
ATOM     30  C   UNL     1      10.590  12.567  24.392  0.00  0.00    +0.000 A 
ATOM     31  C   UNL     1      10.954  13.018  22.046  0.00  0.00    +0.000 A 
ATOM     32  C   UNL     1      10.625  13.466  23.326  0.00  0.00    +0.000 A 
ENDBRANCH  22  26
ENDBRANCH  20  22
ENDBRANCH   8  20
ENDBRANCH  11  17
BRANCH  12   7
ATOM      5  O   UNL     1      19.843   6.216  22.996  0.00  0.00    -0.274 OA
ATOM      7  N   UNL     1      19.058   7.875  21.579  0.00  0.00    -0.309 N 
ATOM     18  C   UNL     1      19.968   7.318  22.464  0.00  0.00    +0.231 C 
ATOM     33  H   UNL     1      19.219   8.815  21.229  0.00  0.00    +0.149 HD
BRANCH  18  19
ATOM     19  C   UNL     1      21.164   8.233  22.723  0.00  0.00    +0.143 C 
BRANCH  19   9
ATOM      9  N   UNL     1      22.096   8.045  21.609  0.00  0.00    -0.309 NA
ATOM     27  C   UNL     1      23.133   7.091  21.964  0.00  0.00    +0.101 C 
ATOM     38  H   UNL     1      21.602   7.718  20.780  0.00  0.00    +0.122 HD
ENDBRANCH  19   9
BRANCH  19  21
ATOM     21  C   UNL     1      20.770   9.721  22.881  0.00  0.00    +0.009 C 
ATOM     23  C   UNL     1      20.693  10.137  24.353  0.00  0.00    +0.009 C 
ATOM     24  C   UNL     1      21.680  10.691  22.117  0.00  0.00    +0.009 C 
ENDBRANCH  19  21
ENDBRANCH  18  19
ENDBRANCH  12   7
BRANCH  11   1
ATOM      1  O   UNL     1      14.902   6.633  21.581  0.00  0.00    -0.379 OA
ATOM     34  H   UNL     1      13.932   6.608  21.521  0.00  0.00    +0.211 HD
ENDBRANCH  11   1
BRANCH  14   2
ATOM      2  O   UNL     1      18.975   5.420  20.018  0.00  0.00    -0.387 OA
ATOM     35  H   UNL     1      18.489   4.648  20.357  0.00  0.00    +0.210 HD
ENDBRANCH  14   2
BRANCH  16   3
ATOM      3  O   UNL     1      16.951   5.358  18.018  0.00  0.00    -0.389 OA
ATOM     36  H   UNL     1      17.476   4.542  18.091  0.00  0.00    +0.210 HD
ENDBRANCH  16   3
TORSDOF 12
ENDMDL
MODEL 3
REMARK VINA RESULT:      -7.0      1.517      2.062
REMARK  Name = 11866358
REMARK  15 active torsions:
REMARK  status: ('A' for Active; 'I' for Inactive)
REMARK    1  A    between atoms: O_1  and  C_11
REMARK    2  A    between atoms: O_2  and  C_14
REMARK    3  A    between atoms: O_3  and  C_16
REMARK    4  A    between atoms: N_7  and  C_12
REMARK    5  A    between atoms: N_8  and  C_20
REMARK    6  A    between atoms: N_9  and  C_19
REMARK    7  A    between atoms: N_9  and  C_27
REMARK    8  A    between atoms: C_11  and  C_17
REMARK    9  A    between atoms: C_18  and  C_19
REMARK   10  A    between atoms: C_19  and  C_21
REMARK   11  A    between atoms: C_20  and  C_22
REMARK   12  A    between atoms: C_20  and  C_25
REMARK   13  A    between atoms: C_21  and  C_23
REMARK   14  A    between atoms: C_21  and  C_24
REMARK   15  A    between atoms: C_22  and  C_26
REMARK                            x       y       z     vdW  Elec       q    Type
REMARK                         _______ _______ _______ _____ _____    ______ ____
ROOT
ATOM     11  C   UNL     1      15.837   7.357  20.502  0.00  0.00    +0.146 C 
ATOM     12  C   UNL     1      18.258   6.954  21.161  0.00  0.00    +0.107 C 
ATOM     13  C   UNL     1      17.112   7.969  21.085  0.00  0.00    +0.069 C 
ATOM     14  C   UNL     1      18.515   6.282  19.807  0.00  0.00    +0.163 C 
ATOM     15  C   UNL     1      16.103   6.709  19.145  0.00  0.00    +0.078 C 
ATOM     16  C   UNL     1      17.238   5.686  19.209  0.00  0.00    +0.148 C 
ENDROOT
BRANCH  11  17
ATOM      4  O   UNL     1      14.784   9.435  21.031  0.00  0.00    -0.273 OA
ATOM      8  N   UNL     1      13.774   8.022  19.480  0.00  0.00    -0.301 N 
ATOM     17  C   UNL     1      14.761   8.395  20.376  0.00  0.00    +0.246 C 
ATOM     37  H   UNL     1      13.915   7.192  18.911  0.00  0.00    +0.150 HD
BRANCH   8  20
ATOM     20  C   UNL     1      12.613   8.835  19.197  0.00  0.00    +0.163 C 
BRANCH  20  25
ATOM      6  O   UNL     1      11.714   7.419  17.438  0.00  0.00    -0.274 OA
ATOM     10  N   UNL     1      12.295   9.580  16.920  0.00  0.00    -0.328 N 
ATOM     25  C   UNL     1      12.174   8.507  17.778  0.00  0.00    +0.231 C 
ATOM     39  H   UNL     1      12.654  10.481  17.220  0.00  0.00    +0.145 HD
ATOM     40  H   UNL     1      12.023   9.501  15.946  0.00  0.00    +0.145 HD
ENDBRANCH  20  25
BRANCH  20  22
ATOM     22  C   UNL     1      11.469   8.577  20.184  0.00  0.00    +0.067 C 
BRANCH  22  26
ATOM     26  C   UNL     1      11.366   9.641  21.249  0.00  0.00    -0.045 A 
ATOM     28  C   UNL     1      10.913   9.298  22.513  0.00  0.00    +0.004 A 
ATOM     29  C   UNL     1      11.725  10.945  20.943  0.00  0.00    +0.004 A 
ATOM     30  C   UNL     1      10.817  10.282  23.497  0.00  0.00    +0.000 A 
ATOM     31  C   UNL     1      11.629  11.929  21.926  0.00  0.00    +0.000 A 
ATOM     32  C   UNL     1      11.174  11.598  23.203  0.00  0.00    +0.000 A 
ENDBRANCH  22  26
ENDBRANCH  20  22
ENDBRANCH   8  20
ENDBRANCH  11  17
BRANCH  12   7
ATOM      5  O   UNL     1      20.257   5.826  22.895  0.00  0.00    -0.274 OA
ATOM      7  N   UNL     1      19.456   7.606  21.643  0.00  0.00    -0.309 N 
ATOM     18  C   UNL     1      20.366   6.978  22.480  0.00  0.00    +0.231 C 
ATOM     33  H   UNL     1      19.602   8.580  21.394  0.00  0.00    +0.149 HD
BRANCH  18  19
ATOM     19  C   UNL     1      21.538   7.886  22.852  0.00  0.00    +0.143 C 
BRANCH  19   9
ATOM      9  N   UNL     1      21.637   7.878  24.313  0.00  0.00    -0.309 NA
ATOM     27  C   UNL     1      20.680   8.805  24.896  0.00  0.00    +0.101 C 
ATOM     38  H   UNL     1      21.470   6.942  24.679  0.00  0.00    +0.122 HD
ENDBRANCH  19   9
BRANCH  19  21
ATOM     21  C   UNL     1      22.873   7.457  22.197  0.00  0.00    +0.009 C 
ATOM     23  C   UNL     1      22.767   7.404  20.670  0.00  0.00    +0.009 C 
ATOM     24  C   UNL     1      24.072   8.322  22.603  0.00  0.00    +0.009 C 
ENDBRANCH  19  21
ENDBRANCH  18  19
ENDBRANCH  12   7
BRANCH  11   1
ATOM      1  O   UNL     1      15.303   6.379  21.387  0.00  0.00    -0.379 OA
ATOM     34  H   UNL     1      15.390   5.506  20.969  0.00  0.00    +0.211 HD
ENDBRANCH  11   1
BRANCH  14   2
ATOM      2  O   UNL     1      19.449   5.212  19.986  0.00  0.00    -0.387 OA
ATOM     35  H   UNL     1      20.087   5.493  20.663  0.00  0.00    +0.210 HD
ENDBRANCH  14   2
BRANCH  16   3
ATOM      3  O   UNL     1      17.528   5.235  17.885  0.00  0.00    -0.389 OA
ATOM     36  H   UNL     1      16.802   4.654  17.599  0.00  0.00    +0.210 HD
ENDBRANCH  16   3
TORSDOF 12
ENDMDL
MODEL 4
REMARK VINA RESULT:      -6.9      2.678      3.490
REMARK  Name = 11866358
REMARK  15 active torsions:
REMARK  status: ('A' for Active; 'I' for Inactive)
REMARK    1  A    between atoms: O_1  and  C_11
REMARK    2  A    between atoms: O_2  and  C_14
REMARK    3  A    between atoms: O_3  and  C_16
REMARK    4  A    between atoms: N_7  and  C_12
REMARK    5  A    between atoms: N_8  and  C_20
REMARK    6  A    between atoms: N_9  and  C_19
REMARK    7  A    between atoms: N_9  and  C_27
REMARK    8  A    between atoms: C_11  and  C_17
REMARK    9  A    between atoms: C_18  and  C_19
REMARK   10  A    between atoms: C_19  and  C_21
REMARK   11  A    between atoms: C_20  and  C_22
REMARK   12  A    between atoms: C_20  and  C_25
REMARK   13  A    between atoms: C_21  and  C_23
REMARK   14  A    between atoms: C_21  and  C_24
REMARK   15  A    between atoms: C_22  and  C_26
REMARK                            x       y       z     vdW  Elec       q    Type
REMARK                         _______ _______ _______ _____ _____    ______ ____
ROOT
ATOM     11  C   UNL     1      15.836   6.933  21.036  0.00  0.00    +0.146 C 
ATOM     12  C   UNL     1      18.278   7.549  21.375  0.00  0.00    +0.107 C 
ATOM     13  C   UNL     1      16.826   8.040  21.400  0.00  0.00    +0.069 C 
ATOM     14  C   UNL     1      18.632   6.884  20.039  0.00  0.00    +0.163 C 
ATOM     15  C   UNL     1      16.189   6.293  19.695  0.00  0.00    +0.078 C 
ATOM     16  C   UNL     1      17.632   5.789  19.659  0.00  0.00    +0.148 C 
ENDROOT
BRANCH  11  17
ATOM      4  O   UNL     1      14.105   8.466  21.636  0.00  0.00    -0.273 OA
ATOM      8  N   UNL     1      13.599   6.694  20.212  0.00  0.00    -0.301 N 
ATOM     17  C   UNL     1      14.434   7.466  21.002  0.00  0.00    +0.246 C 
ATOM     37  H   UNL     1      14.003   5.955  19.645  0.00  0.00    +0.150 HD
BRANCH   8  20
ATOM     20  C   UNL     1      12.193   6.980  20.033  0.00  0.00    +0.163 C 
BRANCH  20  25
ATOM      6  O   UNL     1      10.870   7.314  22.044  0.00  0.00    -0.274 OA
ATOM     10  N   UNL     1      11.556   5.185  21.522  0.00  0.00    -0.328 N 
ATOM     25  C   UNL     1      11.483   6.545  21.307  0.00  0.00    +0.231 C 
ATOM     39  H   UNL     1      12.046   4.559  20.891  0.00  0.00    +0.145 HD
ATOM     40  H   UNL     1      11.112   4.761  22.329  0.00  0.00    +0.145 HD
ENDBRANCH  20  25
BRANCH  20  22
ATOM     22  C   UNL     1      11.934   8.465  19.757  0.00  0.00    +0.067 C 
BRANCH  22  26
ATOM     26  C   UNL     1      11.949   8.795  18.285  0.00  0.00    -0.045 A 
ATOM     28  C   UNL     1      13.089   9.351  17.724  0.00  0.00    +0.004 A 
ATOM     29  C   UNL     1      10.823   8.539  17.519  0.00  0.00    +0.004 A 
ATOM     30  C   UNL     1      13.103   9.656  16.363  0.00  0.00    +0.000 A 
ATOM     31  C   UNL     1      10.837   8.845  16.158  0.00  0.00    +0.000 A 
ATOM     32  C   UNL     1      11.976   9.404  15.580  0.00  0.00    +0.000 A 
ENDBRANCH  22  26
ENDBRANCH  20  22
ENDBRANCH   8  20
ENDBRANCH  11  17
BRANCH  12   7
ATOM      5  O   UNL     1      20.125   7.774  23.569  0.00  0.00    -0.274 OA
ATOM      7  N   UNL     1      19.172   8.654  21.647  0.00  0.00    -0.309 N 
ATOM     18  C   UNL     1      20.030   8.673  22.735  0.00  0.00    +0.231 C 
ATOM     33  H   UNL     1      19.124   9.466  21.039  0.00  0.00    +0.149 HD
BRANCH  18  19
ATOM     19  C   UNL     1      20.858   9.955  22.802  0.00  0.00    +0.143 C 
BRANCH  19   9
ATOM      9  N   UNL     1      20.710  10.489  24.158  0.00  0.00    -0.309 NA
ATOM     27  C   UNL     1      19.914  11.706  24.145  0.00  0.00    +0.101 C 
ATOM     38  H   UNL     1      20.270   9.802  24.768  0.00  0.00    +0.122 HD
ENDBRANCH  19   9
BRANCH  19  21
ATOM     21  C   UNL     1      22.349   9.739  22.445  0.00  0.00    +0.009 C 
ATOM     23  C   UNL     1      23.179   9.355  23.673  0.00  0.00    +0.009 C 
ATOM     24  C   UNL     1      22.579   8.716  21.326  0.00  0.00    +0.009 C 
ENDBRANCH  19  21
ENDBRANCH  18  19
ENDBRANCH  12   7
BRANCH  11   1
ATOM      1  O   UNL     1      15.822   5.926  22.042  0.00  0.00    -0.379 OA
ATOM     34  H   UNL     1      15.373   5.141  21.685  0.00  0.00    +0.211 HD
ENDBRANCH  11   1
BRANCH  14   2
ATOM      2  O   UNL     1      19.921   6.274  20.148  0.00  0.00    -0.387 OA
ATOM     35  H   UNL     1      19.803   5.317  20.019  0.00  0.00    +0.210 HD
ENDBRANCH  14   2
BRANCH  16   3
ATOM      3  O   UNL     1      17.932   5.342  18.337  0.00  0.00    -0.389 OA
ATOM     36  H   UNL     1      17.094   5.127  17.893  0.00  0.00    +0.210 HD
ENDBRANCH  16   3
TORSDOF 12
ENDMDL
MODEL 5
REMARK VINA RESULT:      -6.5     28.234     30.734
REMARK  Name = 11866358
REMARK  15 active torsions:
REMARK  status: ('A' for Active; 'I' for Inactive)
REMARK    1  A    between atoms: O_1  and  C_11
REMARK    2  A    between atoms: O_2  and  C_14
REMARK    3  A    between atoms: O_3  and  C_16
REMARK    4  A    between atoms: N_7  and  C_12
REMARK    5  A    between atoms: N_8  and  C_20
REMARK    6  A    between atoms: N_9  and  C_19
REMARK    7  A    between atoms: N_9  and  C_27
REMARK    8  A    between atoms: C_11  and  C_17
REMARK    9  A    between atoms: C_18  and  C_19
REMARK   10  A    between atoms: C_19  and  C_21
REMARK   11  A    between atoms: C_20  and  C_22
REMARK   12  A    between atoms: C_20  and  C_25
REMARK   13  A    between atoms: C_21  and  C_23
REMARK   14  A    between atoms: C_21  and  C_24
REMARK   15  A    between atoms: C_22  and  C_26
REMARK                            x       y       z     vdW  Elec       q    Type
REMARK                         _______ _______ _______ _____ _____    ______ ____
ROOT
ATOM     11  C   UNL     1      -5.512 -11.038  17.188  0.00  0.00    +0.146 C 
ATOM     12  C   UNL     1      -7.844 -10.304  17.882  0.00  0.00    +0.107 C 
ATOM     13  C   UNL     1      -6.639 -10.025  16.978  0.00  0.00    +0.069 C 
ATOM     14  C   UNL     1      -7.439 -10.408  19.358  0.00  0.00    +0.163 C 
ATOM     15  C   UNL     1      -5.105 -11.117  18.658  0.00  0.00    +0.078 C 
ATOM     16  C   UNL     1      -6.297 -11.405  19.571  0.00  0.00    +0.148 C 
ENDROOT
BRANCH  11  17
ATOM      4  O   UNL     1      -3.501  -9.851  16.691  0.00  0.00    -0.273 OA
ATOM      8  N   UNL     1      -4.302 -11.405  15.153  0.00  0.00    -0.301 N 
ATOM     17  C   UNL     1      -4.324 -10.693  16.340  0.00  0.00    +0.246 C 
ATOM     37  H   UNL     1      -4.972 -12.157  15.019  0.00  0.00    +0.150 HD
BRANCH   8  20
ATOM     20  C   UNL     1      -3.275 -11.239  14.150  0.00  0.00    +0.163 C 
BRANCH  20  25
ATOM      6  O   UNL     1      -1.055 -11.542  15.093  0.00  0.00    -0.274 OA
ATOM     10  N   UNL     1      -2.250 -13.404  14.475  0.00  0.00    -0.328 N 
ATOM     25  C   UNL     1      -2.068 -12.044  14.610  0.00  0.00    +0.231 C 
ATOM     39  H   UNL     1      -3.102 -13.805  14.096  0.00  0.00    +0.145 HD
ATOM     40  H   UNL     1      -1.527 -14.057  14.758  0.00  0.00    +0.145 HD
ENDBRANCH  20  25
BRANCH  20  22
ATOM     22  C   UNL     1      -3.735 -11.710  12.765  0.00  0.00    +0.067 C 
BRANCH  22  26
ATOM     26  C   UNL     1      -4.025 -10.564  11.827  0.00  0.00    -0.045 A 
ATOM     28  C   UNL     1      -3.123 -10.265  10.818  0.00  0.00    +0.004 A 
ATOM     29  C   UNL     1      -5.189  -9.829  11.993  0.00  0.00    +0.004 A 
ATOM     30  C   UNL     1      -3.391  -9.205   9.952  0.00  0.00    +0.000 A 
ATOM     31  C   UNL     1      -5.457  -8.769  11.126  0.00  0.00    +0.000 A 
ATOM     32  C   UNL     1      -4.558  -8.457  10.106  0.00  0.00    +0.000 A 
ENDBRANCH  22  26
ENDBRANCH  20  22
ENDBRANCH   8  20
ENDBRANCH  11  17
BRANCH  12   7
ATOM      5  O   UNL     1      -9.948 -10.267  15.921  0.00  0.00    -0.274 OA
ATOM      7  N   UNL     1      -8.842  -9.273  17.699  0.00  0.00    -0.309 N 
ATOM     18  C   UNL     1      -9.822  -9.342  16.721  0.00  0.00    +0.231 C 
ATOM     33  H   UNL     1      -8.781  -8.443  18.282  0.00  0.00    +0.149 HD
BRANCH  18  19
ATOM     19  C   UNL     1     -10.742  -8.123  16.731  0.00  0.00    +0.143 C 
BRANCH  19   9
ATOM      9  N   UNL     1     -10.676  -7.527  15.394  0.00  0.00    -0.309 NA
ATOM     27  C   UNL     1     -10.674  -6.075  15.481  0.00  0.00    +0.101 C 
ATOM     38  H   UNL     1      -9.839  -7.839  14.904  0.00  0.00    +0.122 HD
ENDBRANCH  19   9
BRANCH  19  21
ATOM     21  C   UNL     1     -12.201  -8.463  17.121  0.00  0.00    +0.009 C 
ATOM     23  C   UNL     1     -13.016  -8.942  15.915  0.00  0.00    +0.009 C 
ATOM     24  C   UNL     1     -12.320  -9.481  18.262  0.00  0.00    +0.009 C 
ENDBRANCH  19  21
ENDBRANCH  18  19
ENDBRANCH  12   7
BRANCH  11   1
ATOM      1  O   UNL     1      -5.915 -12.330  16.748  0.00  0.00    -0.379 OA
ATOM     34  H   UNL     1      -5.118 -12.863  16.588  0.00  0.00    +0.211 HD
ENDBRANCH  11   1
BRANCH  14   2
ATOM      2  O   UNL     1      -8.560 -10.865  20.120  0.00  0.00    -0.387 OA
ATOM     35  H   UNL     1      -9.169 -11.309  19.505  0.00  0.00    +0.210 HD
ENDBRANCH  14   2
BRANCH  16   3
ATOM      3  O   UNL     1      -5.869 -11.317  20.931  0.00  0.00    -0.389 OA
ATOM     36  H   UNL     1      -6.661 -11.271  21.494  0.00  0.00    +0.210 HD
ENDBRANCH  16   3
TORSDOF 12
ENDMDL
MODEL 6
REMARK VINA RESULT:      -6.4     16.269     19.796
REMARK  Name = 11866358
REMARK  15 active torsions:
REMARK  status: ('A' for Active; 'I' for Inactive)
REMARK    1  A    between atoms: O_1  and  C_11
REMARK    2  A    between atoms: O_2  and  C_14
REMARK    3  A    between atoms: O_3  and  C_16
REMARK    4  A    between atoms: N_7  and  C_12
REMARK    5  A    between atoms: N_8  and  C_20
REMARK    6  A    between atoms: N_9  and  C_19
REMARK    7  A    between atoms: N_9  and  C_27
REMARK    8  A    between atoms: C_11  and  C_17
REMARK    9  A    between atoms: C_18  and  C_19
REMARK   10  A    between atoms: C_19  and  C_21
REMARK   11  A    between atoms: C_20  and  C_22
REMARK   12  A    between atoms: C_20  and  C_25
REMARK   13  A    between atoms: C_21  and  C_23
REMARK   14  A    between atoms: C_21  and  C_24
REMARK   15  A    between atoms: C_22  and  C_26
REMARK                            x       y       z     vdW  Elec       q    Type
REMARK                         _______ _______ _______ _____ _____    ______ ____
ROOT
ATOM     11  C   UNL     1      14.613   7.136   3.112  0.00  0.00    +0.146 C 
ATOM     12  C   UNL     1      13.370   7.327   5.321  0.00  0.00    +0.107 C 
ATOM     13  C   UNL     1      13.266   7.008   3.826  0.00  0.00    +0.069 C 
ATOM     14  C   UNL     1      14.018   8.696   5.568  0.00  0.00    +0.163 C 
ATOM     15  C   UNL     1      15.237   8.510   3.350  0.00  0.00    +0.078 C 
ATOM     16  C   UNL     1      15.356   8.838   4.839  0.00  0.00    +0.148 C 
ENDROOT
BRANCH  11  17
ATOM      4  O   UNL     1      13.822   7.647   0.917  0.00  0.00    -0.273 OA
ATOM      8  N   UNL     1      15.087   5.719   1.240  0.00  0.00    -0.301 N 
ATOM     17  C   UNL     1      14.460   6.886   1.641  0.00  0.00    +0.246 C 
ATOM     37  H   UNL     1      15.681   5.228   1.901  0.00  0.00    +0.150 HD
BRANCH   8  20
ATOM     20  C   UNL     1      15.068   5.239  -0.124  0.00  0.00    +0.163 C 
BRANCH  20  25
ATOM      6  O   UNL     1      16.921   3.953  -1.030  0.00  0.00    -0.274 OA
ATOM     10  N   UNL     1      17.313   6.109  -0.340  0.00  0.00    -0.328 N 
ATOM     25  C   UNL     1      16.514   5.002  -0.534  0.00  0.00    +0.231 C 
ATOM     39  H   UNL     1      16.957   6.977   0.048  0.00  0.00    +0.145 HD
ATOM     40  H   UNL     1      18.297   6.090  -0.586  0.00  0.00    +0.145 HD
ENDBRANCH  20  25
BRANCH  20  22
ATOM     22  C   UNL     1      14.251   3.950  -0.273  0.00  0.00    +0.067 C 
BRANCH  22  26
ATOM     26  C   UNL     1      12.945   3.998   0.479  0.00  0.00    -0.045 A 
ATOM     28  C   UNL     1      12.847   3.374   1.713  0.00  0.00    +0.004 A 
ATOM     29  C   UNL     1      11.864   4.663  -0.078  0.00  0.00    +0.004 A 
ATOM     30  C   UNL     1      11.639   3.417   2.409  0.00  0.00    +0.000 A 
ATOM     31  C   UNL     1      10.655   4.706   0.618  0.00  0.00    +0.000 A 
ATOM     32  C   UNL     1      10.542   4.083   1.861  0.00  0.00    +0.000 A 
ENDBRANCH  22  26
ENDBRANCH  20  22
ENDBRANCH   8  20
ENDBRANCH  11  17
BRANCH  12   7
ATOM      5  O   UNL     1      12.660   6.010   7.777  0.00  0.00    -0.274 OA
ATOM      7  N   UNL     1      12.057   7.268   5.925  0.00  0.00    -0.309 N 
ATOM     18  C   UNL     1      11.810   6.606   7.118  0.00  0.00    +0.231 C 
ATOM     33  H   UNL     1      11.281   7.688   5.422  0.00  0.00    +0.149 HD
BRANCH  18  19
ATOM     19  C   UNL     1      10.342   6.683   7.534  0.00  0.00    +0.143 C 
BRANCH  19   9
ATOM      9  N   UNL     1       9.736   7.770   6.762  0.00  0.00    -0.309 NA
ATOM     27  C   UNL     1       8.293   7.780   6.938  0.00  0.00    +0.101 C 
ATOM     38  H   UNL     1      10.119   8.670   7.048  0.00  0.00    +0.122 HD
ENDBRANCH  19   9
BRANCH  19  21
ATOM     21  C   UNL     1       9.578   5.353   7.326  0.00  0.00    +0.009 C 
ATOM     23  C   UNL     1       9.906   4.715   5.973  0.00  0.00    +0.009 C 
ATOM     24  C   UNL     1       9.793   4.329   8.447  0.00  0.00    +0.009 C 
ENDBRANCH  19  21
ENDBRANCH  18  19
ENDBRANCH  12   7
BRANCH  11   1
ATOM      1  O   UNL     1      15.514   6.132   3.564  0.00  0.00    -0.379 OA
ATOM     34  H   UNL     1      16.345   6.562   3.832  0.00  0.00    +0.211 HD
ENDBRANCH  11   1
BRANCH  14   2
ATOM      2  O   UNL     1      14.269   8.848   6.968  0.00  0.00    -0.387 OA
ATOM     35  H   UNL     1      14.072   9.771   7.200  0.00  0.00    +0.210 HD
ENDBRANCH  14   2
BRANCH  16   3
ATOM      3  O   UNL     1      15.806  10.186   4.980  0.00  0.00    -0.389 OA
ATOM     36  H   UNL     1      15.633  10.651   4.143  0.00  0.00    +0.210 HD
ENDBRANCH  16   3
TORSDOF 12
ENDMDL
MODEL 7
REMARK VINA RESULT:      -6.4     15.435     18.116
REMARK  Name = 11866358
REMARK  15 active torsions:
REMARK  status: ('A' for Active; 'I' for Inactive)
REMARK    1  A    between atoms: O_1  and  C_11
REMARK    2  A    between atoms: O_2  and  C_14
REMARK    3  A    between atoms: O_3  and  C_16
REMARK    4  A    between atoms: N_7  and  C_12
REMARK    5  A    between atoms: N_8  and  C_20
REMARK    6  A    between atoms: N_9  and  C_19
REMARK    7  A    between atoms: N_9  and  C_27
REMARK    8  A    between atoms: C_11  and  C_17
REMARK    9  A    between atoms: C_18  and  C_19
REMARK   10  A    between atoms: C_19  and  C_21
REMARK   11  A    between atoms: C_20  and  C_22
REMARK   12  A    between atoms: C_20  and  C_25
REMARK   13  A    between atoms: C_21  and  C_23
REMARK   14  A    between atoms: C_21  and  C_24
REMARK   15  A    between atoms: C_22  and  C_26
REMARK                            x       y       z     vdW  Elec       q    Type
REMARK                         _______ _______ _______ _____ _____    ______ ____
ROOT
ATOM     11  C   UNL     1      13.151   9.056   5.532  0.00  0.00    +0.146 C 
ATOM     12  C   UNL     1      14.070   7.437   3.802  0.00  0.00    +0.107 C 
ATOM     13  C   UNL     1      12.899   7.778   4.730  0.00  0.00    +0.069 C 
ATOM     14  C   UNL     1      15.401   7.380   4.561  0.00  0.00    +0.163 C 
ATOM     15  C   UNL     1      14.470   8.978   6.298  0.00  0.00    +0.078 C 
ATOM     16  C   UNL     1      15.649   8.647   5.383  0.00  0.00    +0.148 C 
ENDROOT
BRANCH  11  17
ATOM      4  O   UNL     1      12.208   9.754   7.612  0.00  0.00    -0.273 OA
ATOM      8  N   UNL     1      10.789   8.995   5.930  0.00  0.00    -0.301 N 
ATOM     17  C   UNL     1      12.018   9.320   6.479  0.00  0.00    +0.246 C 
ATOM     37  H   UNL     1      10.740   8.751   4.945  0.00  0.00    +0.150 HD
BRANCH   8  20
ATOM     20  C   UNL     1       9.541   9.133   6.646  0.00  0.00    +0.163 C 
BRANCH  20  25
ATOM      6  O   UNL     1       9.138  11.527   6.766  0.00  0.00    -0.274 OA
ATOM     10  N   UNL     1       8.125  10.325   5.091  0.00  0.00    -0.328 N 
ATOM     25  C   UNL     1       8.920  10.453   6.211  0.00  0.00    +0.231 C 
ATOM     39  H   UNL     1       7.974   9.434   4.629  0.00  0.00    +0.145 HD
ATOM     40  H   UNL     1       7.662  11.132   4.687  0.00  0.00    +0.145 HD
ENDBRANCH  20  25
BRANCH  20  22
ATOM     22  C   UNL     1       8.580   7.972   6.366  0.00  0.00    +0.067 C 
BRANCH  22  26
ATOM     26  C   UNL     1       9.020   6.682   7.013  0.00  0.00    -0.045 A 
ATOM     28  C   UNL     1       9.394   5.613   6.214  0.00  0.00    +0.004 A 
ATOM     29  C   UNL     1       9.040   6.589   8.396  0.00  0.00    +0.004 A 
ATOM     30  C   UNL     1       9.800   4.420   6.813  0.00  0.00    +0.000 A 
ATOM     31  C   UNL     1       9.446   5.396   8.994  0.00  0.00    +0.000 A 
ATOM     32  C   UNL     1       9.825   4.312   8.203  0.00  0.00    +0.000 A 
ENDBRANCH  22  26
ENDBRANCH  20  22
ENDBRANCH   8  20
ENDBRANCH  11  17
BRANCH  12   7
ATOM      5  O   UNL     1      12.574   7.054   1.375  0.00  0.00    -0.274 OA
ATOM      7  N   UNL     1      13.811   6.182   3.131  0.00  0.00    -0.309 N 
ATOM     18  C   UNL     1      13.076   6.095   1.959  0.00  0.00    +0.231 C 
ATOM     33  H   UNL     1      14.143   5.329   3.572  0.00  0.00    +0.149 HD
BRANCH  18  19
ATOM     19  C   UNL     1      12.939   4.657   1.461  0.00  0.00    +0.143 C 
BRANCH  19   9
ATOM      9  N   UNL     1      14.005   3.881   2.100  0.00  0.00    -0.309 NA
ATOM     27  C   UNL     1      15.070   3.598   1.152  0.00  0.00    +0.101 C 
ATOM     38  H   UNL     1      14.385   4.385   2.900  0.00  0.00    +0.122 HD
ENDBRANCH  19   9
BRANCH  19  21
ATOM     21  C   UNL     1      11.548   4.042   1.748  0.00  0.00    +0.009 C 
ATOM     23  C   UNL     1      11.047   4.398   3.151  0.00  0.00    +0.009 C 
ATOM     24  C   UNL     1      10.480   4.404   0.710  0.00  0.00    +0.009 C 
ENDBRANCH  19  21
ENDBRANCH  18  19
ENDBRANCH  12   7
BRANCH  11   1
ATOM      1  O   UNL     1      13.181  10.188   4.670  0.00  0.00    -0.379 OA
ATOM     34  H   UNL     1      13.517  10.949   5.173  0.00  0.00    +0.211 HD
ENDBRANCH  11   1
BRANCH  14   2
ATOM      2  O   UNL     1      16.471   7.258   3.619  0.00  0.00    -0.387 OA
ATOM     35  H   UNL     1      16.894   6.395   3.769  0.00  0.00    +0.210 HD
ENDBRANCH  14   2
BRANCH  16   3
ATOM      3  O   UNL     1      16.814   8.446   6.184  0.00  0.00    -0.389 OA
ATOM     36  H   UNL     1      16.526   8.281   7.099  0.00  0.00    +0.210 HD
ENDBRANCH  16   3
TORSDOF 12
ENDMDL
MODEL 8
REMARK VINA RESULT:      -6.3     26.417     30.757
REMARK  Name = 11866358
REMARK  15 active torsions:
REMARK  status: ('A' for Active; 'I' for Inactive)
REMARK    1  A    between atoms: O_1  and  C_11
REMARK    2  A    between atoms: O_2  and  C_14
REMARK    3  A    between atoms: O_3  and  C_16
REMARK    4  A    between atoms: N_7  and  C_12
REMARK    5  A    between atoms: N_8  and  C_20
REMARK    6  A    between atoms: N_9  and  C_19
REMARK    7  A    between atoms: N_9  and  C_27
REMARK    8  A    between atoms: C_11  and  C_17
REMARK    9  A    between atoms: C_18  and  C_19
REMARK   10  A    between atoms: C_19  and  C_21
REMARK   11  A    between atoms: C_20  and  C_22
REMARK   12  A    between atoms: C_20  and  C_25
REMARK   13  A    between atoms: C_21  and  C_23
REMARK   14  A    between atoms: C_21  and  C_24
REMARK   15  A    between atoms: C_22  and  C_26
REMARK                            x       y       z     vdW  Elec       q    Type
REMARK                         _______ _______ _______ _____ _____    ______ ____
ROOT
ATOM     11  C   UNL     1      -5.561 -11.442  16.513  0.00  0.00    +0.146 C 
ATOM     12  C   UNL     1      -7.587 -11.422  18.047  0.00  0.00    +0.107 C 
ATOM     13  C   UNL     1      -6.895 -10.772  16.843  0.00  0.00    +0.069 C 
ATOM     14  C   UNL     1      -6.663 -11.486  19.269  0.00  0.00    +0.163 C 
ATOM     15  C   UNL     1      -4.643 -11.482  17.733  0.00  0.00    +0.078 C 
ATOM     16  C   UNL     1      -5.317 -12.137  18.939  0.00  0.00    +0.148 C 
ENDROOT
BRANCH  11  17
ATOM      4  O   UNL     1      -5.477  -9.937  14.660  0.00  0.00    -0.273 OA
ATOM      8  N   UNL     1      -3.555 -11.116  15.243  0.00  0.00    -0.301 N 
ATOM     17  C   UNL     1      -4.880 -10.737  15.377  0.00  0.00    +0.246 C 
ATOM     37  H   UNL     1      -3.136 -11.700  15.960  0.00  0.00    +0.150 HD
BRANCH   8  20
ATOM     20  C   UNL     1      -2.686 -10.601  14.209  0.00  0.00    +0.163 C 
BRANCH  20  25
ATOM      6  O   UNL     1      -0.756  -9.163  14.552  0.00  0.00    -0.274 OA
ATOM     10  N   UNL     1      -1.060 -10.950  15.964  0.00  0.00    -0.328 N 
ATOM     25  C   UNL     1      -1.400 -10.154  14.890  0.00  0.00    +0.231 C 
ATOM     39  H   UNL     1      -1.615 -11.751  16.245  0.00  0.00    +0.145 HD
ATOM     40  H   UNL     1      -0.231 -10.754  16.515  0.00  0.00    +0.145 HD
ENDBRANCH  20  25
BRANCH  20  22
ATOM     22  C   UNL     1      -2.383 -11.647  13.130  0.00  0.00    +0.067 C 
BRANCH  22  26
ATOM     26  C   UNL     1      -2.965 -11.283  11.786  0.00  0.00    -0.045 A 
ATOM     28  C   UNL     1      -3.570 -12.265  11.018  0.00  0.00    +0.004 A 
ATOM     29  C   UNL     1      -2.883  -9.972  11.343  0.00  0.00    +0.004 A 
ATOM     30  C   UNL     1      -4.108 -11.929   9.776  0.00  0.00    +0.000 A 
ATOM     31  C   UNL     1      -3.420  -9.636  10.101  0.00  0.00    +0.000 A 
ATOM     32  C   UNL     1      -4.032 -10.614   9.316  0.00  0.00    +0.000 A 
ENDBRANCH  22  26
ENDBRANCH  20  22
ENDBRANCH   8  20
ENDBRANCH  11  17
BRANCH  12   7
ATOM      5  O   UNL     1     -10.072 -11.511  16.601  0.00  0.00    -0.274 OA
ATOM      7  N   UNL     1      -8.800 -10.699  18.362  0.00  0.00    -0.309 N 
ATOM     18  C   UNL     1      -9.955 -10.806  17.602  0.00  0.00    +0.231 C 
ATOM     33  H   UNL     1      -8.778 -10.050  19.143  0.00  0.00    +0.149 HD
BRANCH  18  19
ATOM     19  C   UNL     1     -11.088  -9.934  18.140  0.00  0.00    +0.143 C 
BRANCH  19   9
ATOM      9  N   UNL     1     -10.820  -9.713  19.563  0.00  0.00    -0.309 NA
ATOM     27  C   UNL     1     -11.999 -10.011  20.359  0.00  0.00    +0.101 C 
ATOM     38  H   UNL     1     -10.043 -10.294  19.875  0.00  0.00    +0.122 HD
ENDBRANCH  19   9
BRANCH  19  21
ATOM     21  C   UNL     1     -11.238  -8.592  17.382  0.00  0.00    +0.009 C 
ATOM     23  C   UNL     1      -9.904  -7.848  17.276  0.00  0.00    +0.009 C 
ATOM     24  C   UNL     1     -11.866  -8.729  15.990  0.00  0.00    +0.009 C 
ENDBRANCH  19  21
ENDBRANCH  18  19
ENDBRANCH  12   7
BRANCH  11   1
ATOM      1  O   UNL     1      -5.772 -12.771  16.047  0.00  0.00    -0.379 OA
ATOM     34  H   UNL     1      -6.194 -13.282  16.758  0.00  0.00    +0.211 HD
ENDBRANCH  11   1
BRANCH  14   2
ATOM      2  O   UNL     1      -7.288 -12.275  20.286  0.00  0.00    -0.387 OA
ATOM     35  H   UNL     1      -8.106 -11.820  20.547  0.00  0.00    +0.210 HD
ENDBRANCH  14   2
BRANCH  16   3
ATOM      3  O   UNL     1      -4.461 -12.005  20.075  0.00  0.00    -0.389 OA
ATOM     36  H   UNL     1      -3.649 -11.553  19.789  0.00  0.00    +0.210 HD
ENDBRANCH  16   3
TORSDOF 12
ENDMDL
MODEL 9
REMARK VINA RESULT:      -6.2      4.128      7.467
REMARK  Name = 11866358
REMARK  15 active torsions:
REMARK  status: ('A' for Active; 'I' for Inactive)
REMARK    1  A    between atoms: O_1  and  C_11
REMARK    2  A    between atoms: O_2  and  C_14
REMARK    3  A    between atoms: O_3  and  C_16
REMARK    4  A    between atoms: N_7  and  C_12
REMARK    5  A    between atoms: N_8  and  C_20
REMARK    6  A    between atoms: N_9  and  C_19
REMARK    7  A    between atoms: N_9  and  C_27
REMARK    8  A    between atoms: C_11  and  C_17
REMARK    9  A    between atoms: C_18  and  C_19
REMARK   10  A    between atoms: C_19  and  C_21
REMARK   11  A    between atoms: C_20  and  C_22
REMARK   12  A    between atoms: C_20  and  C_25
REMARK   13  A    between atoms: C_21  and  C_23
REMARK   14  A    between atoms: C_21  and  C_24
REMARK   15  A    between atoms: C_22  and  C_26
REMARK                            x       y       z     vdW  Elec       q    Type
REMARK                         _______ _______ _______ _____ _____    ______ ____
ROOT
ATOM     11  C   UNL     1      13.039  11.111  22.497  0.00  0.00    +0.146 C 
ATOM     12  C   UNL     1      13.580  12.039  24.800  0.00  0.00    +0.107 C 
ATOM     13  C   UNL     1      13.895  10.962  23.756  0.00  0.00    +0.069 C 
ATOM     14  C   UNL     1      12.083  12.093  25.130  0.00  0.00    +0.163 C 
ATOM     15  C   UNL     1      11.551  11.143  22.839  0.00  0.00    +0.078 C 
ATOM     16  C   UNL     1      11.221  12.220  23.872  0.00  0.00    +0.148 C 
ENDROOT
BRANCH  11  17
ATOM      4  O   UNL     1      13.355  10.191  20.315  0.00  0.00    -0.273 OA
ATOM      8  N   UNL     1      13.511   8.785  22.165  0.00  0.00    -0.301 N 
ATOM     17  C   UNL     1      13.323  10.001  21.529  0.00  0.00    +0.246 C 
ATOM     37  H   UNL     1      13.574   8.766  23.179  0.00  0.00    +0.150 HD
BRANCH   8  20
ATOM     20  C   UNL     1      13.774   7.554  21.456  0.00  0.00    +0.163 C 
BRANCH  20  25
ATOM      6  O   UNL     1      11.485   6.909  21.958  0.00  0.00    -0.274 OA
ATOM     10  N   UNL     1      12.356   6.362  19.904  0.00  0.00    -0.328 N 
ATOM     25  C   UNL     1      12.427   6.907  21.169  0.00  0.00    +0.231 C 
ATOM     39  H   UNL     1      13.135   6.389  19.254  0.00  0.00    +0.145 HD
ATOM     40  H   UNL     1      11.507   5.911  19.579  0.00  0.00    +0.145 HD
ENDBRANCH  20  25
BRANCH  20  22
ATOM     22  C   UNL     1      14.544   7.789  20.151  0.00  0.00    +0.067 C 
BRANCH  22  26
ATOM     26  C   UNL     1      15.911   7.150  20.157  0.00  0.00    -0.045 A 
ATOM     28  C   UNL     1      16.291   6.345  19.095  0.00  0.00    +0.004 A 
ATOM     29  C   UNL     1      16.762   7.378  21.227  0.00  0.00    +0.004 A 
ATOM     30  C   UNL     1      17.554   5.754  19.101  0.00  0.00    +0.000 A 
ATOM     31  C   UNL     1      18.025   6.786  21.234  0.00  0.00    +0.000 A 
ATOM     32  C   UNL     1      18.421   5.974  20.171  0.00  0.00    +0.000 A 
ENDBRANCH  22  26
ENDBRANCH  20  22
ENDBRANCH   8  20
ENDBRANCH  11  17
BRANCH  12   7
ATOM      5  O   UNL     1      14.905  14.016  26.416  0.00  0.00    -0.274 OA
ATOM      7  N   UNL     1      14.358  11.802  25.996  0.00  0.00    -0.309 N 
ATOM     18  C   UNL     1      14.963  12.824  26.712  0.00  0.00    +0.231 C 
ATOM     33  H   UNL     1      14.505  10.840  26.286  0.00  0.00    +0.149 HD
BRANCH  18  19
ATOM     19  C   UNL     1      15.733  12.308  27.926  0.00  0.00    +0.143 C 
BRANCH  19   9
ATOM      9  N   UNL     1      14.774  11.588  28.767  0.00  0.00    -0.309 NA
ATOM     27  C   UNL     1      14.523  12.318  29.998  0.00  0.00    +0.101 C 
ATOM     38  H   UNL     1      13.896  11.448  28.269  0.00  0.00    +0.122 HD
ENDBRANCH  19   9
BRANCH  19  21
ATOM     21  C   UNL     1      16.935  11.408  27.549  0.00  0.00    +0.009 C 
ATOM     23  C   UNL     1      18.078  12.215  26.928  0.00  0.00    +0.009 C 
ATOM     24  C   UNL     1      17.470  10.564  28.712  0.00  0.00    +0.009 C 
ENDBRANCH  19  21
ENDBRANCH  18  19
ENDBRANCH  12   7
BRANCH  11   1
ATOM      1  O   UNL     1      13.381  12.304  21.799  0.00  0.00    -0.379 OA
ATOM     34  H   UNL     1      12.570  12.819  21.654  0.00  0.00    +0.211 HD
ENDBRANCH  11   1
BRANCH  14   2
ATOM      2  O   UNL     1      11.826  13.238  25.949  0.00  0.00    -0.387 OA
ATOM     35  H   UNL     1      12.566  13.320  26.575  0.00  0.00    +0.210 HD
ENDBRANCH  14   2
BRANCH  16   3
ATOM      3  O   UNL     1       9.850  12.093  24.250  0.00  0.00    -0.389 OA
ATOM     36  H   UNL     1       9.449  12.979  24.235  0.00  0.00    +0.210 HD
ENDBRANCH  16   3
TORSDOF 12
ENDMDL
MODEL 10
REMARK VINA RESULT:      -6.1     15.890     18.918
REMARK  Name = 11866358
REMARK  15 active torsions:
REMARK  status: ('A' for Active; 'I' for Inactive)
REMARK    1  A    between atoms: O_1  and  C_11
REMARK    2  A    between atoms: O_2  and  C_14
REMARK    3  A    between atoms: O_3  and  C_16
REMARK    4  A    between atoms: N_7  and  C_12
REMARK    5  A    between atoms: N_8  and  C_20
REMARK    6  A    between atoms: N_9  and  C_19
REMARK    7  A    between atoms: N_9  and  C_27
REMARK    8  A    between atoms: C_11  and  C_17
REMARK    9  A    between atoms: C_18  and  C_19
REMARK   10  A    between atoms: C_19  and  C_21
REMARK   11  A    between atoms: C_20  and  C_22
REMARK   12  A    between atoms: C_20  and  C_25
REMARK   13  A    between atoms: C_21  and  C_23
REMARK   14  A    between atoms: C_21  and  C_24
REMARK   15  A    between atoms: C_22  and  C_26
REMARK                            x       y       z     vdW  Elec       q    Type
REMARK                         _______ _______ _______ _____ _____    ______ ____
ROOT
ATOM     11  C   UNL     1      14.047   7.619   5.505  0.00  0.00    +0.146 C 
ATOM     12  C   UNL     1      15.136   7.355   3.224  0.00  0.00    +0.107 C 
ATOM     13  C   UNL     1      14.212   6.727   4.273  0.00  0.00    +0.069 C 
ATOM     14  C   UNL     1      16.490   7.756   3.823  0.00  0.00    +0.163 C 
ATOM     15  C   UNL     1      15.401   7.994   6.103  0.00  0.00    +0.078 C 
ATOM     16  C   UNL     1      16.331   8.631   5.069  0.00  0.00    +0.148 C 
ENDROOT
BRANCH  11  17
ATOM      4  O   UNL     1      13.685   6.363   7.504  0.00  0.00    -0.273 OA
ATOM      8  N   UNL     1      11.845   7.038   6.249  0.00  0.00    -0.301 N 
ATOM     17  C   UNL     1      13.195   6.943   6.538  0.00  0.00    +0.246 C 
ATOM     37  H   UNL     1      11.547   7.637   5.484  0.00  0.00    +0.150 HD
BRANCH   8  20
ATOM     20  C   UNL     1      10.815   6.449   7.074  0.00  0.00    +0.163 C 
BRANCH  20  25
ATOM      6  O   UNL     1      10.462   8.743   7.795  0.00  0.00    -0.274 OA
ATOM     10  N   UNL     1       8.768   7.223   8.101  0.00  0.00    -0.328 N 
ATOM     25  C   UNL     1      10.033   7.596   7.700  0.00  0.00    +0.231 C 
ATOM     39  H   UNL     1       8.419   6.276   7.994  0.00  0.00    +0.145 HD
ATOM     40  H   UNL     1       8.136   7.896   8.522  0.00  0.00    +0.145 HD
ENDBRANCH  20  25
BRANCH  20  22
ATOM     22  C   UNL     1       9.877   5.539   6.272  0.00  0.00    +0.067 C 
BRANCH  22  26
ATOM     26  C   UNL     1       9.950   5.793   4.786  0.00  0.00    -0.045 A 
ATOM     28  C   UNL     1       9.283   6.882   4.248  0.00  0.00    +0.004 A 
ATOM     29  C   UNL     1      10.682   4.930   3.985  0.00  0.00    +0.004 A 
ATOM     30  C   UNL     1       9.350   7.116   2.875  0.00  0.00    +0.000 A 
ATOM     31  C   UNL     1      10.749   5.164   2.612  0.00  0.00    +0.000 A 
ATOM     32  C   UNL     1      10.082   6.256   2.056  0.00  0.00    +0.000 A 
ENDBRANCH  22  26
ENDBRANCH  20  22
ENDBRANCH   8  20
ENDBRANCH  11  17
BRANCH  12   7
ATOM      5  O   UNL     1      13.355   6.952   1.002  0.00  0.00    -0.274 OA
ATOM      7  N   UNL     1      15.318   6.436   2.121  0.00  0.00    -0.309 N 
ATOM     18  C   UNL     1      14.400   6.311   1.090  0.00  0.00    +0.231 C 
ATOM     33  H   UNL     1      16.130   5.826   2.139  0.00  0.00    +0.149 HD
BRANCH  18  19
ATOM     19  C   UNL     1      14.822   5.266   0.058  0.00  0.00    +0.143 C 
BRANCH  19   9
ATOM      9  N   UNL     1      16.257   5.037   0.244  0.00  0.00    -0.309 NA
ATOM     27  C   UNL     1      16.757   4.095  -0.744  0.00  0.00    +0.101 C 
ATOM     38  H   UNL     1      16.772   5.913   0.171  0.00  0.00    +0.122 HD
ENDBRANCH  19   9
BRANCH  19  21
ATOM     21  C   UNL     1      14.024   3.945   0.167  0.00  0.00    +0.009 C 
ATOM     23  C   UNL     1      13.895   3.476   1.619  0.00  0.00    +0.009 C 
ATOM     24  C   UNL     1      12.637   3.999  -0.485  0.00  0.00    +0.009 C 
ENDBRANCH  19  21
ENDBRANCH  18  19
ENDBRANCH  12   7
BRANCH  11   1
ATOM      1  O   UNL     1      13.342   8.809   5.168  0.00  0.00    -0.379 OA
ATOM     34  H   UNL     1      13.963   9.424   4.742  0.00  0.00    +0.211 HD
ENDBRANCH  11   1
BRANCH  14   2
ATOM      2  O   UNL     1      17.224   8.511   2.855  0.00  0.00    -0.387 OA
ATOM     35  H   UNL     1      16.929   9.435   2.921  0.00  0.00    +0.210 HD
ENDBRANCH  14   2
BRANCH  16   3
ATOM      3  O   UNL     1      17.618   8.816   5.658  0.00  0.00    -0.389 OA
ATOM     36  H   UNL     1      18.183   9.272   5.010  0.00  0.00    +0.210 HD
ENDBRANCH  16   3
TORSDOF 12
ENDMDL
