MODEL 1
REMARK VINA RESULT:      -6.3      0.000      0.000
REMARK  Name = 51136625
REMARK  12 active torsions:
REMARK  status: ('A' for Active; 'I' for Inactive)
REMARK    1  A    between atoms: O_1  and  C_20
REMARK    2  A    between atoms: O_4  and  C_26
REMARK    3  A    between atoms: O_4  and  C_33
REMARK    4  A    between atoms: O_5  and  C_27
REMARK    5  A    between atoms: O_5  and  C_34
REMARK    6  A    between atoms: O_6  and  C_31
REMARK    7  A    between atoms: O_6  and  C_36
REMARK    8  A    between atoms: N_9  and  C_28
REMARK    9  A    between atoms: C_10  and  C_15
REMARK   10  A    between atoms: C_11  and  C_16
REMARK   11  A    between atoms: C_15  and  C_17
REMARK   12  A    between atoms: C_16  and  C_20
REMARK                            x       y       z     vdW  Elec       q    Type
REMARK                         _______ _______ _______ _____ _____    ______ ____
ROOT
ATOM      2  O   UNL     1      16.513  13.121  19.068  0.00  0.00    -0.252 OA
ATOM      7  N   UNL     1      15.260  13.013  17.130  0.00  0.00    -0.285 N 
ATOM      9  N   UNL     1      14.409  12.147  19.152  0.00  0.00    -0.269 N 
ATOM     10  C   UNL     1      14.370  11.729  15.205  0.00  0.00    +0.016 C 
ATOM     11  C   UNL     1      15.494  12.338  14.325  0.00  0.00    +0.006 C 
ATOM     12  C   UNL     1      16.714  12.756  15.165  0.00  0.00    +0.023 C 
ATOM     13  C   UNL     1      14.047  12.688  16.364  0.00  0.00    +0.113 C 
ATOM     14  C   UNL     1      16.310  13.652  16.336  0.00  0.00    +0.109 C 
ATOM     18  C   UNL     1      15.465  12.790  18.507  0.00  0.00    +0.306 C 
ATOM     37  H   UNL     1      13.470  12.281  18.793  0.00  0.00    +0.156 HD
ENDROOT
BRANCH   9  28
ATOM     28  C   UNL     1      14.483  11.288  20.276  0.00  0.00    +0.038 A 
ATOM     29  C   UNL     1      13.316  10.901  20.936  0.00  0.00    +0.069 A 
ATOM     30  C   UNL     1      15.721  10.828  20.722  0.00  0.00    +0.023 A 
ATOM     31  C   UNL     1      13.389  10.055  22.042  0.00  0.00    +0.122 A 
ATOM     32  C   UNL     1      15.794   9.981  21.828  0.00  0.00    +0.005 A 
ATOM     35  C   UNL     1      14.628   9.594  22.489  0.00  0.00    +0.046 A 
BRANCH  31   6
ATOM      6  O   UNL     1      12.251   9.679  22.688  0.00  0.00    -0.495 OA
ATOM     36  C   UNL     1      11.019   9.866  21.993  0.00  0.00    +0.277 C 
ENDBRANCH  31   6
ENDBRANCH   9  28
BRANCH  10  15
ATOM     15  C   UNL     1      14.686  10.328  15.741  0.00  0.00    +0.061 C 
BRANCH  15  17
ATOM      8  N   UNL     1      12.402   9.741  15.289  0.00  0.00    -0.287 NA
ATOM     17  C   UNL     1      13.405   9.612  16.094  0.00  0.00    +0.044 C 
ATOM     19  C   UNL     1      13.356   8.808  17.341  0.00  0.00    +0.003 A 
ATOM     21  C   UNL     1      12.085   8.486  17.835  0.00  0.00    -0.033 A 
ATOM     22  C   UNL     1      10.878   8.980  17.095  0.00  0.00    +0.059 C 
ATOM     23  C   UNL     1      11.176   8.996  15.601  0.00  0.00    +0.146 C 
ATOM     24  C   UNL     1      14.504   8.390  18.017  0.00  0.00    +0.059 A 
ATOM     25  C   UNL     1      11.970   7.765  19.027  0.00  0.00    +0.053 A 
ATOM     26  C   UNL     1      14.379   7.657  19.197  0.00  0.00    +0.162 A 
ATOM     27  C   UNL     1      13.116   7.348  19.703  0.00  0.00    +0.162 A 
BRANCH  26   4
ATOM      4  O   UNL     1      15.503   7.250  19.853  0.00  0.00    -0.491 OA
ATOM     33  C   UNL     1      16.328   6.294  19.190  0.00  0.00    +0.277 C 
ENDBRANCH  26   4
BRANCH  27   5
ATOM      5  O   UNL     1      12.989   6.640  20.860  0.00  0.00    -0.491 OA
ATOM     34  C   UNL     1      11.663   6.348  21.299  0.00  0.00    +0.277 C 
ENDBRANCH  27   5
ENDBRANCH  15  17
ENDBRANCH  10  15
BRANCH  11  16
ATOM     16  C   UNL     1      15.919  11.425  13.176  0.00  0.00    +0.124 C 
BRANCH  16  20
ATOM      3  O   UNL     1      16.443  12.667  11.146  0.00  0.00    -0.251 OA
ATOM     20  C   UNL     1      15.645  12.052  11.838  0.00  0.00    +0.305 C 
BRANCH  20   1
ATOM      1  O   UNL     1      14.351  11.839  11.488  0.00  0.00    -0.481 OA
ATOM     38  H   UNL     1      13.848  12.677  11.414  0.00  0.00    +0.295 HD
ENDBRANCH  20   1
ENDBRANCH  16  20
ENDBRANCH  11  16
TORSDOF 9
ENDMDL
MODEL 2
REMARK VINA RESULT:      -6.0     27.457     30.438
REMARK  Name = 51136625
REMARK  12 active torsions:
REMARK  status: ('A' for Active; 'I' for Inactive)
REMARK    1  A    between atoms: O_1  and  C_20
REMARK    2  A    between atoms: O_4  and  C_26
REMARK    3  A    between atoms: O_4  and  C_33
REMARK    4  A    between atoms: O_5  and  C_27
REMARK    5  A    between atoms: O_5  and  C_34
REMARK    6  A    between atoms: O_6  and  C_31
REMARK    7  A    between atoms: O_6  and  C_36
REMARK    8  A    between atoms: N_9  and  C_28
REMARK    9  A    between atoms: C_10  and  C_15
REMARK   10  A    between atoms: C_11  and  C_16
REMARK   11  A    between atoms: C_15  and  C_17
REMARK   12  A    between atoms: C_16  and  C_20
REMARK                            x       y       z     vdW  Elec       q    Type
REMARK                         _______ _______ _______ _____ _____    ______ ____
ROOT
ATOM      2  O   UNL     1      -7.725 -10.250  13.105  0.00  0.00    -0.252 OA
ATOM      7  N   UNL     1      -6.923  -9.838  15.233  0.00  0.00    -0.285 N 
ATOM      9  N   UNL     1      -5.435 -10.050  13.415  0.00  0.00    -0.269 N 
ATOM     10  C   UNL     1      -5.844 -10.627  17.321  0.00  0.00    +0.016 C 
ATOM     11  C   UNL     1      -7.250 -10.706  17.974  0.00  0.00    +0.006 C 
ATOM     12  C   UNL     1      -8.359 -10.896  16.924  0.00  0.00    +0.023 C 
ATOM     13  C   UNL     1      -5.854  -9.567  16.206  0.00  0.00    +0.113 C 
ATOM     14  C   UNL     1      -8.266  -9.850  15.814  0.00  0.00    +0.109 C 
ATOM     18  C   UNL     1      -6.760 -10.052  13.848  0.00  0.00    +0.306 C 
ATOM     37  H   UNL     1      -4.760  -9.491  13.926  0.00  0.00    +0.156 HD
ENDROOT
BRANCH   9  28
ATOM     28  C   UNL     1      -4.886 -10.766  12.323  0.00  0.00    +0.038 A 
ATOM     29  C   UNL     1      -5.367 -12.037  12.010  0.00  0.00    +0.069 A 
ATOM     30  C   UNL     1      -3.864 -10.201  11.561  0.00  0.00    +0.023 A 
ATOM     31  C   UNL     1      -4.826 -12.743  10.935  0.00  0.00    +0.122 A 
ATOM     32  C   UNL     1      -3.323 -10.906  10.485  0.00  0.00    +0.005 A 
ATOM     35  C   UNL     1      -3.804 -12.177  10.172  0.00  0.00    +0.046 A 
BRANCH  31   6
ATOM      6  O   UNL     1      -5.295 -13.984  10.631  0.00  0.00    -0.495 OA
ATOM     36  C   UNL     1      -4.613 -14.703   9.606  0.00  0.00    +0.277 C 
ENDBRANCH  31   6
ENDBRANCH   9  28
BRANCH  10  15
ATOM     15  C   UNL     1      -5.330 -11.967  16.783  0.00  0.00    +0.061 C 
BRANCH  15  17
ATOM      8  N   UNL     1      -3.211 -10.839  16.703  0.00  0.00    -0.287 NA
ATOM     17  C   UNL     1      -3.937 -11.797  16.227  0.00  0.00    +0.044 C 
ATOM     19  C   UNL     1      -3.473 -12.723  15.164  0.00  0.00    +0.003 A 
ATOM     21  C   UNL     1      -2.364 -12.316  14.411  0.00  0.00    -0.033 A 
ATOM     22  C   UNL     1      -1.738 -10.987  14.712  0.00  0.00    +0.059 C 
ATOM     23  C   UNL     1      -1.837 -10.711  16.207  0.00  0.00    +0.146 C 
ATOM     24  C   UNL     1      -4.101 -13.941  14.896  0.00  0.00    +0.059 A 
ATOM     25  C   UNL     1      -1.902 -13.125  13.369  0.00  0.00    +0.053 A 
ATOM     26  C   UNL     1      -3.623 -14.749  13.864  0.00  0.00    +0.162 A 
ATOM     27  C   UNL     1      -2.528 -14.341  13.100  0.00  0.00    +0.162 A 
BRANCH  26   4
ATOM      4  O   UNL     1      -4.237 -15.939  13.608  0.00  0.00    -0.491 OA
ATOM     33  C   UNL     1      -5.661 -15.927  13.522  0.00  0.00    +0.277 C 
ENDBRANCH  26   4
BRANCH  27   5
ATOM      5  O   UNL     1      -2.063 -15.123  12.086  0.00  0.00    -0.491 OA
ATOM     34  C   UNL     1      -0.962 -15.980  12.382  0.00  0.00    +0.277 C 
ENDBRANCH  27   5
ENDBRANCH  15  17
ENDBRANCH  10  15
BRANCH  11  16
ATOM     16  C   UNL     1      -7.347 -11.776  19.061  0.00  0.00    +0.124 C 
BRANCH  16  20
ATOM      3  O   UNL     1      -9.461 -12.722  19.822  0.00  0.00    -0.251 OA
ATOM     20  C   UNL     1      -8.697 -11.773  19.723  0.00  0.00    +0.305 C 
BRANCH  20   1
ATOM      1  O   UNL     1      -8.964 -10.536  20.214  0.00  0.00    -0.481 OA
ATOM     38  H   UNL     1      -8.330  -9.866  19.882  0.00  0.00    +0.295 HD
ENDBRANCH  20   1
ENDBRANCH  16  20
ENDBRANCH  11  16
TORSDOF 9
ENDMDL
MODEL 3
REMARK VINA RESULT:      -5.9      2.129      2.981
REMARK  Name = 51136625
REMARK  12 active torsions:
REMARK  status: ('A' for Active; 'I' for Inactive)
REMARK    1  A    between atoms: O_1  and  C_20
REMARK    2  A    between atoms: O_4  and  C_26
REMARK    3  A    between atoms: O_4  and  C_33
REMARK    4  A    between atoms: O_5  and  C_27
REMARK    5  A    between atoms: O_5  and  C_34
REMARK    6  A    between atoms: O_6  and  C_31
REMARK    7  A    between atoms: O_6  and  C_36
REMARK    8  A    between atoms: N_9  and  C_28
REMARK    9  A    between atoms: C_10  and  C_15
REMARK   10  A    between atoms: C_11  and  C_16
REMARK   11  A    between atoms: C_15  and  C_17
REMARK   12  A    between atoms: C_16  and  C_20
REMARK                            x       y       z     vdW  Elec       q    Type
REMARK                         _______ _______ _______ _____ _____    ______ ____
ROOT
ATOM      2  O   UNL     1      13.919  14.398  21.597  0.00  0.00    -0.252 OA
ATOM      7  N   UNL     1      14.212  14.178  19.315  0.00  0.00    -0.285 N 
ATOM      9  N   UNL     1      12.409  13.109  20.396  0.00  0.00    -0.269 N 
ATOM     10  C   UNL     1      14.943  12.852  17.352  0.00  0.00    +0.016 C 
ATOM     11  C   UNL     1      16.267  13.663  17.342  0.00  0.00    +0.006 C 
ATOM     12  C   UNL     1      16.600  14.230  18.734  0.00  0.00    +0.023 C 
ATOM     13  C   UNL     1      13.824  13.701  17.979  0.00  0.00    +0.113 C 
ATOM     14  C   UNL     1      15.420  15.003  19.323  0.00  0.00    +0.109 C 
ATOM     18  C   UNL     1      13.527  13.933  20.523  0.00  0.00    +0.306 C 
ATOM     37  H   UNL     1      11.904  13.110  19.517  0.00  0.00    +0.156 HD
ENDROOT
BRANCH   9  28
ATOM     28  C   UNL     1      11.877  12.225  21.368  0.00  0.00    +0.038 A 
ATOM     29  C   UNL     1      11.299  12.734  22.531  0.00  0.00    +0.069 A 
ATOM     30  C   UNL     1      11.934  10.847  21.162  0.00  0.00    +0.023 A 
ATOM     31  C   UNL     1      10.776  11.864  23.488  0.00  0.00    +0.122 A 
ATOM     32  C   UNL     1      11.411   9.977  22.119  0.00  0.00    +0.005 A 
ATOM     35  C   UNL     1      10.832  10.484  23.282  0.00  0.00    +0.046 A 
BRANCH  31   6
ATOM      6  O   UNL     1      10.213  12.360  24.623  0.00  0.00    -0.495 OA
ATOM     36  C   UNL     1      10.516  13.712  24.960  0.00  0.00    +0.277 C 
ENDBRANCH  31   6
ENDBRANCH   9  28
BRANCH  10  15
ATOM     15  C   UNL     1      15.048  11.495  18.059  0.00  0.00    +0.061 C 
BRANCH  15  17
ATOM      8  N   UNL     1      13.771  10.721  16.178  0.00  0.00    -0.287 NA
ATOM     17  C   UNL     1      14.118  10.502  17.404  0.00  0.00    +0.044 C 
ATOM     19  C   UNL     1      13.645   9.337  18.193  0.00  0.00    +0.003 A 
ATOM     21  C   UNL     1      12.513   8.667  17.713  0.00  0.00    -0.033 A 
ATOM     22  C   UNL     1      11.854   9.170  16.463  0.00  0.00    +0.059 C 
ATOM     23  C   UNL     1      12.917   9.724  15.522  0.00  0.00    +0.146 C 
ATOM     24  C   UNL     1      14.271   8.917  19.368  0.00  0.00    +0.059 A 
ATOM     25  C   UNL     1      11.994   7.586  18.431  0.00  0.00    +0.053 A 
ATOM     26  C   UNL     1      13.755   7.827  20.070  0.00  0.00    +0.162 A 
ATOM     27  C   UNL     1      12.618   7.165  19.605  0.00  0.00    +0.162 A 
BRANCH  26   4
ATOM      4  O   UNL     1      14.371   7.418  21.216  0.00  0.00    -0.491 OA
ATOM     33  C   UNL     1      14.828   8.436  22.104  0.00  0.00    +0.277 C 
ENDBRANCH  26   4
BRANCH  27   5
ATOM      5  O   UNL     1      12.105   6.106  20.292  0.00  0.00    -0.491 OA
ATOM     34  C   UNL     1      11.223   6.402  21.373  0.00  0.00    +0.277 C 
ENDBRANCH  27   5
ENDBRANCH  15  17
ENDBRANCH  10  15
BRANCH  11  16
ATOM     16  C   UNL     1      17.451  12.874  16.784  0.00  0.00    +0.124 C 
BRANCH  16  20
ATOM      3  O   UNL     1      16.922  11.504  14.840  0.00  0.00    -0.251 OA
ATOM     20  C   UNL     1      17.275  12.570  15.323  0.00  0.00    +0.305 C 
BRANCH  20   1
ATOM      1  O   UNL     1      17.570  13.671  14.587  0.00  0.00    -0.481 OA
ATOM     38  H   UNL     1      16.868  13.874  13.933  0.00  0.00    +0.295 HD
ENDBRANCH  20   1
ENDBRANCH  16  20
ENDBRANCH  11  16
TORSDOF 9
ENDMDL
MODEL 4
REMARK VINA RESULT:      -5.8     27.051     30.685
REMARK  Name = 51136625
REMARK  12 active torsions:
REMARK  status: ('A' for Active; 'I' for Inactive)
REMARK    1  A    between atoms: O_1  and  C_20
REMARK    2  A    between atoms: O_4  and  C_26
REMARK    3  A    between atoms: O_4  and  C_33
REMARK    4  A    between atoms: O_5  and  C_27
REMARK    5  A    between atoms: O_5  and  C_34
REMARK    6  A    between atoms: O_6  and  C_31
REMARK    7  A    between atoms: O_6  and  C_36
REMARK    8  A    between atoms: N_9  and  C_28
REMARK    9  A    between atoms: C_10  and  C_15
REMARK   10  A    between atoms: C_11  and  C_16
REMARK   11  A    between atoms: C_15  and  C_17
REMARK   12  A    between atoms: C_16  and  C_20
REMARK                            x       y       z     vdW  Elec       q    Type
REMARK                         _______ _______ _______ _____ _____    ______ ____
ROOT
ATOM      2  O   UNL     1     -10.431  -9.467  12.573  0.00  0.00    -0.252 OA
ATOM      7  N   UNL     1      -9.956  -9.030  14.792  0.00  0.00    -0.285 N 
ATOM      9  N   UNL     1      -8.217  -9.184  13.205  0.00  0.00    -0.269 N 
ATOM     10  C   UNL     1      -9.159  -9.781  17.015  0.00  0.00    +0.016 C 
ATOM     11  C   UNL     1     -10.639  -9.912  17.462  0.00  0.00    +0.006 C 
ATOM     12  C   UNL     1     -11.579 -10.142  16.265  0.00  0.00    +0.023 C 
ATOM     13  C   UNL     1      -9.048  -8.721  15.906  0.00  0.00    +0.113 C 
ATOM     14  C   UNL     1     -11.367  -9.092  15.175  0.00  0.00    +0.109 C 
ATOM     18  C   UNL     1      -9.590  -9.235  13.445  0.00  0.00    +0.306 C 
ATOM     37  H   UNL     1      -7.643  -8.602  13.805  0.00  0.00    +0.156 HD
ENDROOT
BRANCH   9  28
ATOM     28  C   UNL     1      -7.492  -9.878  12.205  0.00  0.00    +0.038 A 
ATOM     29  C   UNL     1      -6.684  -9.172  11.314  0.00  0.00    +0.069 A 
ATOM     30  C   UNL     1      -7.587 -11.266  12.112  0.00  0.00    +0.023 A 
ATOM     31  C   UNL     1      -5.971  -9.856  10.329  0.00  0.00    +0.122 A 
ATOM     32  C   UNL     1      -6.874 -11.950  11.127  0.00  0.00    +0.005 A 
ATOM     35  C   UNL     1      -6.065 -11.245  10.236  0.00  0.00    +0.046 A 
BRANCH  31   6
ATOM      6  O   UNL     1      -5.183  -9.167   9.458  0.00  0.00    -0.495 OA
ATOM     36  C   UNL     1      -3.772  -9.261   9.645  0.00  0.00    +0.277 C 
ENDBRANCH  31   6
ENDBRANCH   9  28
BRANCH  10  15
ATOM     15  C   UNL     1      -8.524 -11.101  16.561  0.00  0.00    +0.061 C 
BRANCH  15  17
ATOM      8  N   UNL     1      -7.439 -11.844  18.570  0.00  0.00    -0.287 NA
ATOM     17  C   UNL     1      -7.283 -11.381  17.374  0.00  0.00    +0.044 C 
ATOM     19  C   UNL     1      -5.955 -11.106  16.769  0.00  0.00    +0.003 A 
ATOM     21  C   UNL     1      -4.870 -11.003  17.649  0.00  0.00    -0.033 A 
ATOM     22  C   UNL     1      -5.118 -11.158  19.120  0.00  0.00    +0.059 C 
ATOM     23  C   UNL     1      -6.232 -12.174  19.337  0.00  0.00    +0.146 C 
ATOM     24  C   UNL     1      -5.771 -10.940  15.395  0.00  0.00    +0.059 A 
ATOM     25  C   UNL     1      -3.600 -10.705  17.147  0.00  0.00    +0.053 A 
ATOM     26  C   UNL     1      -4.496 -10.659  14.902  0.00  0.00    +0.162 A 
ATOM     27  C   UNL     1      -3.414 -10.540  15.775  0.00  0.00    +0.162 A 
BRANCH  26   4
ATOM      4  O   UNL     1      -4.320 -10.500  13.559  0.00  0.00    -0.491 OA
ATOM     33  C   UNL     1      -3.748 -11.596  12.847  0.00  0.00    +0.277 C 
ENDBRANCH  26   4
BRANCH  27   5
ATOM      5  O   UNL     1      -2.169 -10.257  15.298  0.00  0.00    -0.491 OA
ATOM     34  C   UNL     1      -1.162 -11.249  15.488  0.00  0.00    +0.277 C 
ENDBRANCH  27   5
ENDBRANCH  15  17
ENDBRANCH  10  15
BRANCH  11  16
ATOM     16  C   UNL     1     -10.852 -10.987  18.528  0.00  0.00    +0.124 C 
BRANCH  16  20
ATOM      3  O   UNL     1     -11.844  -9.930  20.487  0.00  0.00    -0.251 OA
ATOM     20  C   UNL     1     -10.873 -10.400  19.912  0.00  0.00    +0.305 C 
BRANCH  20   1
ATOM      1  O   UNL     1      -9.631 -10.463  20.455  0.00  0.00    -0.481 OA
ATOM     38  H   UNL     1      -9.419 -11.363  20.781  0.00  0.00    +0.295 HD
ENDBRANCH  20   1
ENDBRANCH  16  20
ENDBRANCH  11  16
TORSDOF 9
ENDMDL
MODEL 5
REMARK VINA RESULT:      -5.8     26.940     29.471
REMARK  Name = 51136625
REMARK  12 active torsions:
REMARK  status: ('A' for Active; 'I' for Inactive)
REMARK    1  A    between atoms: O_1  and  C_20
REMARK    2  A    between atoms: O_4  and  C_26
REMARK    3  A    between atoms: O_4  and  C_33
REMARK    4  A    between atoms: O_5  and  C_27
REMARK    5  A    between atoms: O_5  and  C_34
REMARK    6  A    between atoms: O_6  and  C_31
REMARK    7  A    between atoms: O_6  and  C_36
REMARK    8  A    between atoms: N_9  and  C_28
REMARK    9  A    between atoms: C_10  and  C_15
REMARK   10  A    between atoms: C_11  and  C_16
REMARK   11  A    between atoms: C_15  and  C_17
REMARK   12  A    between atoms: C_16  and  C_20
REMARK                            x       y       z     vdW  Elec       q    Type
REMARK                         _______ _______ _______ _____ _____    ______ ____
ROOT
ATOM      2  O   UNL     1      -3.757 -14.439  10.512  0.00  0.00    -0.252 OA
ATOM      7  N   UNL     1      -3.555 -12.136  10.527  0.00  0.00    -0.285 N 
ATOM      9  N   UNL     1      -2.514 -13.437  12.197  0.00  0.00    -0.269 N 
ATOM     10  C   UNL     1      -4.194  -9.921  11.438  0.00  0.00    +0.016 C 
ATOM     11  C   UNL     1      -5.135  -9.731  10.219  0.00  0.00    +0.006 C 
ATOM     12  C   UNL     1      -5.584 -11.079   9.628  0.00  0.00    +0.023 C 
ATOM     13  C   UNL     1      -3.041 -10.864  11.055  0.00  0.00    +0.113 C 
ATOM     14  C   UNL     1      -4.391 -11.989   9.335  0.00  0.00    +0.109 C 
ATOM     18  C   UNL     1      -3.296 -13.424  11.042  0.00  0.00    +0.306 C 
ATOM     37  H   UNL     1      -1.844 -12.690  12.335  0.00  0.00    +0.156 HD
ENDROOT
BRANCH   9  28
ATOM     28  C   UNL     1      -2.549 -14.387  13.247  0.00  0.00    +0.038 A 
ATOM     29  C   UNL     1      -3.644 -14.431  14.111  0.00  0.00    +0.069 A 
ATOM     30  C   UNL     1      -1.489 -15.277  13.419  0.00  0.00    +0.023 A 
ATOM     31  C   UNL     1      -3.679 -15.366  15.146  0.00  0.00    +0.122 A 
ATOM     32  C   UNL     1      -1.524 -16.211  14.454  0.00  0.00    +0.005 A 
ATOM     35  C   UNL     1      -2.618 -16.257  15.317  0.00  0.00    +0.046 A 
BRANCH  31   6
ATOM      6  O   UNL     1      -4.746 -15.408  15.989  0.00  0.00    -0.495 OA
ATOM     36  C   UNL     1      -5.070 -14.207  16.688  0.00  0.00    +0.277 C 
ENDBRANCH  31   6
ENDBRANCH   9  28
BRANCH  10  15
ATOM     15  C   UNL     1      -4.902 -10.425  12.701  0.00  0.00    +0.061 C 
BRANCH  15  17
ATOM      8  N   UNL     1      -2.673 -10.500  13.590  0.00  0.00    -0.287 NA
ATOM     17  C   UNL     1      -3.935 -10.441  13.860  0.00  0.00    +0.044 C 
ATOM     19  C   UNL     1      -4.475 -10.398  15.242  0.00  0.00    +0.003 A 
ATOM     21  C   UNL     1      -3.612 -10.798  16.270  0.00  0.00    -0.033 A 
ATOM     22  C   UNL     1      -2.228 -11.252  15.913  0.00  0.00    +0.059 C 
ATOM     23  C   UNL     1      -1.731 -10.455  14.714  0.00  0.00    +0.146 C 
ATOM     24  C   UNL     1      -5.780  -9.994  15.531  0.00  0.00    +0.059 A 
ATOM     25  C   UNL     1      -4.072 -10.818  17.590  0.00  0.00    +0.053 A 
ATOM     26  C   UNL     1      -6.225 -10.002  16.854  0.00  0.00    +0.162 A 
ATOM     27  C   UNL     1      -5.375 -10.415  17.880  0.00  0.00    +0.162 A 
BRANCH  26   4
ATOM      4  O   UNL     1      -7.500  -9.605  17.132  0.00  0.00    -0.491 OA
ATOM     33  C   UNL     1      -8.553 -10.470  16.712  0.00  0.00    +0.277 C 
ENDBRANCH  26   4
BRANCH  27   5
ATOM      5  O   UNL     1      -5.808 -10.433  19.172  0.00  0.00    -0.491 OA
ATOM     34  C   UNL     1      -6.295 -11.677  19.674  0.00  0.00    +0.277 C 
ENDBRANCH  27   5
ENDBRANCH  15  17
ENDBRANCH  10  15
BRANCH  11  16
ATOM     16  C   UNL     1      -6.344  -8.848  10.525  0.00  0.00    +0.124 C 
BRANCH  16  20
ATOM      3  O   UNL     1      -8.292  -8.888   9.062  0.00  0.00    -0.251 OA
ATOM     20  C   UNL     1      -7.140  -8.547   9.287  0.00  0.00    +0.305 C 
BRANCH  20   1
ATOM      1  O   UNL     1      -6.386  -7.822   8.422  0.00  0.00    -0.481 OA
ATOM     38  H   UNL     1      -6.627  -7.998   7.488  0.00  0.00    +0.295 HD
ENDBRANCH  20   1
ENDBRANCH  16  20
ENDBRANCH  11  16
TORSDOF 9
ENDMDL
MODEL 6
REMARK VINA RESULT:      -5.7     27.183     30.367
REMARK  Name = 51136625
REMARK  12 active torsions:
REMARK  status: ('A' for Active; 'I' for Inactive)
REMARK    1  A    between atoms: O_1  and  C_20
REMARK    2  A    between atoms: O_4  and  C_26
REMARK    3  A    between atoms: O_4  and  C_33
REMARK    4  A    between atoms: O_5  and  C_27
REMARK    5  A    between atoms: O_5  and  C_34
REMARK    6  A    between atoms: O_6  and  C_31
REMARK    7  A    between atoms: O_6  and  C_36
REMARK    8  A    between atoms: N_9  and  C_28
REMARK    9  A    between atoms: C_10  and  C_15
REMARK   10  A    between atoms: C_11  and  C_16
REMARK   11  A    between atoms: C_15  and  C_17
REMARK   12  A    between atoms: C_16  and  C_20
REMARK                            x       y       z     vdW  Elec       q    Type
REMARK                         _______ _______ _______ _____ _____    ______ ____
ROOT
ATOM      2  O   UNL     1      -7.791 -11.699  20.055  0.00  0.00    -0.252 OA
ATOM      7  N   UNL     1      -6.430 -10.533  18.595  0.00  0.00    -0.285 N 
ATOM      9  N   UNL     1      -8.774 -10.284  18.501  0.00  0.00    -0.269 N 
ATOM     10  C   UNL     1      -5.444 -10.231  16.341  0.00  0.00    +0.016 C 
ATOM     11  C   UNL     1      -4.144 -10.901  16.860  0.00  0.00    +0.006 C 
ATOM     12  C   UNL     1      -4.419 -11.836  18.051  0.00  0.00    +0.023 C 
ATOM     13  C   UNL     1      -6.184  -9.566  17.515  0.00  0.00    +0.113 C 
ATOM     14  C   UNL     1      -5.213 -11.129  19.148  0.00  0.00    +0.109 C 
ATOM     18  C   UNL     1      -7.686 -10.891  19.128  0.00  0.00    +0.306 C 
ATOM     37  H   UNL     1      -8.642  -9.371  18.081  0.00  0.00    +0.156 HD
ENDROOT
BRANCH   9  28
ATOM     28  C   UNL     1     -10.084 -10.805  18.357  0.00  0.00    +0.038 A 
ATOM     29  C   UNL     1     -11.176 -10.094  18.855  0.00  0.00    +0.069 A 
ATOM     30  C   UNL     1     -10.282 -12.029  17.718  0.00  0.00    +0.023 A 
ATOM     31  C   UNL     1     -12.465 -10.607  18.713  0.00  0.00    +0.122 A 
ATOM     32  C   UNL     1     -11.571 -12.542  17.576  0.00  0.00    +0.005 A 
ATOM     35  C   UNL     1     -12.663 -11.831  18.073  0.00  0.00    +0.046 A 
BRANCH  31   6
ATOM      6  O   UNL     1     -13.530  -9.913  19.200  0.00  0.00    -0.495 OA
ATOM     36  C   UNL     1     -13.633  -9.792  20.617  0.00  0.00    +0.277 C 
ENDBRANCH  31   6
ENDBRANCH   9  28
BRANCH  10  15
ATOM     15  C   UNL     1      -6.380 -11.183  15.588  0.00  0.00    +0.061 C 
BRANCH  15  17
ATOM      8  N   UNL     1      -8.471 -10.089  15.143  0.00  0.00    -0.287 NA
ATOM     17  C   UNL     1      -7.300 -10.394  14.688  0.00  0.00    +0.044 C 
ATOM     19  C   UNL     1      -6.825 -10.017  13.333  0.00  0.00    +0.003 A 
ATOM     21  C   UNL     1      -7.803  -9.642  12.403  0.00  0.00    -0.033 A 
ATOM     22  C   UNL     1      -9.242  -9.661  12.824  0.00  0.00    +0.059 C 
ATOM     23  C   UNL     1      -9.342  -9.270  14.293  0.00  0.00    +0.146 C 
ATOM     24  C   UNL     1      -5.477 -10.039  12.972  0.00  0.00    +0.059 A 
ATOM     25  C   UNL     1      -7.425  -9.313  11.098  0.00  0.00    +0.053 A 
ATOM     26  C   UNL     1      -5.107  -9.694  11.672  0.00  0.00    +0.162 A 
ATOM     27  C   UNL     1      -6.078  -9.335  10.736  0.00  0.00    +0.162 A 
BRANCH  26   4
ATOM      4  O   UNL     1      -3.789  -9.714  11.324  0.00  0.00    -0.491 OA
ATOM     33  C   UNL     1      -3.204 -10.991  11.076  0.00  0.00    +0.277 C 
ENDBRANCH  26   4
BRANCH  27   5
ATOM      5  O   UNL     1      -5.723  -9.006   9.463  0.00  0.00    -0.491 OA
ATOM     34  C   UNL     1      -5.907 -10.005   8.461  0.00  0.00    +0.277 C 
ENDBRANCH  27   5
ENDBRANCH  15  17
ENDBRANCH  10  15
BRANCH  11  16
ATOM     16  C   UNL     1      -3.369 -11.635  15.766  0.00  0.00    +0.124 C 
BRANCH  16  20
ATOM      3  O   UNL     1      -1.881 -10.316  14.357  0.00  0.00    -0.251 OA
ATOM     20  C   UNL     1      -2.103 -10.911  15.401  0.00  0.00    +0.305 C 
BRANCH  20   1
ATOM      1  O   UNL     1      -1.210 -11.010  16.418  0.00  0.00    -0.481 OA
ATOM     38  H   UNL     1      -0.877 -10.132  16.699  0.00  0.00    +0.295 HD
ENDBRANCH  20   1
ENDBRANCH  16  20
ENDBRANCH  11  16
TORSDOF 9
ENDMDL
MODEL 7
REMARK VINA RESULT:      -5.7     27.774     30.430
REMARK  Name = 51136625
REMARK  12 active torsions:
REMARK  status: ('A' for Active; 'I' for Inactive)
REMARK    1  A    between atoms: O_1  and  C_20
REMARK    2  A    between atoms: O_4  and  C_26
REMARK    3  A    between atoms: O_4  and  C_33
REMARK    4  A    between atoms: O_5  and  C_27
REMARK    5  A    between atoms: O_5  and  C_34
REMARK    6  A    between atoms: O_6  and  C_31
REMARK    7  A    between atoms: O_6  and  C_36
REMARK    8  A    between atoms: N_9  and  C_28
REMARK    9  A    between atoms: C_10  and  C_15
REMARK   10  A    between atoms: C_11  and  C_16
REMARK   11  A    between atoms: C_15  and  C_17
REMARK   12  A    between atoms: C_16  and  C_20
REMARK                            x       y       z     vdW  Elec       q    Type
REMARK                         _______ _______ _______ _____ _____    ______ ____
ROOT
ATOM      2  O   UNL     1      -2.529 -11.032  12.836  0.00  0.00    -0.252 OA
ATOM      7  N   UNL     1      -4.014 -11.783  14.439  0.00  0.00    -0.285 N 
ATOM      9  N   UNL     1      -4.764 -11.276  12.261  0.00  0.00    -0.269 N 
ATOM     10  C   UNL     1      -5.811 -11.344  16.089  0.00  0.00    +0.016 C 
ATOM     11  C   UNL     1      -4.740 -11.376  17.211  0.00  0.00    +0.006 C 
ATOM     12  C   UNL     1      -3.341 -11.018  16.676  0.00  0.00    +0.023 C 
ATOM     13  C   UNL     1      -5.343 -12.208  14.906  0.00  0.00    +0.113 C 
ATOM     14  C   UNL     1      -2.971 -11.869  15.462  0.00  0.00    +0.109 C 
ATOM     18  C   UNL     1      -3.683 -11.347  13.140  0.00  0.00    +0.306 C 
ATOM     37  H   UNL     1      -5.543 -11.909  12.401  0.00  0.00    +0.156 HD
ENDROOT
BRANCH   9  28
ATOM     28  C   UNL     1      -4.926 -10.390  11.167  0.00  0.00    +0.038 A 
ATOM     29  C   UNL     1      -4.900 -10.882   9.862  0.00  0.00    +0.069 A 
ATOM     30  C   UNL     1      -5.111  -9.027  11.395  0.00  0.00    +0.023 A 
ATOM     31  C   UNL     1      -5.060 -10.010   8.785  0.00  0.00    +0.122 A 
ATOM     32  C   UNL     1      -5.271  -8.155  10.318  0.00  0.00    +0.005 A 
ATOM     35  C   UNL     1      -5.245  -8.646   9.013  0.00  0.00    +0.046 A 
BRANCH  31   6
ATOM      6  O   UNL     1      -5.033 -10.490   7.511  0.00  0.00    -0.495 OA
ATOM     36  C   UNL     1      -5.957  -9.922   6.585  0.00  0.00    +0.277 C 
ENDBRANCH  31   6
ENDBRANCH   9  28
BRANCH  10  15
ATOM     15  C   UNL     1      -6.176  -9.933  15.613  0.00  0.00    +0.061 C 
BRANCH  15  17
ATOM      8  N   UNL     1      -7.636 -10.002  13.707  0.00  0.00    -0.287 NA
ATOM     17  C   UNL     1      -7.553  -9.939  14.996  0.00  0.00    +0.044 C 
ATOM     19  C   UNL     1      -8.737  -9.864  15.888  0.00  0.00    +0.003 A 
ATOM     21  C   UNL     1      -9.950  -9.486  15.299  0.00  0.00    -0.033 A 
ATOM     22  C   UNL     1      -9.970  -9.170  13.833  0.00  0.00    +0.059 C 
ATOM     23  C   UNL     1      -8.974 -10.069  13.111  0.00  0.00    +0.146 C 
ATOM     24  C   UNL     1      -8.670 -10.139  17.256  0.00  0.00    +0.059 A 
ATOM     25  C   UNL     1     -11.093  -9.358  16.093  0.00  0.00    +0.053 A 
ATOM     26  C   UNL     1      -9.820 -10.025  18.037  0.00  0.00    +0.162 A 
ATOM     27  C   UNL     1     -11.028  -9.633  17.458  0.00  0.00    +0.162 A 
BRANCH  26   4
ATOM      4  O   UNL     1      -9.752 -10.297  19.371  0.00  0.00    -0.491 OA
ATOM     33  C   UNL     1      -9.857 -11.665  19.759  0.00  0.00    +0.277 C 
ENDBRANCH  26   4
BRANCH  27   5
ATOM      5  O   UNL     1     -12.152  -9.511  18.219  0.00  0.00    -0.491 OA
ATOM     34  C   UNL     1     -13.405  -9.605  17.543  0.00  0.00    +0.277 C 
ENDBRANCH  27   5
ENDBRANCH  15  17
ENDBRANCH  10  15
BRANCH  11  16
ATOM     16  C   UNL     1      -5.098 -10.497  18.409  0.00  0.00    +0.124 C 
BRANCH  16  20
ATOM      3  O   UNL     1      -6.373 -12.354  19.339  0.00  0.00    -0.251 OA
ATOM     20  C   UNL     1      -6.109 -11.162  19.302  0.00  0.00    +0.305 C 
BRANCH  20   1
ATOM      1  O   UNL     1      -6.707 -10.232  20.089  0.00  0.00    -0.481 OA
ATOM     38  H   UNL     1      -7.011 -10.612  20.940  0.00  0.00    +0.295 HD
ENDBRANCH  20   1
ENDBRANCH  16  20
ENDBRANCH  11  16
TORSDOF 9
ENDMDL
MODEL 8
REMARK VINA RESULT:      -5.7     28.001     30.595
REMARK  Name = 51136625
REMARK  12 active torsions:
REMARK  status: ('A' for Active; 'I' for Inactive)
REMARK    1  A    between atoms: O_1  and  C_20
REMARK    2  A    between atoms: O_4  and  C_26
REMARK    3  A    between atoms: O_4  and  C_33
REMARK    4  A    between atoms: O_5  and  C_27
REMARK    5  A    between atoms: O_5  and  C_34
REMARK    6  A    between atoms: O_6  and  C_31
REMARK    7  A    between atoms: O_6  and  C_36
REMARK    8  A    between atoms: N_9  and  C_28
REMARK    9  A    between atoms: C_10  and  C_15
REMARK   10  A    between atoms: C_11  and  C_16
REMARK   11  A    between atoms: C_15  and  C_17
REMARK   12  A    between atoms: C_16  and  C_20
REMARK                            x       y       z     vdW  Elec       q    Type
REMARK                         _______ _______ _______ _____ _____    ______ ____
ROOT
ATOM      2  O   UNL     1      -2.832 -11.389  13.380  0.00  0.00    -0.252 OA
ATOM      7  N   UNL     1      -4.498 -11.897  14.900  0.00  0.00    -0.285 N 
ATOM      9  N   UNL     1      -5.037 -11.394  12.659  0.00  0.00    -0.269 N 
ATOM     10  C   UNL     1      -6.334 -11.184  16.405  0.00  0.00    +0.016 C 
ATOM     11  C   UNL     1      -5.349 -11.295  17.599  0.00  0.00    +0.006 C 
ATOM     12  C   UNL     1      -3.886 -11.124  17.152  0.00  0.00    +0.023 C 
ATOM     13  C   UNL     1      -5.895 -12.144  15.286  0.00  0.00    +0.113 C 
ATOM     14  C   UNL     1      -3.541 -12.061  15.995  0.00  0.00    +0.109 C 
ATOM     18  C   UNL     1      -4.032 -11.555  13.613  0.00  0.00    +0.306 C 
ATOM     37  H   UNL     1      -5.894 -11.926  12.765  0.00  0.00    +0.156 HD
ENDROOT
BRANCH   9  28
ATOM     28  C   UNL     1      -5.021 -10.541  11.528  0.00  0.00    +0.038 A 
ATOM     29  C   UNL     1      -4.884 -11.081  10.249  0.00  0.00    +0.069 A 
ATOM     30  C   UNL     1      -5.141  -9.161  11.694  0.00  0.00    +0.023 A 
ATOM     31  C   UNL     1      -4.868 -10.241   9.136  0.00  0.00    +0.122 A 
ATOM     32  C   UNL     1      -5.124  -8.321  10.580  0.00  0.00    +0.005 A 
ATOM     35  C   UNL     1      -4.988  -8.860   9.301  0.00  0.00    +0.046 A 
BRANCH  31   6
ATOM      6  O   UNL     1      -4.733 -10.768   7.888  0.00  0.00    -0.495 OA
ATOM     36  C   UNL     1      -5.599 -10.263   6.873  0.00  0.00    +0.277 C 
ENDBRANCH  31   6
ENDBRANCH   9  28
BRANCH  10  15
ATOM     15  C   UNL     1      -6.496  -9.761  15.858  0.00  0.00    +0.061 C 
BRANCH  15  17
ATOM      8  N   UNL     1      -8.336  -8.778  17.046  0.00  0.00    -0.287 NA
ATOM     17  C   UNL     1      -7.942  -9.337  15.950  0.00  0.00    +0.044 C 
ATOM     19  C   UNL     1      -8.835  -9.586  14.791  0.00  0.00    +0.003 A 
ATOM     21  C   UNL     1     -10.213  -9.546  15.036  0.00  0.00    -0.033 A 
ATOM     22  C   UNL     1     -10.689  -9.274  16.432  0.00  0.00    +0.059 C 
ATOM     23  C   UNL     1      -9.726  -8.311  17.113  0.00  0.00    +0.146 C 
ATOM     24  C   UNL     1      -8.352  -9.864  13.511  0.00  0.00    +0.059 A 
ATOM     25  C   UNL     1     -11.108  -9.812  13.995  0.00  0.00    +0.053 A 
ATOM     26  C   UNL     1      -9.252 -10.112  12.474  0.00  0.00    +0.162 A 
ATOM     27  C   UNL     1     -10.627 -10.089  12.716  0.00  0.00    +0.162 A 
BRANCH  26   4
ATOM      4  O   UNL     1      -8.776 -10.380  11.225  0.00  0.00    -0.491 OA
ATOM     33  C   UNL     1      -8.588  -9.268  10.351  0.00  0.00    +0.277 C 
ENDBRANCH  26   4
BRANCH  27   5
ATOM      5  O   UNL     1     -11.510 -10.340  11.709  0.00  0.00    -0.491 OA
ATOM     34  C   UNL     1     -12.278  -9.236  11.232  0.00  0.00    +0.277 C 
ENDBRANCH  27   5
ENDBRANCH  15  17
ENDBRANCH  10  15
BRANCH  11  16
ATOM     16  C   UNL     1      -5.679 -10.332  18.740  0.00  0.00    +0.124 C 
BRANCH  16  20
ATOM      3  O   UNL     1      -6.447 -11.852  20.484  0.00  0.00    -0.251 OA
ATOM     20  C   UNL     1      -6.661 -10.933  19.707  0.00  0.00    +0.305 C 
BRANCH  20   1
ATOM      1  O   UNL     1      -7.856 -10.299  19.599  0.00  0.00    -0.481 OA
ATOM     38  H   UNL     1      -8.573 -10.787  20.057  0.00  0.00    +0.295 HD
ENDBRANCH  20   1
ENDBRANCH  16  20
ENDBRANCH  11  16
TORSDOF 9
ENDMDL
MODEL 9
REMARK VINA RESULT:      -5.5     27.873     31.031
REMARK  Name = 51136625
REMARK  12 active torsions:
REMARK  status: ('A' for Active; 'I' for Inactive)
REMARK    1  A    between atoms: O_1  and  C_20
REMARK    2  A    between atoms: O_4  and  C_26
REMARK    3  A    between atoms: O_4  and  C_33
REMARK    4  A    between atoms: O_5  and  C_27
REMARK    5  A    between atoms: O_5  and  C_34
REMARK    6  A    between atoms: O_6  and  C_31
REMARK    7  A    between atoms: O_6  and  C_36
REMARK    8  A    between atoms: N_9  and  C_28
REMARK    9  A    between atoms: C_10  and  C_15
REMARK   10  A    between atoms: C_11  and  C_16
REMARK   11  A    between atoms: C_15  and  C_17
REMARK   12  A    between atoms: C_16  and  C_20
REMARK                            x       y       z     vdW  Elec       q    Type
REMARK                         _______ _______ _______ _____ _____    ______ ____
ROOT
ATOM      2  O   UNL     1      -3.264 -10.769  17.045  0.00  0.00    -0.252 OA
ATOM      7  N   UNL     1      -5.083 -11.901  17.913  0.00  0.00    -0.285 N 
ATOM      9  N   UNL     1      -3.952 -12.732  16.017  0.00  0.00    -0.269 N 
ATOM     10  C   UNL     1      -7.481 -12.521  17.822  0.00  0.00    +0.016 C 
ATOM     11  C   UNL     1      -7.764 -11.443  18.901  0.00  0.00    +0.006 C 
ATOM     12  C   UNL     1      -6.701 -10.330  18.890  0.00  0.00    +0.023 C 
ATOM     13  C   UNL     1      -6.034 -13.022  17.962  0.00  0.00    +0.113 C 
ATOM     14  C   UNL     1      -5.287 -10.903  18.964  0.00  0.00    +0.109 C 
ATOM     18  C   UNL     1      -4.028 -11.737  16.991  0.00  0.00    +0.306 C 
ATOM     37  H   UNL     1      -4.285 -13.661  16.249  0.00  0.00    +0.156 HD
ENDROOT
BRANCH   9  28
ATOM     28  C   UNL     1      -3.466 -12.604  14.692  0.00  0.00    +0.038 A 
ATOM     29  C   UNL     1      -3.456 -11.354  14.072  0.00  0.00    +0.069 A 
ATOM     30  C   UNL     1      -2.999 -13.726  14.009  0.00  0.00    +0.023 A 
ATOM     31  C   UNL     1      -2.979 -11.228  12.767  0.00  0.00    +0.122 A 
ATOM     32  C   UNL     1      -2.521 -13.599  12.704  0.00  0.00    +0.005 A 
ATOM     35  C   UNL     1      -2.510 -12.350  12.083  0.00  0.00    +0.046 A 
BRANCH  31   6
ATOM      6  O   UNL     1      -2.970 -10.009  12.161  0.00  0.00    -0.495 OA
ATOM     36  C   UNL     1      -3.118  -9.988  10.743  0.00  0.00    +0.277 C 
ENDBRANCH  31   6
ENDBRANCH   9  28
BRANCH  10  15
ATOM     15  C   UNL     1      -7.751 -12.054  16.386  0.00  0.00    +0.061 C 
BRANCH  15  17
ATOM      8  N   UNL     1      -8.034 -14.384  15.880  0.00  0.00    -0.287 NA
ATOM     17  C   UNL     1      -7.664 -13.227  15.440  0.00  0.00    +0.044 C 
ATOM     19  C   UNL     1      -7.157 -12.999  14.064  0.00  0.00    +0.003 A 
ATOM     21  C   UNL     1      -6.727 -14.127  13.354  0.00  0.00    -0.033 A 
ATOM     22  C   UNL     1      -6.792 -15.467  14.024  0.00  0.00    +0.059 C 
ATOM     23  C   UNL     1      -8.007 -15.512  14.942  0.00  0.00    +0.146 C 
ATOM     24  C   UNL     1      -7.086 -11.730  13.485  0.00  0.00    +0.059 A 
ATOM     25  C   UNL     1      -6.201 -13.975  12.068  0.00  0.00    +0.053 A 
ATOM     26  C   UNL     1      -6.574 -11.590  12.195  0.00  0.00    +0.162 A 
ATOM     27  C   UNL     1      -6.130 -12.709  11.489  0.00  0.00    +0.162 A 
BRANCH  26   4
ATOM      4  O   UNL     1      -6.509 -10.350  11.632  0.00  0.00    -0.491 OA
ATOM     33  C   UNL     1      -6.420  -9.239  12.523  0.00  0.00    +0.277 C 
ENDBRANCH  26   4
BRANCH  27   5
ATOM      5  O   UNL     1      -5.621 -12.576  10.232  0.00  0.00    -0.491 OA
ATOM     34  C   UNL     1      -4.987 -13.722   9.665  0.00  0.00    +0.277 C 
ENDBRANCH  27   5
ENDBRANCH  15  17
ENDBRANCH  10  15
BRANCH  11  16
ATOM     16  C   UNL     1      -9.169 -10.848  18.802  0.00  0.00    +0.124 C 
BRANCH  16  20
ATOM      3  O   UNL     1     -10.463 -12.236  20.331  0.00  0.00    -0.251 OA
ATOM     20  C   UNL     1      -9.988 -11.153  20.025  0.00  0.00    +0.305 C 
BRANCH  20   1
ATOM      1  O   UNL     1     -10.136 -10.027  20.769  0.00  0.00    -0.481 OA
ATOM     38  H   UNL     1     -10.316  -9.240  20.212  0.00  0.00    +0.295 HD
ENDBRANCH  20   1
ENDBRANCH  16  20
ENDBRANCH  11  16
TORSDOF 9
ENDMDL
MODEL 10
REMARK VINA RESULT:      -5.5     27.442     29.996
REMARK  Name = 51136625
REMARK  12 active torsions:
REMARK  status: ('A' for Active; 'I' for Inactive)
REMARK    1  A    between atoms: O_1  and  C_20
REMARK    2  A    between atoms: O_4  and  C_26
REMARK    3  A    between atoms: O_4  and  C_33
REMARK    4  A    between atoms: O_5  and  C_27
REMARK    5  A    between atoms: O_5  and  C_34
REMARK    6  A    between atoms: O_6  and  C_31
REMARK    7  A    between atoms: O_6  and  C_36
REMARK    8  A    between atoms: N_9  and  C_28
REMARK    9  A    between atoms: C_10  and  C_15
REMARK   10  A    between atoms: C_11  and  C_16
REMARK   11  A    between atoms: C_15  and  C_17
REMARK   12  A    between atoms: C_16  and  C_20
REMARK                            x       y       z     vdW  Elec       q    Type
REMARK                         _______ _______ _______ _____ _____    ______ ____
ROOT
ATOM      2  O   UNL     1      -8.255 -10.973  17.454  0.00  0.00    -0.252 OA
ATOM      7  N   UNL     1      -6.111 -10.617  16.669  0.00  0.00    -0.285 N 
ATOM      9  N   UNL     1      -7.846  -9.112  16.130  0.00  0.00    -0.269 N 
ATOM     10  C   UNL     1      -4.444 -10.697  14.835  0.00  0.00    +0.016 C 
ATOM     11  C   UNL     1      -3.896 -12.017  15.439  0.00  0.00    +0.006 C 
ATOM     12  C   UNL     1      -4.965 -12.754  16.267  0.00  0.00    +0.023 C 
ATOM     13  C   UNL     1      -5.085  -9.849  15.947  0.00  0.00    +0.113 C 
ATOM     14  C   UNL     1      -5.604 -11.833  17.306  0.00  0.00    +0.109 C 
ATOM     18  C   UNL     1      -7.472 -10.273  16.806  0.00  0.00    +0.306 C 
ATOM     37  H   UNL     1      -7.150  -8.388  15.993  0.00  0.00    +0.156 HD
ENDROOT
BRANCH   9  28
ATOM     28  C   UNL     1      -9.114  -8.810  15.577  0.00  0.00    +0.038 A 
ATOM     29  C   UNL     1      -9.925  -7.847  16.178  0.00  0.00    +0.069 A 
ATOM     30  C   UNL     1      -9.553  -9.475  14.432  0.00  0.00    +0.023 A 
ATOM     31  C   UNL     1     -11.175  -7.549  15.633  0.00  0.00    +0.122 A 
ATOM     32  C   UNL     1     -10.802  -9.177  13.888  0.00  0.00    +0.005 A 
ATOM     35  C   UNL     1     -11.613  -8.214  14.488  0.00  0.00    +0.046 A 
BRANCH  31   6
ATOM      6  O   UNL     1     -11.967  -6.610  16.220  0.00  0.00    -0.495 OA
ATOM     36  C   UNL     1     -13.325  -6.547  15.792  0.00  0.00    +0.277 C 
ENDBRANCH  31   6
ENDBRANCH   9  28
BRANCH  10  15
ATOM     15  C   UNL     1      -5.432 -10.901  13.680  0.00  0.00    +0.061 C 
BRANCH  15  17
ATOM      8  N   UNL     1      -3.546 -10.486  12.253  0.00  0.00    -0.287 NA
ATOM     17  C   UNL     1      -4.828 -10.396  12.392  0.00  0.00    +0.044 C 
ATOM     19  C   UNL     1      -5.724  -9.819  11.360  0.00  0.00    +0.003 A 
ATOM     21  C   UNL     1      -5.124  -9.024  10.375  0.00  0.00    -0.033 A 
ATOM     22  C   UNL     1      -3.643  -8.799  10.435  0.00  0.00    +0.059 C 
ATOM     23  C   UNL     1      -2.965 -10.051  10.978  0.00  0.00    +0.146 C 
ATOM     24  C   UNL     1      -7.105 -10.030  11.355  0.00  0.00    +0.059 A 
ATOM     25  C   UNL     1      -5.919  -8.419   9.397  0.00  0.00    +0.053 A 
ATOM     26  C   UNL     1      -7.888  -9.434  10.365  0.00  0.00    +0.162 A 
ATOM     27  C   UNL     1      -7.297  -8.629   9.390  0.00  0.00    +0.162 A 
BRANCH  26   4
ATOM      4  O   UNL     1      -9.235  -9.645  10.362  0.00  0.00    -0.491 OA
ATOM     33  C   UNL     1      -9.687 -10.948  10.725  0.00  0.00    +0.277 C 
ENDBRANCH  26   4
BRANCH  27   5
ATOM      5  O   UNL     1      -8.059  -8.038   8.427  0.00  0.00    -0.491 OA
ATOM     34  C   UNL     1      -7.920  -6.627   8.267  0.00  0.00    +0.277 C 
ENDBRANCH  27   5
ENDBRANCH  15  17
ENDBRANCH  10  15
BRANCH  11  16
ATOM     16  C   UNL     1      -3.288 -12.950  14.392  0.00  0.00    +0.124 C 
BRANCH  16  20
ATOM      3  O   UNL     1      -1.138 -11.865  14.765  0.00  0.00    -0.251 OA
ATOM     20  C   UNL     1      -1.855 -12.599  14.102  0.00  0.00    +0.305 C 
BRANCH  20   1
ATOM      1  O   UNL     1      -1.451 -13.226  12.968  0.00  0.00    -0.481 OA
ATOM     38  H   UNL     1      -2.195 -13.674  12.512  0.00  0.00    +0.295 HD
ENDBRANCH  20   1
ENDBRANCH  16  20
ENDBRANCH  11  16
TORSDOF 9
ENDMDL
