MODEL 1
REMARK VINA RESULT:      -7.5      0.000      0.000
REMARK  Name = 45361630
REMARK  10 active torsions:
REMARK  status: ('A' for Active; 'I' for Inactive)
REMARK    1  A    between atoms: O_2  and  C_12
REMARK    2  A    between atoms: N_5  and  C_16
REMARK    3  A    between atoms: N_6  and  C_26
REMARK    4  A    between atoms: C_9  and  C_19
REMARK    5  A    between atoms: C_11  and  C_21
REMARK    6  A    between atoms: C_15  and  C_20
REMARK    7  A    between atoms: C_20  and  C_22
REMARK    8  A    between atoms: C_20  and  C_23
REMARK    9  A    between atoms: C_24  and  C_25
REMARK   10  A    between atoms: C_26  and  C_29
REMARK                            x       y       z     vdW  Elec       q    Type
REMARK                         _______ _______ _______ _____ _____    ______ ____
ROOT
ATOM      9  C   UNL     1     -16.567   6.463  21.999  0.00  0.00    -0.027 C 
ATOM     10  C   UNL     1     -15.109   6.113  22.447  0.00  0.00    +0.028 C 
ATOM     11  C   UNL     1     -14.097   6.317  21.262  0.00  0.00    +0.012 C 
ATOM     12  C   UNL     1     -15.051   4.723  23.142  0.00  0.00    +0.122 C 
ATOM     13  C   UNL     1     -17.518   6.361  23.216  0.00  0.00    +0.007 C 
ATOM     14  C   UNL     1     -16.602   7.924  21.496  0.00  0.00    +0.009 C 
ATOM     15  C   UNL     1     -16.077   4.590  24.292  0.00  0.00    +0.029 C 
ATOM     16  C   UNL     1     -14.195   7.769  20.715  0.00  0.00    +0.076 C 
ATOM     17  C   UNL     1     -17.493   4.989  23.876  0.00  0.00    +0.007 C 
ATOM     18  C   UNL     1     -15.622   8.190  20.363  0.00  0.00    +0.023 C 
ATOM     19  C   UNL     1     -17.087   5.526  20.881  0.00  0.00    +0.011 C 
ATOM     21  C   UNL     1     -12.637   6.017  21.641  0.00  0.00    +0.010 C 
ENDROOT
BRANCH  16   5
ATOM      4  O   UNL     1     -12.606  10.080  20.102  0.00  0.00    -0.270 OA
ATOM      5  N   UNL     1     -13.360   7.960  19.547  0.00  0.00    -0.308 N 
ATOM     24  C   UNL     1     -12.628   9.117  19.341  0.00  0.00    +0.247 C 
ATOM     36  H   UNL     1     -13.406   7.248  18.825  0.00  0.00    +0.149 HD
BRANCH  24  25
ATOM      7  N   UNL     1     -10.412   8.088  16.474  0.00  0.00    -0.243 NA
ATOM      8  N   UNL     1     -11.068  10.386  16.156  0.00  0.00    -0.243 NA
ATOM     25  C   UNL     1     -11.843   9.167  18.081  0.00  0.00    +0.073 A 
ATOM     27  C   UNL     1     -11.136   8.079  17.613  0.00  0.00    +0.127 A 
ATOM     28  C   UNL     1     -11.771  10.305  17.304  0.00  0.00    +0.127 A 
ATOM     32  C   UNL     1     -10.422   9.258  15.805  0.00  0.00    +0.221 A 
ENDBRANCH  24  25
ENDBRANCH  16   5
BRANCH  12   2
ATOM      2  O   UNL     1     -13.760   4.534  23.724  0.00  0.00    -0.391 OA
ATOM     37  H   UNL     1     -13.161   4.207  23.032  0.00  0.00    +0.210 HD
ENDBRANCH  12   2
BRANCH  15  20
ATOM     20  C   UNL     1     -16.096   3.173  24.878  0.00  0.00    +0.077 C 
ATOM     22  C   UNL     1     -16.904   2.244  23.979  0.00  0.00    +0.017 C 
BRANCH  20  23
ATOM      3  O   UNL     1     -17.804   2.850  26.564  0.00  0.00    -0.276 OA
ATOM      6  N   UNL     1     -15.737   3.670  27.223  0.00  0.00    -0.311 N 
ATOM     23  C   UNL     1     -16.658   3.203  26.295  0.00  0.00    +0.216 C 
ATOM     38  H   UNL     1     -14.797   3.910  26.922  0.00  0.00    +0.149 HD
BRANCH   6  26
ATOM     26  C   UNL     1     -16.038   3.792  28.630  0.00  0.00    +0.139 C 
BRANCH  26  29
ATOM      1  F   UNL     1     -14.253  -0.671  31.562  0.00  0.00    -0.205 F 
ATOM     29  C   UNL     1     -15.562   2.602  29.412  0.00  0.00    -0.030 A 
ATOM     30  C   UNL     1     -14.382   2.680  30.150  0.00  0.00    +0.008 A 
ATOM     31  C   UNL     1     -16.301   1.418  29.400  0.00  0.00    +0.008 A 
ATOM     33  C   UNL     1     -13.939   1.574  30.875  0.00  0.00    +0.038 A 
ATOM     34  C   UNL     1     -15.859   0.314  30.126  0.00  0.00    +0.038 A 
ATOM     35  C   UNL     1     -14.678   0.390  30.864  0.00  0.00    +0.123 A 
ENDBRANCH  26  29
ENDBRANCH   6  26
ENDBRANCH  20  23
ENDBRANCH  15  20
TORSDOF 7
ENDMDL
MODEL 2
REMARK VINA RESULT:      -7.3     19.070     22.221
REMARK  Name = 45361630
REMARK  10 active torsions:
REMARK  status: ('A' for Active; 'I' for Inactive)
REMARK    1  A    between atoms: O_2  and  C_12
REMARK    2  A    between atoms: N_5  and  C_16
REMARK    3  A    between atoms: N_6  and  C_26
REMARK    4  A    between atoms: C_9  and  C_19
REMARK    5  A    between atoms: C_11  and  C_21
REMARK    6  A    between atoms: C_15  and  C_20
REMARK    7  A    between atoms: C_20  and  C_22
REMARK    8  A    between atoms: C_20  and  C_23
REMARK    9  A    between atoms: C_24  and  C_25
REMARK   10  A    between atoms: C_26  and  C_29
REMARK                            x       y       z     vdW  Elec       q    Type
REMARK                         _______ _______ _______ _____ _____    ______ ____
ROOT
ATOM      9  C   UNL     1      -4.783 -11.045  16.876  0.00  0.00    -0.027 C 
ATOM     10  C   UNL     1      -5.551 -10.417  15.666  0.00  0.00    +0.028 C 
ATOM     11  C   UNL     1      -7.104 -10.517  15.877  0.00  0.00    +0.012 C 
ATOM     12  C   UNL     1      -5.024 -10.974  14.313  0.00  0.00    +0.122 C 
ATOM     13  C   UNL     1      -3.262 -10.829  16.690  0.00  0.00    +0.007 C 
ATOM     14  C   UNL     1      -5.206 -10.319  18.173  0.00  0.00    +0.009 C 
ATOM     15  C   UNL     1      -3.488 -10.850  14.177  0.00  0.00    +0.029 C 
ATOM     16  C   UNL     1      -7.509  -9.848  17.221  0.00  0.00    +0.076 C 
ATOM     17  C   UNL     1      -2.735 -11.409  15.384  0.00  0.00    +0.007 C 
ATOM     18  C   UNL     1      -6.708 -10.359  18.419  0.00  0.00    +0.023 C 
ATOM     19  C   UNL     1      -5.055 -12.562  17.030  0.00  0.00    +0.011 C 
ATOM     21  C   UNL     1      -7.923  -9.891  14.735  0.00  0.00    +0.010 C 
ENDROOT
BRANCH  16   5
ATOM      4  O   UNL     1      -9.486  -7.777  17.435  0.00  0.00    -0.270 OA
ATOM      5  N   UNL     1      -8.918 -10.023  17.505  0.00  0.00    -0.308 N 
ATOM     24  C   UNL     1      -9.795  -8.956  17.588  0.00  0.00    +0.247 C 
ATOM     36  H   UNL     1      -9.228 -10.960  17.742  0.00  0.00    +0.149 HD
BRANCH  24  25
ATOM      7  N   UNL     1     -12.829 -10.194  19.446  0.00  0.00    -0.243 NA
ATOM      8  N   UNL     1     -13.526  -9.377  17.288  0.00  0.00    -0.243 NA
ATOM     25  C   UNL     1     -11.203  -9.301  17.912  0.00  0.00    +0.073 A 
ATOM     27  C   UNL     1     -11.561  -9.868  19.118  0.00  0.00    +0.127 A 
ATOM     28  C   UNL     1     -12.238  -9.076  17.027  0.00  0.00    +0.127 A 
ATOM     32  C   UNL     1     -13.748  -9.926  18.498  0.00  0.00    +0.221 A 
ENDBRANCH  24  25
ENDBRANCH  16   5
BRANCH  12   2
ATOM      2  O   UNL     1      -5.590 -10.227  13.236  0.00  0.00    -0.391 OA
ATOM     37  H   UNL     1      -5.927  -9.389  13.594  0.00  0.00    +0.210 HD
ENDBRANCH  12   2
BRANCH  15  20
ATOM     20  C   UNL     1      -2.974 -11.522  12.897  0.00  0.00    +0.077 C 
ATOM     22  C   UNL     1      -1.791 -12.429  13.219  0.00  0.00    +0.017 C 
BRANCH  20  23
ATOM      3  O   UNL     1      -1.480  -9.948  11.820  0.00  0.00    -0.276 OA
ATOM      6  N   UNL     1      -3.645 -10.152  11.014  0.00  0.00    -0.311 N 
ATOM     23  C   UNL     1      -2.596 -10.461  11.868  0.00  0.00    +0.216 C 
ATOM     38  H   UNL     1      -4.527 -10.649  11.099  0.00  0.00    +0.149 HD
BRANCH   6  26
ATOM     26  C   UNL     1      -3.531  -9.175   9.957  0.00  0.00    +0.139 C 
BRANCH  26  29
ATOM      1  F   UNL     1      -8.244  -8.812   6.900  0.00  0.00    -0.205 F 
ATOM     29  C   UNL     1      -4.788  -9.078   9.142  0.00  0.00    -0.030 A 
ATOM     30  C   UNL     1      -5.829  -8.252   9.562  0.00  0.00    +0.008 A 
ATOM     31  C   UNL     1      -4.913  -9.815   7.963  0.00  0.00    +0.008 A 
ATOM     33  C   UNL     1      -6.997  -8.163   8.805  0.00  0.00    +0.038 A 
ATOM     34  C   UNL     1      -6.081  -9.724   7.207  0.00  0.00    +0.038 A 
ATOM     35  C   UNL     1      -7.123  -8.898   7.627  0.00  0.00    +0.123 A 
ENDBRANCH  26  29
ENDBRANCH   6  26
ENDBRANCH  20  23
ENDBRANCH  15  20
TORSDOF 7
ENDMDL
MODEL 3
REMARK VINA RESULT:      -7.1     28.728     33.604
REMARK  Name = 45361630
REMARK  10 active torsions:
REMARK  status: ('A' for Active; 'I' for Inactive)
REMARK    1  A    between atoms: O_2  and  C_12
REMARK    2  A    between atoms: N_5  and  C_16
REMARK    3  A    between atoms: N_6  and  C_26
REMARK    4  A    between atoms: C_9  and  C_19
REMARK    5  A    between atoms: C_11  and  C_21
REMARK    6  A    between atoms: C_15  and  C_20
REMARK    7  A    between atoms: C_20  and  C_22
REMARK    8  A    between atoms: C_20  and  C_23
REMARK    9  A    between atoms: C_24  and  C_25
REMARK   10  A    between atoms: C_26  and  C_29
REMARK                            x       y       z     vdW  Elec       q    Type
REMARK                         _______ _______ _______ _____ _____    ______ ____
ROOT
ATOM      9  C   UNL     1       9.434   6.197   6.164  0.00  0.00    -0.027 C 
ATOM     10  C   UNL     1      10.445   7.284   5.667  0.00  0.00    +0.028 C 
ATOM     11  C   UNL     1       9.959   8.723   6.067  0.00  0.00    +0.012 C 
ATOM     12  C   UNL     1      10.788   7.089   4.163  0.00  0.00    +0.122 C 
ATOM     13  C   UNL     1       9.996   4.789   5.854  0.00  0.00    +0.007 C 
ATOM     14  C   UNL     1       9.279   6.316   7.697  0.00  0.00    +0.009 C 
ATOM     15  C   UNL     1      11.252   5.648   3.841  0.00  0.00    +0.029 C 
ATOM     16  C   UNL     1       9.735   8.809   7.603  0.00  0.00    +0.076 C 
ATOM     17  C   UNL     1      10.298   4.582   4.376  0.00  0.00    +0.007 C 
ATOM     18  C   UNL     1       8.835   7.700   8.148  0.00  0.00    +0.023 C 
ATOM     19  C   UNL     1       8.041   6.333   5.499  0.00  0.00    +0.011 C 
ATOM     21  C   UNL     1      10.922   9.841   5.634  0.00  0.00    +0.010 C 
ENDROOT
BRANCH  16   5
ATOM      4  O   UNL     1      10.928  10.736   9.366  0.00  0.00    -0.270 OA
ATOM      5  N   UNL     1       9.176  10.086   7.994  0.00  0.00    -0.308 N 
ATOM     24  C   UNL     1       9.831  10.949   8.855  0.00  0.00    +0.247 C 
ATOM     36  H   UNL     1       8.228  10.287   7.691  0.00  0.00    +0.149 HD
BRANCH  24  25
ATOM      7  N   UNL     1       8.404  14.422   8.550  0.00  0.00    -0.243 NA
ATOM      8  N   UNL     1       7.805  13.528  10.707  0.00  0.00    -0.243 NA
ATOM     25  C   UNL     1       9.113  12.209   9.177  0.00  0.00    +0.073 A 
ATOM     27  C   UNL     1       9.048  13.264   8.291  0.00  0.00    +0.127 A 
ATOM     28  C   UNL     1       8.466  12.399  10.381  0.00  0.00    +0.127 A 
ATOM     32  C   UNL     1       7.814  14.485   9.759  0.00  0.00    +0.221 A 
ENDBRANCH  24  25
ENDBRANCH  16   5
BRANCH  12   2
ATOM      2  O   UNL     1      11.866   7.954   3.804  0.00  0.00    -0.391 OA
ATOM     37  H   UNL     1      11.664   8.844   4.138  0.00  0.00    +0.210 HD
ENDBRANCH  12   2
BRANCH  15  20
ATOM     20  C   UNL     1      11.459   5.441   2.336  0.00  0.00    +0.077 C 
ATOM     22  C   UNL     1      10.652   4.240   1.855  0.00  0.00    +0.017 C 
BRANCH  20  23
ATOM      3  O   UNL     1      13.761   6.176   2.170  0.00  0.00    -0.276 OA
ATOM      6  N   UNL     1      13.253   3.988   1.596  0.00  0.00    -0.311 N 
ATOM     23  C   UNL     1      12.945   5.268   2.034  0.00  0.00    +0.216 C 
ATOM     38  H   UNL     1      12.523   3.283   1.545  0.00  0.00    +0.149 HD
BRANCH   6  26
ATOM     26  C   UNL     1      14.594   3.583   1.246  0.00  0.00    +0.139 C 
BRANCH  26  29
ATOM      1  F   UNL     1      15.972   5.146  -3.984  0.00  0.00    -0.205 F 
ATOM     29  C   UNL     1      14.962   4.000  -0.149  0.00  0.00    -0.030 A 
ATOM     30  C   UNL     1      13.990   4.022  -1.148  0.00  0.00    +0.008 A 
ATOM     31  C   UNL     1      16.276   4.365  -0.444  0.00  0.00    +0.008 A 
ATOM     33  C   UNL     1      14.332   4.408  -2.444  0.00  0.00    +0.038 A 
ATOM     34  C   UNL     1      16.616   4.752  -1.739  0.00  0.00    +0.038 A 
ATOM     35  C   UNL     1      15.645   4.774  -2.740  0.00  0.00    +0.123 A 
ENDBRANCH  26  29
ENDBRANCH   6  26
ENDBRANCH  20  23
ENDBRANCH  15  20
TORSDOF 7
ENDMDL
MODEL 4
REMARK VINA RESULT:      -7.1     19.560     21.255
REMARK  Name = 45361630
REMARK  10 active torsions:
REMARK  status: ('A' for Active; 'I' for Inactive)
REMARK    1  A    between atoms: O_2  and  C_12
REMARK    2  A    between atoms: N_5  and  C_16
REMARK    3  A    between atoms: N_6  and  C_26
REMARK    4  A    between atoms: C_9  and  C_19
REMARK    5  A    between atoms: C_11  and  C_21
REMARK    6  A    between atoms: C_15  and  C_20
REMARK    7  A    between atoms: C_20  and  C_22
REMARK    8  A    between atoms: C_20  and  C_23
REMARK    9  A    between atoms: C_24  and  C_25
REMARK   10  A    between atoms: C_26  and  C_29
REMARK                            x       y       z     vdW  Elec       q    Type
REMARK                         _______ _______ _______ _____ _____    ______ ____
ROOT
ATOM      9  C   UNL     1      -3.349 -11.431  11.764  0.00  0.00    -0.027 C 
ATOM     10  C   UNL     1      -4.656 -10.821  12.371  0.00  0.00    +0.028 C 
ATOM     11  C   UNL     1      -5.366  -9.878  11.334  0.00  0.00    +0.012 C 
ATOM     12  C   UNL     1      -4.388 -10.193  13.769  0.00  0.00    +0.122 C 
ATOM     13  C   UNL     1      -2.737 -12.439  12.766  0.00  0.00    +0.007 C 
ATOM     14  C   UNL     1      -3.707 -12.208  10.476  0.00  0.00    +0.009 C 
ATOM     15  C   UNL     1      -3.681 -11.173  14.735  0.00  0.00    +0.029 C 
ATOM     16  C   UNL     1      -5.654 -10.649  10.015  0.00  0.00    +0.076 C 
ATOM     17  C   UNL     1      -2.437 -11.818  14.124  0.00  0.00    +0.007 C 
ATOM     18  C   UNL     1      -4.423 -11.352   9.441  0.00  0.00    +0.023 C 
ATOM     19  C   UNL     1      -2.288 -10.354  11.430  0.00  0.00    +0.011 C 
ATOM     21  C   UNL     1      -6.676  -9.264  11.856  0.00  0.00    +0.010 C 
ENDROOT
BRANCH  16   5
ATOM      4  O   UNL     1      -8.173 -10.960   8.673  0.00  0.00    -0.270 OA
ATOM      5  N   UNL     1      -6.203  -9.782   8.994  0.00  0.00    -0.308 N 
ATOM     24  C   UNL     1      -7.433 -10.018   8.404  0.00  0.00    +0.247 C 
ATOM     36  H   UNL     1      -5.604  -9.038   8.649  0.00  0.00    +0.149 HD
BRANCH  24  25
ATOM      7  N   UNL     1      -7.519  -8.076   5.177  0.00  0.00    -0.243 NA
ATOM      8  N   UNL     1      -9.311  -7.302   6.591  0.00  0.00    -0.243 NA
ATOM     25  C   UNL     1      -7.842  -9.048   7.355  0.00  0.00    +0.073 A 
ATOM     27  C   UNL     1      -7.176  -8.944   6.152  0.00  0.00    +0.127 A 
ATOM     28  C   UNL     1      -8.913  -8.194   7.521  0.00  0.00    +0.127 A 
ATOM     32  C   UNL     1      -8.581  -7.297   5.460  0.00  0.00    +0.221 A 
ENDBRANCH  24  25
ENDBRANCH  16   5
BRANCH  12   2
ATOM      2  O   UNL     1      -5.631  -9.843  14.380  0.00  0.00    -0.391 OA
ATOM     37  H   UNL     1      -6.272  -9.655  13.675  0.00  0.00    +0.210 HD
ENDBRANCH  12   2
BRANCH  15  20
ATOM     20  C   UNL     1      -3.309 -10.497  16.060  0.00  0.00    +0.077 C 
ATOM     22  C   UNL     1      -1.820 -10.672  16.339  0.00  0.00    +0.017 C 
BRANCH  20  23
ATOM      3  O   UNL     1      -3.708 -11.841  18.034  0.00  0.00    -0.276 OA
ATOM      6  N   UNL     1      -5.469 -10.618  17.152  0.00  0.00    -0.311 N 
ATOM     23  C   UNL     1      -4.157 -11.068  17.192  0.00  0.00    +0.216 C 
ATOM     38  H   UNL     1      -5.751  -9.949  16.441  0.00  0.00    +0.149 HD
BRANCH   6  26
ATOM     26  C   UNL     1      -6.464 -11.021  18.118  0.00  0.00    +0.139 C 
BRANCH  26  29
ATOM      1  F   UNL     1     -11.298  -8.210  17.469  0.00  0.00    -0.205 F 
ATOM     29  C   UNL     1      -7.753 -10.272  17.945  0.00  0.00    -0.030 A 
ATOM     30  C   UNL     1      -8.892 -10.675  18.640  0.00  0.00    +0.008 A 
ATOM     31  C   UNL     1      -7.811  -9.172  17.088  0.00  0.00    +0.008 A 
ATOM     33  C   UNL     1     -10.090  -9.979  18.479  0.00  0.00    +0.038 A 
ATOM     34  C   UNL     1      -9.008  -8.476  16.928  0.00  0.00    +0.038 A 
ATOM     35  C   UNL     1     -10.149  -8.879  17.623  0.00  0.00    +0.123 A 
ENDBRANCH  26  29
ENDBRANCH   6  26
ENDBRANCH  20  23
ENDBRANCH  15  20
TORSDOF 7
ENDMDL
MODEL 5
REMARK VINA RESULT:      -7.1     19.275     22.504
REMARK  Name = 45361630
REMARK  10 active torsions:
REMARK  status: ('A' for Active; 'I' for Inactive)
REMARK    1  A    between atoms: O_2  and  C_12
REMARK    2  A    between atoms: N_5  and  C_16
REMARK    3  A    between atoms: N_6  and  C_26
REMARK    4  A    between atoms: C_9  and  C_19
REMARK    5  A    between atoms: C_11  and  C_21
REMARK    6  A    between atoms: C_15  and  C_20
REMARK    7  A    between atoms: C_20  and  C_22
REMARK    8  A    between atoms: C_20  and  C_23
REMARK    9  A    between atoms: C_24  and  C_25
REMARK   10  A    between atoms: C_26  and  C_29
REMARK                            x       y       z     vdW  Elec       q    Type
REMARK                         _______ _______ _______ _____ _____    ______ ____
ROOT
ATOM      9  C   UNL     1      -4.419 -10.667  11.210  0.00  0.00    -0.027 C 
ATOM     10  C   UNL     1      -5.838 -10.068  11.482  0.00  0.00    +0.028 C 
ATOM     11  C   UNL     1      -6.429 -10.621  12.829  0.00  0.00    +0.012 C 
ATOM     12  C   UNL     1      -6.761 -10.215  10.239  0.00  0.00    +0.122 C 
ATOM     13  C   UNL     1      -3.820 -10.018   9.939  0.00  0.00    +0.007 C 
ATOM     14  C   UNL     1      -3.489 -10.322  12.396  0.00  0.00    +0.009 C 
ATOM     15  C   UNL     1      -6.113  -9.657   8.949  0.00  0.00    +0.029 C 
ATOM     16  C   UNL     1      -5.451 -10.335  14.003  0.00  0.00    +0.076 C 
ATOM     17  C   UNL     1      -4.703 -10.193   8.710  0.00  0.00    +0.007 C 
ATOM     18  C   UNL     1      -4.023 -10.811  13.735  0.00  0.00    +0.023 C 
ATOM     19  C   UNL     1      -4.448 -12.204  11.016  0.00  0.00    +0.011 C 
ATOM     21  C   UNL     1      -7.814 -10.051  13.174  0.00  0.00    +0.010 C 
ENDROOT
BRANCH  16   5
ATOM      4  O   UNL     1      -5.848  -8.995  16.511  0.00  0.00    -0.270 OA
ATOM      5  N   UNL     1      -5.908 -10.932  15.240  0.00  0.00    -0.308 N 
ATOM     24  C   UNL     1      -6.068 -10.198  16.403  0.00  0.00    +0.247 C 
ATOM     36  H   UNL     1      -6.014 -11.942  15.254  0.00  0.00    +0.149 HD
BRANCH  24  25
ATOM      7  N   UNL     1      -7.499 -12.946  18.546  0.00  0.00    -0.243 NA
ATOM      8  N   UNL     1      -6.808 -11.133  19.976  0.00  0.00    -0.243 NA
ATOM     25  C   UNL     1      -6.520 -10.964  17.593  0.00  0.00    +0.073 A 
ATOM     27  C   UNL     1      -7.078 -12.222  17.488  0.00  0.00    +0.127 A 
ATOM     28  C   UNL     1      -6.409 -10.465  18.875  0.00  0.00    +0.127 A 
ATOM     32  C   UNL     1      -7.337 -12.350  19.743  0.00  0.00    +0.221 A 
ENDBRANCH  24  25
ENDBRANCH  16   5
BRANCH  12   2
ATOM      2  O   UNL     1      -7.963  -9.473  10.446  0.00  0.00    -0.391 OA
ATOM     37  H   UNL     1      -8.191  -9.524  11.389  0.00  0.00    +0.210 HD
ENDBRANCH  12   2
BRANCH  15  20
ATOM     20  C   UNL     1      -6.980  -9.929   7.714  0.00  0.00    +0.077 C 
ATOM     22  C   UNL     1      -6.231 -10.822   6.732  0.00  0.00    +0.017 C 
BRANCH  20  23
ATOM      3  O   UNL     1      -7.215  -8.374   5.871  0.00  0.00    -0.276 OA
ATOM      6  N   UNL     1      -7.966  -7.729   7.968  0.00  0.00    -0.311 N 
ATOM     23  C   UNL     1      -7.389  -8.610   7.064  0.00  0.00    +0.216 C 
ATOM     38  H   UNL     1      -8.105  -8.016   8.933  0.00  0.00    +0.149 HD
BRANCH   6  26
ATOM     26  C   UNL     1      -8.431  -6.415   7.590  0.00  0.00    +0.139 C 
BRANCH  26  29
ATOM      1  F   UNL     1     -12.717  -4.691  10.807  0.00  0.00    -0.205 F 
ATOM     29  C   UNL     1      -9.574  -5.955   8.448  0.00  0.00    -0.030 A 
ATOM     30  C   UNL     1     -10.431  -6.890   9.027  0.00  0.00    +0.008 A 
ATOM     31  C   UNL     1      -9.779  -4.592   8.666  0.00  0.00    +0.008 A 
ATOM     33  C   UNL     1     -11.493  -6.463   9.823  0.00  0.00    +0.038 A 
ATOM     34  C   UNL     1     -10.840  -4.166   9.462  0.00  0.00    +0.038 A 
ATOM     35  C   UNL     1     -11.698  -5.100  10.042  0.00  0.00    +0.123 A 
ENDBRANCH  26  29
ENDBRANCH   6  26
ENDBRANCH  20  23
ENDBRANCH  15  20
TORSDOF 7
ENDMDL
MODEL 6
REMARK VINA RESULT:      -7.1     32.373     36.712
REMARK  Name = 45361630
REMARK  10 active torsions:
REMARK  status: ('A' for Active; 'I' for Inactive)
REMARK    1  A    between atoms: O_2  and  C_12
REMARK    2  A    between atoms: N_5  and  C_16
REMARK    3  A    between atoms: N_6  and  C_26
REMARK    4  A    between atoms: C_9  and  C_19
REMARK    5  A    between atoms: C_11  and  C_21
REMARK    6  A    between atoms: C_15  and  C_20
REMARK    7  A    between atoms: C_20  and  C_22
REMARK    8  A    between atoms: C_20  and  C_23
REMARK    9  A    between atoms: C_24  and  C_25
REMARK   10  A    between atoms: C_26  and  C_29
REMARK                            x       y       z     vdW  Elec       q    Type
REMARK                         _______ _______ _______ _____ _____    ______ ____
ROOT
ATOM      9  C   UNL     1      20.624   7.727  21.984  0.00  0.00    -0.027 C 
ATOM     10  C   UNL     1      20.320   6.699  20.844  0.00  0.00    +0.028 C 
ATOM     11  C   UNL     1      18.798   6.313  20.830  0.00  0.00    +0.012 C 
ATOM     12  C   UNL     1      21.312   5.502  20.886  0.00  0.00    +0.122 C 
ATOM     13  C   UNL     1      22.104   8.171  21.898  0.00  0.00    +0.007 C 
ATOM     14  C   UNL     1      19.744   8.981  21.779  0.00  0.00    +0.009 C 
ATOM     15  C   UNL     1      22.791   5.955  20.904  0.00  0.00    +0.029 C 
ATOM     16  C   UNL     1      17.920   7.589  20.699  0.00  0.00    +0.076 C 
ATOM     17  C   UNL     1      23.079   7.004  21.978  0.00  0.00    +0.007 C 
ATOM     18  C   UNL     1      18.256   8.666  21.731  0.00  0.00    +0.023 C 
ATOM     19  C   UNL     1      20.360   7.145  23.395  0.00  0.00    +0.011 C 
ATOM     21  C   UNL     1      18.422   5.325  19.714  0.00  0.00    +0.010 C 
ENDROOT
BRANCH  16   5
ATOM      4  O   UNL     1      15.751   9.112  19.594  0.00  0.00    -0.270 OA
ATOM      5  N   UNL     1      16.508   7.283  20.800  0.00  0.00    -0.308 N 
ATOM     24  C   UNL     1      15.534   8.084  20.230  0.00  0.00    +0.247 C 
ATOM     36  H   UNL     1      16.246   6.504  21.395  0.00  0.00    +0.149 HD
BRANCH  24  25
ATOM      7  N   UNL     1      12.135   6.575  19.632  0.00  0.00    -0.243 NA
ATOM      8  N   UNL     1      12.192   7.489  21.862  0.00  0.00    -0.243 NA
ATOM     25  C   UNL     1      14.131   7.646  20.445  0.00  0.00    +0.073 A 
ATOM     27  C   UNL     1      13.410   6.988  19.471  0.00  0.00    +0.127 A 
ATOM     28  C   UNL     1      13.464   7.872  21.632  0.00  0.00    +0.127 A 
ATOM     32  C   UNL     1      11.595   6.855  20.834  0.00  0.00    +0.221 A 
ENDBRANCH  24  25
ENDBRANCH  16   5
BRANCH  12   2
ATOM      2  O   UNL     1      21.145   4.703  19.714  0.00  0.00    -0.391 OA
ATOM     37  H   UNL     1      21.273   3.772  19.962  0.00  0.00    +0.210 HD
ENDBRANCH  12   2
BRANCH  15  20
ATOM     20  C   UNL     1      23.748   4.769  21.078  0.00  0.00    +0.077 C 
ATOM     22  C   UNL     1      24.226   4.687  22.523  0.00  0.00    +0.017 C 
BRANCH  20  23
ATOM      3  O   UNL     1      25.101   4.129  19.173  0.00  0.00    -0.276 OA
ATOM      6  N   UNL     1      25.743   5.977  20.418  0.00  0.00    -0.311 N 
ATOM     23  C   UNL     1      24.921   4.902  20.112  0.00  0.00    +0.216 C 
ATOM     38  H   UNL     1      25.504   6.590  21.192  0.00  0.00    +0.149 HD
BRANCH   6  26
ATOM     26  C   UNL     1      26.920   6.305  19.648  0.00  0.00    +0.139 C 
BRANCH  26  29
ATOM      1  F   UNL     1      25.647   9.150  14.959  0.00  0.00    -0.205 F 
ATOM     29  C   UNL     1      26.581   7.064  18.398  0.00  0.00    -0.030 A 
ATOM     30  C   UNL     1      25.863   8.257  18.479  0.00  0.00    +0.008 A 
ATOM     31  C   UNL     1      26.983   6.575  17.154  0.00  0.00    +0.008 A 
ATOM     33  C   UNL     1      25.547   8.961  17.317  0.00  0.00    +0.038 A 
ATOM     34  C   UNL     1      26.668   7.280  15.994  0.00  0.00    +0.038 A 
ATOM     35  C   UNL     1      25.950   8.473  16.074  0.00  0.00    +0.123 A 
ENDBRANCH  26  29
ENDBRANCH   6  26
ENDBRANCH  20  23
ENDBRANCH  15  20
TORSDOF 7
ENDMDL
MODEL 7
REMARK VINA RESULT:      -7.0     29.936     35.586
REMARK  Name = 45361630
REMARK  10 active torsions:
REMARK  status: ('A' for Active; 'I' for Inactive)
REMARK    1  A    between atoms: O_2  and  C_12
REMARK    2  A    between atoms: N_5  and  C_16
REMARK    3  A    between atoms: N_6  and  C_26
REMARK    4  A    between atoms: C_9  and  C_19
REMARK    5  A    between atoms: C_11  and  C_21
REMARK    6  A    between atoms: C_15  and  C_20
REMARK    7  A    between atoms: C_20  and  C_22
REMARK    8  A    between atoms: C_20  and  C_23
REMARK    9  A    between atoms: C_24  and  C_25
REMARK   10  A    between atoms: C_26  and  C_29
REMARK                            x       y       z     vdW  Elec       q    Type
REMARK                         _______ _______ _______ _____ _____    ______ ____
ROOT
ATOM      9  C   UNL     1      13.850   4.966   0.213  0.00  0.00    -0.027 C 
ATOM     10  C   UNL     1      12.292   4.831   0.222  0.00  0.00    +0.028 C 
ATOM     11  C   UNL     1      11.749   4.715   1.692  0.00  0.00    +0.012 C 
ATOM     12  C   UNL     1      11.817   3.718  -0.755  0.00  0.00    +0.122 C 
ATOM     13  C   UNL     1      14.340   5.192  -1.238  0.00  0.00    +0.007 C 
ATOM     14  C   UNL     1      14.254   6.206   1.044  0.00  0.00    +0.009 C 
ATOM     15  C   UNL     1      12.394   3.891  -2.180  0.00  0.00    +0.029 C 
ATOM     16  C   UNL     1      12.223   5.930   2.538  0.00  0.00    +0.076 C 
ATOM     17  C   UNL     1      13.910   4.084  -2.189  0.00  0.00    +0.007 C 
ATOM     18  C   UNL     1      13.733   6.163   2.473  0.00  0.00    +0.023 C 
ATOM     19  C   UNL     1      14.559   3.715   0.788  0.00  0.00    +0.011 C 
ATOM     21  C   UNL     1      10.217   4.607   1.776  0.00  0.00    +0.010 C 
ENDROOT
BRANCH  16   5
ATOM      4  O   UNL     1      10.460   7.659   4.002  0.00  0.00    -0.270 OA
ATOM      5  N   UNL     1      11.840   5.798   3.928  0.00  0.00    -0.308 N 
ATOM     24  C   UNL     1      10.979   6.689   4.547  0.00  0.00    +0.247 C 
ATOM     36  H   UNL     1      12.307   5.078   4.469  0.00  0.00    +0.149 HD
BRANCH  24  25
ATOM      7  N   UNL     1       9.140   6.188   7.795  0.00  0.00    -0.243 NA
ATOM      8  N   UNL     1      11.503   5.945   8.202  0.00  0.00    -0.243 NA
ATOM     25  C   UNL     1      10.706   6.429   5.983  0.00  0.00    +0.073 A 
ATOM     27  C   UNL     1       9.425   6.419   6.497  0.00  0.00    +0.127 A 
ATOM     28  C   UNL     1      11.715   6.183   6.891  0.00  0.00    +0.127 A 
ATOM     32  C   UNL     1      10.210   5.961   8.580  0.00  0.00    +0.221 A 
ENDBRANCH  24  25
ENDBRANCH  16   5
BRANCH  12   2
ATOM      2  O   UNL     1      10.395   3.769  -0.882  0.00  0.00    -0.391 OA
ATOM     37  H   UNL     1      10.056   4.400  -0.225  0.00  0.00    +0.210 HD
ENDBRANCH  12   2
BRANCH  15  20
ATOM     20  C   UNL     1      12.022   2.715  -3.092  0.00  0.00    +0.077 C 
ATOM     22  C   UNL     1      12.895   2.724  -4.342  0.00  0.00    +0.017 C 
BRANCH  20  23
ATOM      3  O   UNL     1       9.748   1.885  -3.170  0.00  0.00    -0.276 OA
ATOM      6  N   UNL     1      10.206   3.954  -4.113  0.00  0.00    -0.311 N 
ATOM     23  C   UNL     1      10.540   2.782  -3.448  0.00  0.00    +0.216 C 
ATOM     38  H   UNL     1      10.916   4.662  -4.273  0.00  0.00    +0.149 HD
BRANCH   6  26
ATOM     26  C   UNL     1       8.862   4.245  -4.555  0.00  0.00    +0.139 C 
BRANCH  26  29
ATOM      1  F   UNL     1       6.696   8.719  -1.911  0.00  0.00    -0.205 F 
ATOM     29  C   UNL     1       8.284   5.438  -3.850  0.00  0.00    -0.030 A 
ATOM     30  C   UNL     1       9.057   6.144  -2.928  0.00  0.00    +0.008 A 
ATOM     31  C   UNL     1       6.975   5.840  -4.117  0.00  0.00    +0.008 A 
ATOM     33  C   UNL     1       8.519   7.252  -2.272  0.00  0.00    +0.038 A 
ATOM     34  C   UNL     1       6.439   6.948  -3.462  0.00  0.00    +0.038 A 
ATOM     35  C   UNL     1       7.211   7.655  -2.540  0.00  0.00    +0.123 A 
ENDBRANCH  26  29
ENDBRANCH   6  26
ENDBRANCH  20  23
ENDBRANCH  15  20
TORSDOF 7
ENDMDL
MODEL 8
REMARK VINA RESULT:      -6.9     31.228     34.415
REMARK  Name = 45361630
REMARK  10 active torsions:
REMARK  status: ('A' for Active; 'I' for Inactive)
REMARK    1  A    between atoms: O_2  and  C_12
REMARK    2  A    between atoms: N_5  and  C_16
REMARK    3  A    between atoms: N_6  and  C_26
REMARK    4  A    between atoms: C_9  and  C_19
REMARK    5  A    between atoms: C_11  and  C_21
REMARK    6  A    between atoms: C_15  and  C_20
REMARK    7  A    between atoms: C_20  and  C_22
REMARK    8  A    between atoms: C_20  and  C_23
REMARK    9  A    between atoms: C_24  and  C_25
REMARK   10  A    between atoms: C_26  and  C_29
REMARK                            x       y       z     vdW  Elec       q    Type
REMARK                         _______ _______ _______ _____ _____    ______ ____
ROOT
ATOM      9  C   UNL     1      16.693  -3.217  31.314  0.00  0.00    -0.027 C 
ATOM     10  C   UNL     1      16.773  -3.983  29.952  0.00  0.00    +0.028 C 
ATOM     11  C   UNL     1      16.190  -5.435  30.093  0.00  0.00    +0.012 C 
ATOM     12  C   UNL     1      18.200  -3.894  29.338  0.00  0.00    +0.122 C 
ATOM     13  C   UNL     1      17.169  -1.758  31.113  0.00  0.00    +0.007 C 
ATOM     14  C   UNL     1      15.220  -3.171  31.780  0.00  0.00    +0.009 C 
ATOM     15  C   UNL     1      18.712  -2.438  29.236  0.00  0.00    +0.029 C 
ATOM     16  C   UNL     1      14.734  -5.380  30.634  0.00  0.00    +0.076 C 
ATOM     17  C   UNL     1      18.580  -1.666  30.549  0.00  0.00    +0.007 C 
ATOM     18  C   UNL     1      14.591  -4.550  31.910  0.00  0.00    +0.023 C 
ATOM     19  C   UNL     1      17.556  -3.874  32.419  0.00  0.00    +0.011 C 
ATOM     21  C   UNL     1      16.213  -6.238  28.782  0.00  0.00    +0.010 C 
ENDROOT
BRANCH  16   5
ATOM      4  O   UNL     1      12.012  -6.231  30.300  0.00  0.00    -0.270 OA
ATOM      5  N   UNL     1      14.204  -6.704  30.886  0.00  0.00    -0.308 N 
ATOM     24  C   UNL     1      12.870  -7.017  30.695  0.00  0.00    +0.247 C 
ATOM     36  H   UNL     1      14.833  -7.379  31.310  0.00  0.00    +0.149 HD
BRANCH  24  25
ATOM      7  N   UNL     1      12.803 -10.783  30.758  0.00  0.00    -0.243 NA
ATOM      8  N   UNL     1      11.067  -9.956  32.211  0.00  0.00    -0.243 NA
ATOM     25  C   UNL     1      12.480  -8.412  31.024  0.00  0.00    +0.073 A 
ATOM     27  C   UNL     1      13.129  -9.502  30.482  0.00  0.00    +0.127 A 
ATOM     28  C   UNL     1      11.447  -8.702  31.891  0.00  0.00    +0.127 A 
ATOM     32  C   UNL     1      11.777 -10.934  31.618  0.00  0.00    +0.221 A 
ENDBRANCH  24  25
ENDBRANCH  16   5
BRANCH  12   2
ATOM      2  O   UNL     1      18.180  -4.413  28.008  0.00  0.00    -0.391 OA
ATOM     37  H   UNL     1      17.392  -4.974  27.915  0.00  0.00    +0.210 HD
ENDBRANCH  12   2
BRANCH  15  20
ATOM     20  C   UNL     1      20.167  -2.379  28.752  0.00  0.00    +0.077 C 
ATOM     22  C   UNL     1      21.065  -1.831  29.855  0.00  0.00    +0.017 C 
BRANCH  20  23
ATOM      3  O   UNL     1      21.064  -0.611  27.361  0.00  0.00    -0.276 OA
ATOM      6  N   UNL     1      19.344  -1.919  26.519  0.00  0.00    -0.311 N 
ATOM     23  C   UNL     1      20.260  -1.532  27.487  0.00  0.00    +0.216 C 
ATOM     38  H   UNL     1      18.736  -2.715  26.690  0.00  0.00    +0.149 HD
BRANCH   6  26
ATOM     26  C   UNL     1      19.239  -1.265  25.236  0.00  0.00    +0.139 C 
BRANCH  26  29
ATOM      1  F   UNL     1      14.682  -2.935  22.383  0.00  0.00    -0.205 F 
ATOM     29  C   UNL     1      18.024  -1.710  24.475  0.00  0.00    -0.030 A 
ATOM     30  C   UNL     1      17.624  -1.018  23.333  0.00  0.00    +0.008 A 
ATOM     31  C   UNL     1      17.295  -2.817  24.911  0.00  0.00    +0.008 A 
ATOM     33  C   UNL     1      16.495  -1.432  22.626  0.00  0.00    +0.038 A 
ATOM     34  C   UNL     1      16.167  -3.230  24.204  0.00  0.00    +0.038 A 
ATOM     35  C   UNL     1      15.766  -2.538  23.062  0.00  0.00    +0.123 A 
ENDBRANCH  26  29
ENDBRANCH   6  26
ENDBRANCH  20  23
ENDBRANCH  15  20
TORSDOF 7
ENDMDL
MODEL 9
REMARK VINA RESULT:      -6.8     30.282     33.709
REMARK  Name = 45361630
REMARK  10 active torsions:
REMARK  status: ('A' for Active; 'I' for Inactive)
REMARK    1  A    between atoms: O_2  and  C_12
REMARK    2  A    between atoms: N_5  and  C_16
REMARK    3  A    between atoms: N_6  and  C_26
REMARK    4  A    between atoms: C_9  and  C_19
REMARK    5  A    between atoms: C_11  and  C_21
REMARK    6  A    between atoms: C_15  and  C_20
REMARK    7  A    between atoms: C_20  and  C_22
REMARK    8  A    between atoms: C_20  and  C_23
REMARK    9  A    between atoms: C_24  and  C_25
REMARK   10  A    between atoms: C_26  and  C_29
REMARK                            x       y       z     vdW  Elec       q    Type
REMARK                         _______ _______ _______ _____ _____    ______ ____
ROOT
ATOM      9  C   UNL     1      16.438  -4.603  30.750  0.00  0.00    -0.027 C 
ATOM     10  C   UNL     1      15.364  -5.444  29.983  0.00  0.00    +0.028 C 
ATOM     11  C   UNL     1      14.276  -5.996  30.972  0.00  0.00    +0.012 C 
ATOM     12  C   UNL     1      16.032  -6.507  29.064  0.00  0.00    +0.122 C 
ATOM     13  C   UNL     1      17.429  -3.983  29.735  0.00  0.00    +0.007 C 
ATOM     14  C   UNL     1      15.735  -3.443  31.491  0.00  0.00    +0.009 C 
ATOM     15  C   UNL     1      17.096  -5.896  28.123  0.00  0.00    +0.029 C 
ATOM     16  C   UNL     1      13.628  -4.826  31.766  0.00  0.00    +0.076 C 
ATOM     17  C   UNL     1      18.113  -5.025  28.860  0.00  0.00    +0.007 C 
ATOM     18  C   UNL     1      14.649  -3.915  32.447  0.00  0.00    +0.023 C 
ATOM     19  C   UNL     1      17.238  -5.450  31.772  0.00  0.00    +0.011 C 
ATOM     21  C   UNL     1      13.170  -6.810  30.280  0.00  0.00    +0.010 C 
ENDROOT
BRANCH  16   5
ATOM      4  O   UNL     1      10.929  -3.936  32.178  0.00  0.00    -0.270 OA
ATOM      5  N   UNL     1      12.702  -5.307  32.770  0.00  0.00    -0.308 N 
ATOM     24  C   UNL     1      11.415  -4.811  32.889  0.00  0.00    +0.247 C 
ATOM     36  H   UNL     1      13.065  -5.959  33.458  0.00  0.00    +0.149 HD
BRANCH  24  25
ATOM      7  N   UNL     1       9.906  -5.390  36.292  0.00  0.00    -0.243 NA
ATOM      8  N   UNL     1       9.004  -7.018  34.761  0.00  0.00    -0.243 NA
ATOM     25  C   UNL     1      10.599  -5.391  33.987  0.00  0.00    +0.073 A 
ATOM     27  C   UNL     1      10.633  -4.889  35.271  0.00  0.00    +0.127 A 
ATOM     28  C   UNL     1       9.758  -6.467  33.789  0.00  0.00    +0.127 A 
ATOM     32  C   UNL     1       9.125  -6.439  35.971  0.00  0.00    +0.221 A 
ENDBRANCH  24  25
ENDBRANCH  16   5
BRANCH  12   2
ATOM      2  O   UNL     1      15.040  -7.102  28.226  0.00  0.00    -0.391 OA
ATOM     37  H   UNL     1      14.564  -6.389  27.768  0.00  0.00    +0.210 HD
ENDBRANCH  12   2
BRANCH  15  20
ATOM     20  C   UNL     1      17.833  -6.975  27.320  0.00  0.00    +0.077 C 
ATOM     22  C   UNL     1      19.340  -6.826  27.501  0.00  0.00    +0.017 C 
BRANCH  20  23
ATOM      3  O   UNL     1      16.482  -7.500  25.380  0.00  0.00    -0.276 OA
ATOM      6  N   UNL     1      18.278  -6.056  25.122  0.00  0.00    -0.311 N 
ATOM     23  C   UNL     1      17.439  -6.889  25.849  0.00  0.00    +0.216 C 
ATOM     38  H   UNL     1      19.027  -5.558  25.594  0.00  0.00    +0.149 HD
BRANCH   6  26
ATOM     26  C   UNL     1      18.108  -5.816  23.708  0.00  0.00    +0.139 C 
BRANCH  26  29
ATOM      1  F   UNL     1      16.222  -0.616  22.661  0.00  0.00    -0.205 F 
ATOM     29  C   UNL     1      17.605  -4.429  23.429  0.00  0.00    -0.030 A 
ATOM     30  C   UNL     1      18.310  -3.594  22.563  0.00  0.00    +0.008 A 
ATOM     31  C   UNL     1      16.432  -3.977  24.035  0.00  0.00    +0.008 A 
ATOM     33  C   UNL     1      17.843  -2.305  22.305  0.00  0.00    +0.038 A 
ATOM     34  C   UNL     1      15.966  -2.689  23.776  0.00  0.00    +0.038 A 
ATOM     35  C   UNL     1      16.671  -1.853  22.910  0.00  0.00    +0.123 A 
ENDBRANCH  26  29
ENDBRANCH   6  26
ENDBRANCH  20  23
ENDBRANCH  15  20
TORSDOF 7
ENDMDL
MODEL 10
REMARK VINA RESULT:      -6.8     18.838     22.356
REMARK  Name = 45361630
REMARK  10 active torsions:
REMARK  status: ('A' for Active; 'I' for Inactive)
REMARK    1  A    between atoms: O_2  and  C_12
REMARK    2  A    between atoms: N_5  and  C_16
REMARK    3  A    between atoms: N_6  and  C_26
REMARK    4  A    between atoms: C_9  and  C_19
REMARK    5  A    between atoms: C_11  and  C_21
REMARK    6  A    between atoms: C_15  and  C_20
REMARK    7  A    between atoms: C_20  and  C_22
REMARK    8  A    between atoms: C_20  and  C_23
REMARK    9  A    between atoms: C_24  and  C_25
REMARK   10  A    between atoms: C_26  and  C_29
REMARK                            x       y       z     vdW  Elec       q    Type
REMARK                         _______ _______ _______ _____ _____    ______ ____
ROOT
ATOM      9  C   UNL     1      -8.740 -10.883  16.916  0.00  0.00    -0.027 C 
ATOM     10  C   UNL     1      -8.184 -12.054  17.793  0.00  0.00    +0.028 C 
ATOM     11  C   UNL     1      -8.944 -12.134  19.165  0.00  0.00    +0.012 C 
ATOM     12  C   UNL     1      -6.632 -11.996  17.892  0.00  0.00    +0.122 C 
ATOM     13  C   UNL     1      -8.049 -10.903  15.531  0.00  0.00    +0.007 C 
ATOM     14  C   UNL     1     -10.254 -11.098  16.690  0.00  0.00    +0.009 C 
ATOM     15  C   UNL     1      -5.951 -11.912  16.506  0.00  0.00    +0.029 C 
ATOM     16  C   UNL     1     -10.474 -12.275  18.925  0.00  0.00    +0.076 C 
ATOM     17  C   UNL     1      -6.532 -10.808  15.623  0.00  0.00    +0.007 C 
ATOM     18  C   UNL     1     -11.042 -11.210  17.987  0.00  0.00    +0.023 C 
ATOM     19  C   UNL     1      -8.514  -9.495  17.565  0.00  0.00    +0.011 C 
ATOM     21  C   UNL     1      -8.466 -13.283  20.068  0.00  0.00    +0.010 C 
ENDROOT
BRANCH  16   5
ATOM      4  O   UNL     1     -12.256 -14.293  19.923  0.00  0.00    -0.270 OA
ATOM      5  N   UNL     1     -11.218 -12.235  20.167  0.00  0.00    -0.308 N 
ATOM     24  C   UNL     1     -12.057 -13.263  20.562  0.00  0.00    +0.247 C 
ATOM     36  H   UNL     1     -11.181 -11.371  20.699  0.00  0.00    +0.149 HD
BRANCH  24  25
ATOM      7  N   UNL     1     -14.467 -11.938  23.135  0.00  0.00    -0.243 NA
ATOM      8  N   UNL     1     -13.065 -13.600  24.175  0.00  0.00    -0.243 NA
ATOM     25  C   UNL     1     -12.768 -13.058  21.849  0.00  0.00    +0.073 A 
ATOM     27  C   UNL     1     -13.799 -12.150  21.982  0.00  0.00    +0.127 A 
ATOM     28  C   UNL     1     -12.441 -13.761  22.990  0.00  0.00    +0.127 A 
ATOM     32  C   UNL     1     -14.054 -12.685  24.176  0.00  0.00    +0.221 A 
ENDBRANCH  24  25
ENDBRANCH  16   5
BRANCH  12   2
ATOM      2  O   UNL     1      -6.150 -13.190  18.511  0.00  0.00    -0.391 OA
ATOM     37  H   UNL     1      -6.598 -13.288  19.368  0.00  0.00    +0.210 HD
ENDBRANCH  12   2
BRANCH  15  20
ATOM     20  C   UNL     1      -4.434 -11.724  16.628  0.00  0.00    +0.077 C 
ATOM     22  C   UNL     1      -4.105 -10.260  16.896  0.00  0.00    +0.017 C 
BRANCH  20  23
ATOM      3  O   UNL     1      -3.888 -13.369  14.936  0.00  0.00    -0.276 OA
ATOM      6  N   UNL     1      -2.950 -11.255  14.770  0.00  0.00    -0.311 N 
ATOM     23  C   UNL     1      -3.744 -12.226  15.363  0.00  0.00    +0.216 C 
ATOM     38  H   UNL     1      -2.913 -10.321  15.169  0.00  0.00    +0.149 HD
BRANCH   6  26
ATOM     26  C   UNL     1      -2.194 -11.493  13.562  0.00  0.00    +0.139 C 
BRANCH  26  29
ATOM      1  F   UNL     1      -4.122  -8.453   9.234  0.00  0.00    -0.205 F 
ATOM     29  C   UNL     1      -2.709 -10.682  12.408  0.00  0.00    -0.030 A 
ATOM     30  C   UNL     1      -1.819  -9.960  11.613  0.00  0.00    +0.008 A 
ATOM     31  C   UNL     1      -4.076 -10.652  12.131  0.00  0.00    +0.008 A 
ATOM     33  C   UNL     1      -2.298  -9.206  10.541  0.00  0.00    +0.038 A 
ATOM     34  C   UNL     1      -4.553  -9.899  11.059  0.00  0.00    +0.038 A 
ATOM     35  C   UNL     1      -3.664  -9.176  10.263  0.00  0.00    +0.123 A 
ENDBRANCH  26  29
ENDBRANCH   6  26
ENDBRANCH  20  23
ENDBRANCH  15  20
TORSDOF 7
ENDMDL
