MODEL 1
REMARK VINA RESULT:      -6.0      0.000      0.000
REMARK  Name = 75536937
REMARK  7 active torsions:
REMARK  status: ('A' for Active; 'I' for Inactive)
REMARK    1  A    between atoms: O_2  and  C_6
REMARK    2  A    between atoms: O_2  and  C_17
REMARK    3  A    between atoms: N_3  and  C_8
REMARK    4  A    between atoms: N_4  and  C_14
REMARK    5  A    between atoms: N_4  and  C_18
REMARK    6  A    between atoms: N_4  and  C_19
REMARK    7  A    between atoms: C_8  and  C_11
REMARK                            x       y       z     vdW  Elec       q    Type
REMARK                         _______ _______ _______ _____ _____    ______ ____
ROOT
ATOM      8  C   UNL     1      14.728   6.970  18.908  0.00  0.00    +0.119 C 
ENDROOT
BRANCH   8   3
ATOM      1  O   UNL     1      12.012  10.271  20.421  0.00  0.00    -0.376 OA
ATOM      3  N   UNL     1      13.820   7.853  19.642  0.00  0.00    -0.293 NA
ATOM      5  C   UNL     1      12.618   7.117  20.047  0.00  0.00    +0.118 C 
ATOM      6  C   UNL     1      11.387   7.933  20.475  0.00  0.00    +0.157 C 
ATOM      7  C   UNL     1      13.551   9.084  18.895  0.00  0.00    +0.113 C 
ATOM      9  C   UNL     1      11.713   9.181  21.285  0.00  0.00    +0.192 C 
ATOM     10  C   UNL     1      13.320  10.242  19.867  0.00  0.00    +0.175 C 
BRANCH   6   2
ATOM      2  O   UNL     1      10.553   7.094  21.274  0.00  0.00    -0.376 OA
ATOM     17  C   UNL     1      11.194   5.863  21.570  0.00  0.00    +0.194 C 
ENDBRANCH   6   2
ENDBRANCH   8   3
BRANCH   8  11
ATOM     11  C   UNL     1      16.084   6.897  19.555  0.00  0.00    -0.033 A 
ATOM     12  C   UNL     1      17.018   5.958  19.116  0.00  0.00    +0.007 A 
ATOM     13  C   UNL     1      16.409   7.769  20.595  0.00  0.00    +0.007 A 
ATOM     14  C   UNL     1      18.598   6.762  20.756  0.00  0.00    +0.029 A 
ATOM     15  C   UNL     1      18.275   5.890  19.716  0.00  0.00    +0.023 A 
ATOM     16  C   UNL     1      17.665   7.701  21.195  0.00  0.00    +0.023 A 
BRANCH  14   4
ATOM      4  N   UNL     1      19.871   6.694  21.362  0.00  0.00    -0.336 N 
ATOM     18  C   UNL     1      19.997   6.684  22.805  0.00  0.00    +0.129 C 
ATOM     19  C   UNL     1      21.068   6.627  20.548  0.00  0.00    +0.129 C 
ENDBRANCH  14   4
ENDBRANCH   8  11
TORSDOF 4
ENDMDL
MODEL 2
REMARK VINA RESULT:      -5.6      3.775      7.016
REMARK  Name = 75536937
REMARK  7 active torsions:
REMARK  status: ('A' for Active; 'I' for Inactive)
REMARK    1  A    between atoms: O_2  and  C_6
REMARK    2  A    between atoms: O_2  and  C_17
REMARK    3  A    between atoms: N_3  and  C_8
REMARK    4  A    between atoms: N_4  and  C_14
REMARK    5  A    between atoms: N_4  and  C_18
REMARK    6  A    between atoms: N_4  and  C_19
REMARK    7  A    between atoms: C_8  and  C_11
REMARK                            x       y       z     vdW  Elec       q    Type
REMARK                         _______ _______ _______ _____ _____    ______ ____
ROOT
ATOM      8  C   UNL     1      11.032   8.579  20.715  0.00  0.00    +0.119 C 
ENDROOT
BRANCH   8   3
ATOM      1  O   UNL     1      14.897   6.635  19.359  0.00  0.00    -0.376 OA
ATOM      3  N   UNL     1      12.302   8.199  20.096  0.00  0.00    -0.293 NA
ATOM      5  C   UNL     1      12.182   8.235  18.635  0.00  0.00    +0.118 C 
ATOM      6  C   UNL     1      13.256   7.507  17.809  0.00  0.00    +0.157 C 
ATOM      7  C   UNL     1      12.799   6.929  20.630  0.00  0.00    +0.113 C 
ATOM      9  C   UNL     1      14.667   7.629  18.367  0.00  0.00    +0.192 C 
ATOM     10  C   UNL     1      14.328   6.926  20.628  0.00  0.00    +0.175 C 
BRANCH   6   2
ATOM      2  O   UNL     1      13.252   8.059  16.492  0.00  0.00    -0.376 OA
ATOM     17  C   UNL     1      12.611   9.325  16.465  0.00  0.00    +0.194 C 
ENDBRANCH   6   2
ENDBRANCH   8   3
BRANCH   8  11
ATOM     11  C   UNL     1      11.186   9.765  21.630  0.00  0.00    -0.033 A 
ATOM     12  C   UNL     1      11.773  10.938  21.158  0.00  0.00    +0.007 A 
ATOM     13  C   UNL     1      10.740   9.690  22.950  0.00  0.00    +0.007 A 
ATOM     14  C   UNL     1      11.469  11.961  23.325  0.00  0.00    +0.029 A 
ATOM     15  C   UNL     1      11.916  12.037  22.005  0.00  0.00    +0.023 A 
ATOM     16  C   UNL     1      10.882  10.788  23.797  0.00  0.00    +0.023 A 
BRANCH  14   4
ATOM      4  N   UNL     1      11.613  13.073  24.182  0.00  0.00    -0.336 N 
ATOM     18  C   UNL     1      12.631  14.070  23.927  0.00  0.00    +0.129 C 
ATOM     19  C   UNL     1      10.737  13.234  25.326  0.00  0.00    +0.129 C 
ENDBRANCH  14   4
ENDBRANCH   8  11
TORSDOF 4
ENDMDL
MODEL 3
REMARK VINA RESULT:      -5.5      1.687      2.981
REMARK  Name = 75536937
REMARK  7 active torsions:
REMARK  status: ('A' for Active; 'I' for Inactive)
REMARK    1  A    between atoms: O_2  and  C_6
REMARK    2  A    between atoms: O_2  and  C_17
REMARK    3  A    between atoms: N_3  and  C_8
REMARK    4  A    between atoms: N_4  and  C_14
REMARK    5  A    between atoms: N_4  and  C_18
REMARK    6  A    between atoms: N_4  and  C_19
REMARK    7  A    between atoms: C_8  and  C_11
REMARK                            x       y       z     vdW  Elec       q    Type
REMARK                         _______ _______ _______ _____ _____    ______ ____
ROOT
ATOM      8  C   UNL     1      15.861   9.105  20.362  0.00  0.00    +0.119 C 
ENDROOT
BRANCH   8   3
ATOM      1  O   UNL     1      11.927   6.910  19.853  0.00  0.00    -0.376 OA
ATOM      3  N   UNL     1      14.707   8.319  19.924  0.00  0.00    -0.293 NA
ATOM      5  C   UNL     1      14.250   8.784  18.610  0.00  0.00    +0.118 C 
ATOM      6  C   UNL     1      12.842   8.369  18.152  0.00  0.00    +0.157 C 
ATOM      7  C   UNL     1      13.663   8.285  20.949  0.00  0.00    +0.113 C 
ATOM      9  C   UNL     1      12.453   6.947  18.532  0.00  0.00    +0.192 C 
ATOM     10  C   UNL     1      12.907   6.957  20.880  0.00  0.00    +0.175 C 
BRANCH   6   2
ATOM      2  O   UNL     1      12.788   8.478  16.730  0.00  0.00    -0.376 OA
ATOM     17  C   UNL     1      14.046   8.856  16.193  0.00  0.00    +0.194 C 
ENDBRANCH   6   2
ENDBRANCH   8   3
BRANCH   8  11
ATOM     11  C   UNL     1      17.056   8.235  20.651  0.00  0.00    -0.033 A 
ATOM     12  C   UNL     1      17.179   6.991  20.033  0.00  0.00    +0.007 A 
ATOM     13  C   UNL     1      18.041   8.675  21.537  0.00  0.00    +0.007 A 
ATOM     14  C   UNL     1      19.269   6.625  21.186  0.00  0.00    +0.029 A 
ATOM     15  C   UNL     1      18.285   6.185  20.301  0.00  0.00    +0.023 A 
ATOM     16  C   UNL     1      19.146   7.869  21.804  0.00  0.00    +0.023 A 
BRANCH  14   4
ATOM      4  N   UNL     1      20.390   5.811  21.456  0.00  0.00    -0.336 N 
ATOM     18  C   UNL     1      20.810   4.802  20.505  0.00  0.00    +0.129 C 
ATOM     19  C   UNL     1      21.138   5.978  22.686  0.00  0.00    +0.129 C 
ENDBRANCH  14   4
ENDBRANCH   8  11
TORSDOF 4
ENDMDL
MODEL 4
REMARK VINA RESULT:      -5.2      3.619      7.481
REMARK  Name = 75536937
REMARK  7 active torsions:
REMARK  status: ('A' for Active; 'I' for Inactive)
REMARK    1  A    between atoms: O_2  and  C_6
REMARK    2  A    between atoms: O_2  and  C_17
REMARK    3  A    between atoms: N_3  and  C_8
REMARK    4  A    between atoms: N_4  and  C_14
REMARK    5  A    between atoms: N_4  and  C_18
REMARK    6  A    between atoms: N_4  and  C_19
REMARK    7  A    between atoms: C_8  and  C_11
REMARK                            x       y       z     vdW  Elec       q    Type
REMARK                         _______ _______ _______ _____ _____    ______ ____
ROOT
ATOM      8  C   UNL     1      13.590  11.205  19.244  0.00  0.00    +0.119 C 
ENDROOT
BRANCH   8   3
ATOM      1  O   UNL     1      12.125   7.209  17.681  0.00  0.00    -0.376 OA
ATOM      3  N   UNL     1      13.172   9.820  19.027  0.00  0.00    -0.293 NA
ATOM      5  C   UNL     1      14.226   8.899  19.466  0.00  0.00    +0.118 C 
ATOM      6  C   UNL     1      14.157   7.444  18.975  0.00  0.00    +0.157 C 
ATOM      7  C   UNL     1      12.719   9.607  17.650  0.00  0.00    +0.113 C 
ATOM      9  C   UNL     1      12.749   6.868  18.913  0.00  0.00    +0.192 C 
ATOM     10  C   UNL     1      11.626   8.538  17.621  0.00  0.00    +0.175 C 
BRANCH   6   2
ATOM      2  O   UNL     1      14.926   6.637  19.868  0.00  0.00    -0.376 OA
ATOM     17  C   UNL     1      16.178   6.288  19.298  0.00  0.00    +0.194 C 
ENDBRANCH   6   2
ENDBRANCH   8   3
BRANCH   8  11
ATOM     11  C   UNL     1      12.671  11.927  20.192  0.00  0.00    -0.033 A 
ATOM     12  C   UNL     1      12.431  13.291  20.030  0.00  0.00    +0.007 A 
ATOM     13  C   UNL     1      12.059  11.231  21.235  0.00  0.00    +0.007 A 
ATOM     14  C   UNL     1      10.967  13.263  21.951  0.00  0.00    +0.029 A 
ATOM     15  C   UNL     1      11.580  13.960  20.908  0.00  0.00    +0.023 A 
ATOM     16  C   UNL     1      11.207  11.899  22.113  0.00  0.00    +0.023 A 
BRANCH  14   4
ATOM      4  N   UNL     1      10.105  13.939  22.839  0.00  0.00    -0.336 N 
ATOM     18  C   UNL     1      10.130  13.641  24.256  0.00  0.00    +0.129 C 
ATOM     19  C   UNL     1       9.187  14.946  22.345  0.00  0.00    +0.129 C 
ENDBRANCH  14   4
ENDBRANCH   8  11
TORSDOF 4
ENDMDL
MODEL 5
REMARK VINA RESULT:      -5.2     15.683     17.133
REMARK  Name = 75536937
REMARK  7 active torsions:
REMARK  status: ('A' for Active; 'I' for Inactive)
REMARK    1  A    between atoms: O_2  and  C_6
REMARK    2  A    between atoms: O_2  and  C_17
REMARK    3  A    between atoms: N_3  and  C_8
REMARK    4  A    between atoms: N_4  and  C_14
REMARK    5  A    between atoms: N_4  and  C_18
REMARK    6  A    between atoms: N_4  and  C_19
REMARK    7  A    between atoms: C_8  and  C_11
REMARK                            x       y       z     vdW  Elec       q    Type
REMARK                         _______ _______ _______ _____ _____    ______ ____
ROOT
ATOM      8  C   UNL     1       9.962   5.112   3.901  0.00  0.00    +0.119 C 
ENDROOT
BRANCH   8   3
ATOM      1  O   UNL     1      10.964   7.457   7.650  0.00  0.00    -0.376 OA
ATOM      3  N   UNL     1      10.415   5.605   5.202  0.00  0.00    -0.293 NA
ATOM      5  C   UNL     1       9.948   4.715   6.270  0.00  0.00    +0.118 C 
ATOM      6  C   UNL     1       9.976   5.248   7.712  0.00  0.00    +0.157 C 
ATOM      7  C   UNL     1      10.062   7.014   5.393  0.00  0.00    +0.113 C 
ATOM      9  C   UNL     1      11.190   6.107   8.040  0.00  0.00    +0.192 C 
ATOM     10  C   UNL     1      11.118   7.702   6.259  0.00  0.00    +0.175 C 
BRANCH   6   2
ATOM      2  O   UNL     1       9.974   4.130   8.599  0.00  0.00    -0.376 OA
ATOM     17  C   UNL     1       9.383   4.462   9.846  0.00  0.00    +0.194 C 
ENDBRANCH   6   2
ENDBRANCH   8   3
BRANCH   8  11
ATOM     11  C   UNL     1      11.115   4.819   2.979  0.00  0.00    -0.033 A 
ATOM     12  C   UNL     1      11.336   3.518   2.530  0.00  0.00    +0.007 A 
ATOM     13  C   UNL     1      11.962   5.851   2.573  0.00  0.00    +0.007 A 
ATOM     14  C   UNL     1      13.252   4.278   1.270  0.00  0.00    +0.029 A 
ATOM     15  C   UNL     1      12.405   3.246   1.676  0.00  0.00    +0.023 A 
ATOM     16  C   UNL     1      13.030   5.579   1.719  0.00  0.00    +0.023 A 
BRANCH  14   4
ATOM      4  N   UNL     1      14.332   4.004   0.405  0.00  0.00    -0.336 N 
ATOM     18  C   UNL     1      14.136   3.983  -1.030  0.00  0.00    +0.129 C 
ATOM     19  C   UNL     1      15.654   3.746   0.942  0.00  0.00    +0.129 C 
ENDBRANCH  14   4
ENDBRANCH   8  11
TORSDOF 4
ENDMDL
MODEL 6
REMARK VINA RESULT:      -5.2     26.285     27.974
REMARK  Name = 75536937
REMARK  7 active torsions:
REMARK  status: ('A' for Active; 'I' for Inactive)
REMARK    1  A    between atoms: O_2  and  C_6
REMARK    2  A    between atoms: O_2  and  C_17
REMARK    3  A    between atoms: N_3  and  C_8
REMARK    4  A    between atoms: N_4  and  C_14
REMARK    5  A    between atoms: N_4  and  C_18
REMARK    6  A    between atoms: N_4  and  C_19
REMARK    7  A    between atoms: C_8  and  C_11
REMARK                            x       y       z     vdW  Elec       q    Type
REMARK                         _______ _______ _______ _____ _____    ______ ____
ROOT
ATOM      8  C   UNL     1     -10.646   9.211  19.572  0.00  0.00    +0.119 C 
ENDROOT
BRANCH   8   3
ATOM      1  O   UNL     1     -11.159  11.229  15.544  0.00  0.00    -0.376 OA
ATOM      3  N   UNL     1     -10.960   9.604  18.198  0.00  0.00    -0.293 NA
ATOM      5  C   UNL     1     -10.514   8.567  17.262  0.00  0.00    +0.118 C 
ATOM      6  C   UNL     1     -10.393   8.945  15.777  0.00  0.00    +0.157 C 
ATOM      7  C   UNL     1     -10.458  10.946  17.896  0.00  0.00    +0.113 C 
ATOM      9  C   UNL     1     -11.491   9.872  15.273  0.00  0.00    +0.192 C 
ATOM     10  C   UNL     1     -11.380  11.633  16.888  0.00  0.00    +0.175 C 
BRANCH   6   2
ATOM      2  O   UNL     1     -10.442   7.743  15.007  0.00  0.00    -0.376 OA
ATOM     17  C   UNL     1     -10.783   8.010  13.656  0.00  0.00    +0.194 C 
ENDBRANCH   6   2
ENDBRANCH   8   3
BRANCH   8  11
ATOM     11  C   UNL     1     -11.702   8.311  20.154  0.00  0.00    -0.033 A 
ATOM     12  C   UNL     1     -11.346   7.078  20.699  0.00  0.00    +0.007 A 
ATOM     13  C   UNL     1     -13.039   8.711  20.149  0.00  0.00    +0.007 A 
ATOM     14  C   UNL     1     -13.661   6.645  21.233  0.00  0.00    +0.029 A 
ATOM     15  C   UNL     1     -12.325   6.244  21.239  0.00  0.00    +0.023 A 
ATOM     16  C   UNL     1     -14.018   7.878  20.689  0.00  0.00    +0.023 A 
BRANCH  14   4
ATOM      4  N   UNL     1     -14.652   5.801  21.780  0.00  0.00    -0.336 N 
ATOM     18  C   UNL     1     -15.908   5.600  21.088  0.00  0.00    +0.129 C 
ATOM     19  C   UNL     1     -14.421   5.121  23.039  0.00  0.00    +0.129 C 
ENDBRANCH  14   4
ENDBRANCH   8  11
TORSDOF 4
ENDMDL
MODEL 7
REMARK VINA RESULT:      -5.1     28.752     30.798
REMARK  Name = 75536937
REMARK  7 active torsions:
REMARK  status: ('A' for Active; 'I' for Inactive)
REMARK    1  A    between atoms: O_2  and  C_6
REMARK    2  A    between atoms: O_2  and  C_17
REMARK    3  A    between atoms: N_3  and  C_8
REMARK    4  A    between atoms: N_4  and  C_14
REMARK    5  A    between atoms: N_4  and  C_18
REMARK    6  A    between atoms: N_4  and  C_19
REMARK    7  A    between atoms: C_8  and  C_11
REMARK                            x       y       z     vdW  Elec       q    Type
REMARK                         _______ _______ _______ _____ _____    ______ ____
ROOT
ATOM      8  C   UNL     1       2.678   2.562  -5.417  0.00  0.00    +0.119 C 
ENDROOT
BRANCH   8   3
ATOM      1  O   UNL     1       1.550   6.930  -4.965  0.00  0.00    -0.376 OA
ATOM      3  N   UNL     1       2.476   4.007  -5.529  0.00  0.00    -0.293 NA
ATOM      5  C   UNL     1       3.768   4.687  -5.673  0.00  0.00    +0.118 C 
ATOM      6  C   UNL     1       3.813   6.202  -5.417  0.00  0.00    +0.157 C 
ATOM      7  C   UNL     1       1.643   4.518  -4.439  0.00  0.00    +0.113 C 
ATOM      9  C   UNL     1       2.597   6.962  -5.928  0.00  0.00    +0.192 C 
ATOM     10  C   UNL     1       0.821   5.712  -4.927  0.00  0.00    +0.175 C 
BRANCH   6   2
ATOM      2  O   UNL     1       4.969   6.729  -6.069  0.00  0.00    -0.376 OA
ATOM     17  C   UNL     1       6.136   6.003  -5.715  0.00  0.00    +0.194 C 
ENDBRANCH   6   2
ENDBRANCH   8   3
BRANCH   8  11
ATOM     11  C   UNL     1       1.474   1.789  -5.885  0.00  0.00    -0.033 A 
ATOM     12  C   UNL     1       1.038   0.674  -5.169  0.00  0.00    +0.007 A 
ATOM     13  C   UNL     1       0.793   2.189  -7.035  0.00  0.00    +0.007 A 
ATOM     14  C   UNL     1      -0.758   0.359  -6.753  0.00  0.00    +0.029 A 
ATOM     15  C   UNL     1      -0.077  -0.042  -5.603  0.00  0.00    +0.023 A 
ATOM     16  C   UNL     1      -0.322   1.474  -7.469  0.00  0.00    +0.023 A 
BRANCH  14   4
ATOM      4  N   UNL     1      -1.887  -0.364  -7.192  0.00  0.00    -0.336 N 
ATOM     18  C   UNL     1      -2.155  -1.691  -6.675  0.00  0.00    +0.129 C 
ATOM     19  C   UNL     1      -2.797   0.214  -8.160  0.00  0.00    +0.129 C 
ENDBRANCH  14   4
ENDBRANCH   8  11
TORSDOF 4
ENDMDL
MODEL 8
REMARK VINA RESULT:      -5.1     26.055     28.291
REMARK  Name = 75536937
REMARK  7 active torsions:
REMARK  status: ('A' for Active; 'I' for Inactive)
REMARK    1  A    between atoms: O_2  and  C_6
REMARK    2  A    between atoms: O_2  and  C_17
REMARK    3  A    between atoms: N_3  and  C_8
REMARK    4  A    between atoms: N_4  and  C_14
REMARK    5  A    between atoms: N_4  and  C_18
REMARK    6  A    between atoms: N_4  and  C_19
REMARK    7  A    between atoms: C_8  and  C_11
REMARK                            x       y       z     vdW  Elec       q    Type
REMARK                         _______ _______ _______ _____ _____    ______ ____
ROOT
ATOM      8  C   UNL     1      -2.766 -10.675  16.246  0.00  0.00    +0.119 C 
ENDROOT
BRANCH   8   3
ATOM      1  O   UNL     1      -2.051 -11.409  11.829  0.00  0.00    -0.376 OA
ATOM      3  N   UNL     1      -2.726 -11.150  14.863  0.00  0.00    -0.293 NA
ATOM      5  C   UNL     1      -2.379 -12.575  14.827  0.00  0.00    +0.118 C 
ATOM      6  C   UNL     1      -1.907 -13.165  13.489  0.00  0.00    +0.157 C 
ATOM      7  C   UNL     1      -1.872 -10.300  14.030  0.00  0.00    +0.113 C 
ATOM      9  C   UNL     1      -2.643 -12.626  12.270  0.00  0.00    +0.192 C 
ATOM     10  C   UNL     1      -2.407 -10.268  12.598  0.00  0.00    +0.175 C 
BRANCH   6   2
ATOM      2  O   UNL     1      -2.102 -14.579  13.534  0.00  0.00    -0.376 OA
ATOM     17  C   UNL     1      -0.880 -15.274  13.341  0.00  0.00    +0.194 C 
ENDBRANCH   6   2
ENDBRANCH   8   3
BRANCH   8  11
ATOM     11  C   UNL     1      -4.176 -10.573  16.764  0.00  0.00    -0.033 A 
ATOM     12  C   UNL     1      -4.508 -11.128  17.999  0.00  0.00    +0.007 A 
ATOM     13  C   UNL     1      -5.151  -9.922  16.007  0.00  0.00    +0.007 A 
ATOM     14  C   UNL     1      -6.789 -10.383  17.721  0.00  0.00    +0.029 A 
ATOM     15  C   UNL     1      -5.815 -11.034  18.479  0.00  0.00    +0.023 A 
ATOM     16  C   UNL     1      -6.457  -9.828  16.486  0.00  0.00    +0.023 A 
BRANCH  14   4
ATOM      4  N   UNL     1      -8.111 -10.287  18.206  0.00  0.00    -0.336 N 
ATOM     18  C   UNL     1      -8.522 -11.043  19.371  0.00  0.00    +0.129 C 
ATOM     19  C   UNL     1      -9.071  -9.423  17.549  0.00  0.00    +0.129 C 
ENDBRANCH  14   4
ENDBRANCH   8  11
TORSDOF 4
ENDMDL
MODEL 9
REMARK VINA RESULT:      -5.1     15.189     16.668
REMARK  Name = 75536937
REMARK  7 active torsions:
REMARK  status: ('A' for Active; 'I' for Inactive)
REMARK    1  A    between atoms: O_2  and  C_6
REMARK    2  A    between atoms: O_2  and  C_17
REMARK    3  A    between atoms: N_3  and  C_8
REMARK    4  A    between atoms: N_4  and  C_14
REMARK    5  A    between atoms: N_4  and  C_18
REMARK    6  A    between atoms: N_4  and  C_19
REMARK    7  A    between atoms: C_8  and  C_11
REMARK                            x       y       z     vdW  Elec       q    Type
REMARK                         _______ _______ _______ _____ _____    ______ ____
ROOT
ATOM      8  C   UNL     1       9.925   4.626   4.628  0.00  0.00    +0.119 C 
ENDROOT
BRANCH   8   3
ATOM      1  O   UNL     1       8.184   7.811   7.346  0.00  0.00    -0.376 OA
ATOM      3  N   UNL     1       9.632   5.628   5.653  0.00  0.00    -0.293 NA
ATOM      5  C   UNL     1       9.850   5.062   6.989  0.00  0.00    +0.118 C 
ATOM      6  C   UNL     1       9.236   5.801   8.189  0.00  0.00    +0.157 C 
ATOM      7  C   UNL     1       8.307   6.221   5.458  0.00  0.00    +0.113 C 
ATOM      9  C   UNL     1       9.294   7.319   8.089  0.00  0.00    +0.192 C 
ATOM     10  C   UNL     1       8.311   7.673   5.937  0.00  0.00    +0.175 C 
BRANCH   6   2
ATOM      2  O   UNL     1       9.949   5.408   9.363  0.00  0.00    -0.376 OA
ATOM     17  C   UNL     1       9.145   4.599  10.207  0.00  0.00    +0.194 C 
ENDBRANCH   6   2
ENDBRANCH   8   3
BRANCH   8  11
ATOM     11  C   UNL     1      11.040   5.066   3.717  0.00  0.00    -0.033 A 
ATOM     12  C   UNL     1      11.671   6.291   3.927  0.00  0.00    +0.007 A 
ATOM     13  C   UNL     1      11.442   4.246   2.661  0.00  0.00    +0.007 A 
ATOM     14  C   UNL     1      13.106   5.879   2.028  0.00  0.00    +0.029 A 
ATOM     15  C   UNL     1      12.704   6.699   3.083  0.00  0.00    +0.023 A 
ATOM     16  C   UNL     1      12.475   4.653   1.818  0.00  0.00    +0.023 A 
BRANCH  14   4
ATOM      4  N   UNL     1      14.151   6.290   1.174  0.00  0.00    -0.336 N 
ATOM     18  C   UNL     1      15.007   7.399   1.544  0.00  0.00    +0.129 C 
ATOM     19  C   UNL     1      14.386   5.603  -0.080  0.00  0.00    +0.129 C 
ENDBRANCH  14   4
ENDBRANCH   8  11
TORSDOF 4
ENDMDL
MODEL 10
REMARK VINA RESULT:      -5.0      4.417      6.958
REMARK  Name = 75536937
REMARK  7 active torsions:
REMARK  status: ('A' for Active; 'I' for Inactive)
REMARK    1  A    between atoms: O_2  and  C_6
REMARK    2  A    between atoms: O_2  and  C_17
REMARK    3  A    between atoms: N_3  and  C_8
REMARK    4  A    between atoms: N_4  and  C_14
REMARK    5  A    between atoms: N_4  and  C_18
REMARK    6  A    between atoms: N_4  and  C_19
REMARK    7  A    between atoms: C_8  and  C_11
REMARK                            x       y       z     vdW  Elec       q    Type
REMARK                         _______ _______ _______ _____ _____    ______ ____
ROOT
ATOM      8  C   UNL     1      12.758  11.128  19.936  0.00  0.00    +0.119 C 
ENDROOT
BRANCH   8   3
ATOM      1  O   UNL     1      11.627   6.738  20.050  0.00  0.00    -0.376 OA
ATOM      3  N   UNL     1      12.676   9.669  19.861  0.00  0.00    -0.293 NA
ATOM      5  C   UNL     1      13.036   9.211  18.515  0.00  0.00    +0.118 C 
ATOM      6  C   UNL     1      12.644   7.779  18.116  0.00  0.00    +0.157 C 
ATOM      7  C   UNL     1      11.382   9.180  20.340  0.00  0.00    +0.113 C 
ATOM      9  C   UNL     1      12.791   6.754  19.232  0.00  0.00    +0.192 C 
ATOM     10  C   UNL     1      11.550   7.804  20.986  0.00  0.00    +0.175 C 
BRANCH   6   2
ATOM      2  O   UNL     1      13.482   7.376  17.032  0.00  0.00    -0.376 OA
ATOM     17  C   UNL     1      13.985   8.498  16.324  0.00  0.00    +0.194 C 
ENDBRANCH   6   2
ENDBRANCH   8   3
BRANCH   8  11
ATOM     11  C   UNL     1      12.538  11.632  21.337  0.00  0.00    -0.033 A 
ATOM     12  C   UNL     1      13.428  11.283  22.352  0.00  0.00    +0.007 A 
ATOM     13  C   UNL     1      11.443  12.448  21.621  0.00  0.00    +0.007 A 
ATOM     14  C   UNL     1      12.130  12.566  23.933  0.00  0.00    +0.029 A 
ATOM     15  C   UNL     1      13.225  11.749  23.651  0.00  0.00    +0.023 A 
ATOM     16  C   UNL     1      11.239  12.915  22.919  0.00  0.00    +0.023 A 
BRANCH  14   4
ATOM      4  N   UNL     1      11.924  13.039  25.247  0.00  0.00    -0.336 N 
ATOM     18  C   UNL     1      10.588  13.339  25.718  0.00  0.00    +0.129 C 
ATOM     19  C   UNL     1      13.048  13.224  26.143  0.00  0.00    +0.129 C 
ENDBRANCH  14   4
ENDBRANCH   8  11
TORSDOF 4
ENDMDL
