MODEL 1
REMARK VINA RESULT:      -8.3      0.000      0.000
REMARK  Name = 26744361
REMARK  8 active torsions:
REMARK  status: ('A' for Active; 'I' for Inactive)
REMARK    1  A    between atoms: S_1  and  C_24
REMARK    2  A    between atoms: S_1  and  C_28
REMARK    3  A    between atoms: O_2  and  C_14
REMARK    4  A    between atoms: N_8  and  C_16
REMARK    5  A    between atoms: N_11  and  C_29
REMARK    6  A    between atoms: C_12  and  C_17
REMARK    7  A    between atoms: C_16  and  C_18
REMARK    8  A    between atoms: C_21  and  C_25
REMARK                            x       y       z     vdW  Elec       q    Type
REMARK                         _______ _______ _______ _____ _____    ______ ____
ROOT
ATOM      8  N   UNL     1      12.558   8.579  18.736  0.00  0.00    -0.285 NA
ATOM     12  C   UNL     1      13.419   7.420  18.422  0.00  0.00    +0.149 C 
ATOM     13  C   UNL     1      13.932   7.687  16.994  0.00  0.00    +0.061 C 
ATOM     14  C   UNL     1      13.270   8.993  16.575  0.00  0.00    +0.130 C 
ATOM     15  C   UNL     1      12.041   9.068  17.460  0.00  0.00    +0.116 C 
ENDROOT
BRANCH  12  17
ATOM      3  O   UNL     1      14.228   6.587  20.572  0.00  0.00    -0.336 OA
ATOM      9  N   UNL     1      15.789   7.626  19.348  0.00  0.00    -0.190 NA
ATOM     10  N   UNL     1      15.406   6.543  21.327  0.00  0.00    -0.056 NA
ATOM     17  C   UNL     1      14.540   7.239  19.423  0.00  0.00    +0.245 A 
ATOM     21  C   UNL     1      16.281   7.176  20.539  0.00  0.00    +0.202 A 
BRANCH  21  25
ATOM     25  C   UNL     1      17.652   7.373  20.911  0.00  0.00    +0.025 A 
ATOM     26  C   UNL     1      18.620   6.445  20.526  0.00  0.00    +0.044 A 
ATOM     27  C   UNL     1      18.017   8.494  21.658  0.00  0.00    +0.012 A 
ATOM     29  C   UNL     1      19.954   6.639  20.887  0.00  0.00    +0.127 A 
ATOM     30  C   UNL     1      19.351   8.687  22.019  0.00  0.00    +0.003 A 
ATOM     31  C   UNL     1      20.319   7.759  21.634  0.00  0.00    +0.033 A 
BRANCH  29  11
ATOM      6  O   UNL     1      20.629   4.481  20.435  0.00  0.00    -0.126 OA
ATOM      7  O   UNL     1      22.096   6.101  20.223  0.00  0.00    -0.126 OA
ATOM     11  N   UNL     1      20.940   5.695  20.496  0.00  0.00    +0.056 N 
ENDBRANCH  29  11
ENDBRANCH  21  25
ENDBRANCH  12  17
BRANCH  14   2
ATOM      2  O   UNL     1      12.928   8.964  15.203  0.00  0.00    -0.390 OA
ATOM     32  H   UNL     1      13.130   9.840  14.833  0.00  0.00    +0.210 HD
ENDBRANCH  14   2
BRANCH   8  16
ATOM     16  C   UNL     1      11.491   8.263  19.676  0.00  0.00    +0.120 C 
BRANCH  16  18
ATOM     18  C   UNL     1      11.458   9.227  20.833  0.00  0.00    -0.033 A 
ATOM     19  C   UNL     1      10.865   8.851  22.037  0.00  0.00    +0.007 A 
ATOM     20  C   UNL     1      12.022  10.496  20.700  0.00  0.00    +0.007 A 
ATOM     22  C   UNL     1      10.834   9.744  23.109  0.00  0.00    +0.027 A 
ATOM     23  C   UNL     1      11.994  11.388  21.771  0.00  0.00    +0.027 A 
ATOM     24  C   UNL     1      11.399  11.012  22.976  0.00  0.00    +0.088 A 
BRANCH  24   1
ATOM      1  S   UNL     1      11.361  12.130  24.317  0.00  0.00    -0.006 S 
ATOM      4  O   UNL     1      10.006  12.645  24.463  0.00  0.00    -0.170 OA
ATOM      5  O   UNL     1      12.018  11.493  25.450  0.00  0.00    -0.170 OA
ATOM     28  C   UNL     1      12.377  13.490  23.788  0.00  0.00    +0.200 C 
ENDBRANCH  24   1
ENDBRANCH  16  18
ENDBRANCH   8  16
TORSDOF 7
ENDMDL
MODEL 2
REMARK VINA RESULT:      -7.7      2.128      2.442
REMARK  Name = 26744361
REMARK  8 active torsions:
REMARK  status: ('A' for Active; 'I' for Inactive)
REMARK    1  A    between atoms: S_1  and  C_24
REMARK    2  A    between atoms: S_1  and  C_28
REMARK    3  A    between atoms: O_2  and  C_14
REMARK    4  A    between atoms: N_8  and  C_16
REMARK    5  A    between atoms: N_11  and  C_29
REMARK    6  A    between atoms: C_12  and  C_17
REMARK    7  A    between atoms: C_16  and  C_18
REMARK    8  A    between atoms: C_21  and  C_25
REMARK                            x       y       z     vdW  Elec       q    Type
REMARK                         _______ _______ _______ _____ _____    ______ ____
ROOT
ATOM      8  N   UNL     1      12.664   8.600  18.735  0.00  0.00    -0.285 NA
ATOM     12  C   UNL     1      13.584   7.467  18.509  0.00  0.00    +0.149 C 
ATOM     13  C   UNL     1      14.120   7.674  17.079  0.00  0.00    +0.061 C 
ATOM     14  C   UNL     1      13.411   8.923  16.569  0.00  0.00    +0.130 C 
ATOM     15  C   UNL     1      12.157   8.991  17.421  0.00  0.00    +0.116 C 
ENDROOT
BRANCH  12  17
ATOM      3  O   UNL     1      14.575   6.420  20.481  0.00  0.00    -0.336 OA
ATOM      9  N   UNL     1      15.751   8.147  19.674  0.00  0.00    -0.190 NA
ATOM     10  N   UNL     1      15.693   6.553  21.314  0.00  0.00    -0.056 NA
ATOM     17  C   UNL     1      14.687   7.396  19.543  0.00  0.00    +0.245 A 
ATOM     21  C   UNL     1      16.338   7.592  20.774  0.00  0.00    +0.202 A 
BRANCH  21  25
ATOM     25  C   UNL     1      17.570   8.097  21.307  0.00  0.00    +0.025 A 
ATOM     26  C   UNL     1      17.693   9.452  21.614  0.00  0.00    +0.044 A 
ATOM     27  C   UNL     1      18.644   7.233  21.520  0.00  0.00    +0.012 A 
ATOM     29  C   UNL     1      18.891   9.943  22.135  0.00  0.00    +0.127 A 
ATOM     30  C   UNL     1      19.842   7.724  22.040  0.00  0.00    +0.003 A 
ATOM     31  C   UNL     1      19.965   9.079  22.347  0.00  0.00    +0.033 A 
BRANCH  29  11
ATOM      6  O   UNL     1      18.636  12.173  21.607  0.00  0.00    -0.126 OA
ATOM      7  O   UNL     1      19.508  11.653  23.554  0.00  0.00    -0.126 OA
ATOM     11  N   UNL     1      19.018  11.322  22.447  0.00  0.00    +0.056 N 
ENDBRANCH  29  11
ENDBRANCH  21  25
ENDBRANCH  12  17
BRANCH  14   2
ATOM      2  O   UNL     1      13.105   8.799  15.194  0.00  0.00    -0.390 OA
ATOM     32  H   UNL     1      12.645   9.612  14.923  0.00  0.00    +0.210 HD
ENDBRANCH  14   2
BRANCH   8  16
ATOM     16  C   UNL     1      11.589   8.290  19.667  0.00  0.00    +0.120 C 
BRANCH  16  18
ATOM     18  C   UNL     1      11.561   9.247  20.830  0.00  0.00    -0.033 A 
ATOM     19  C   UNL     1      10.744   8.984  21.929  0.00  0.00    +0.007 A 
ATOM     20  C   UNL     1      12.353  10.394  20.808  0.00  0.00    +0.007 A 
ATOM     22  C   UNL     1      10.718   9.869  23.007  0.00  0.00    +0.027 A 
ATOM     23  C   UNL     1      12.328  11.279  21.886  0.00  0.00    +0.027 A 
ATOM     24  C   UNL     1      11.510  11.017  22.985  0.00  0.00    +0.088 A 
BRANCH  24   1
ATOM      1  S   UNL     1      11.478  12.126  24.334  0.00  0.00    -0.006 S 
ATOM      4  O   UNL     1      10.098  12.518  24.589  0.00  0.00    -0.170 OA
ATOM      5  O   UNL     1      12.276  11.550  25.407  0.00  0.00    -0.170 OA
ATOM     28  C   UNL     1      12.324  13.572  23.738  0.00  0.00    +0.200 C 
ENDBRANCH  24   1
ENDBRANCH  16  18
ENDBRANCH   8  16
TORSDOF 7
ENDMDL
MODEL 3
REMARK VINA RESULT:      -7.1      4.152      7.054
REMARK  Name = 26744361
REMARK  8 active torsions:
REMARK  status: ('A' for Active; 'I' for Inactive)
REMARK    1  A    between atoms: S_1  and  C_24
REMARK    2  A    between atoms: S_1  and  C_28
REMARK    3  A    between atoms: O_2  and  C_14
REMARK    4  A    between atoms: N_8  and  C_16
REMARK    5  A    between atoms: N_11  and  C_29
REMARK    6  A    between atoms: C_12  and  C_17
REMARK    7  A    between atoms: C_16  and  C_18
REMARK    8  A    between atoms: C_21  and  C_25
REMARK                            x       y       z     vdW  Elec       q    Type
REMARK                         _______ _______ _______ _____ _____    ______ ____
ROOT
ATOM      8  N   UNL     1      18.769   7.061  21.235  0.00  0.00    -0.285 NA
ATOM     12  C   UNL     1      20.231   7.141  21.040  0.00  0.00    +0.149 C 
ATOM     13  C   UNL     1      20.627   8.520  21.601  0.00  0.00    +0.061 C 
ATOM     14  C   UNL     1      19.316   9.157  22.045  0.00  0.00    +0.130 C 
ATOM     15  C   UNL     1      18.272   8.435  21.215  0.00  0.00    +0.116 C 
ENDROOT
BRANCH  12  17
ATOM      3  O   UNL     1      20.892   5.941  23.063  0.00  0.00    -0.336 OA
ATOM      9  N   UNL     1      21.691   5.051  21.170  0.00  0.00    -0.190 NA
ATOM     10  N   UNL     1      21.645   4.823  23.446  0.00  0.00    -0.056 NA
ATOM     17  C   UNL     1      20.971   6.002  21.709  0.00  0.00    +0.245 A 
ATOM     21  C   UNL     1      22.083   4.352  22.274  0.00  0.00    +0.202 A 
BRANCH  21  25
ATOM     25  C   UNL     1      22.912   3.186  22.174  0.00  0.00    +0.025 A 
ATOM     26  C   UNL     1      23.141   2.393  23.298  0.00  0.00    +0.044 A 
ATOM     27  C   UNL     1      23.489   2.844  20.950  0.00  0.00    +0.012 A 
ATOM     29  C   UNL     1      23.946   1.258  23.199  0.00  0.00    +0.127 A 
ATOM     30  C   UNL     1      24.294   1.709  20.852  0.00  0.00    +0.003 A 
ATOM     31  C   UNL     1      24.523   0.917  21.976  0.00  0.00    +0.033 A 
BRANCH  29  11
ATOM      6  O   UNL     1      23.412   0.558  25.331  0.00  0.00    -0.126 OA
ATOM      7  O   UNL     1      25.148  -0.348  24.338  0.00  0.00    -0.126 OA
ATOM     11  N   UNL     1      24.179   0.451  24.343  0.00  0.00    +0.056 N 
ENDBRANCH  29  11
ENDBRANCH  21  25
ENDBRANCH  12  17
BRANCH  14   2
ATOM      2  O   UNL     1      19.322  10.547  21.787  0.00  0.00    -0.390 OA
ATOM     32  H   UNL     1      19.784  10.686  20.942  0.00  0.00    +0.210 HD
ENDBRANCH  14   2
BRANCH   8  16
ATOM     16  C   UNL     1      18.103   6.222  20.247  0.00  0.00    +0.120 C 
BRANCH  16  18
ATOM     18  C   UNL     1      16.626   6.507  20.172  0.00  0.00    -0.033 A 
ATOM     19  C   UNL     1      15.871   6.582  21.342  0.00  0.00    +0.007 A 
ATOM     20  C   UNL     1      16.014   6.698  18.934  0.00  0.00    +0.007 A 
ATOM     22  C   UNL     1      14.503   6.847  21.274  0.00  0.00    +0.027 A 
ATOM     23  C   UNL     1      14.647   6.964  18.865  0.00  0.00    +0.027 A 
ATOM     24  C   UNL     1      13.891   7.038  20.035  0.00  0.00    +0.088 A 
BRANCH  24   1
ATOM      1  S   UNL     1      12.179   7.369  19.949  0.00  0.00    -0.006 S 
ATOM      4  O   UNL     1      11.820   7.639  18.563  0.00  0.00    -0.170 OA
ATOM      5  O   UNL     1      11.482   6.322  20.684  0.00  0.00    -0.170 OA
ATOM     28  C   UNL     1      11.977   8.893  20.842  0.00  0.00    +0.200 C 
ENDBRANCH  24   1
ENDBRANCH  16  18
ENDBRANCH   8  16
TORSDOF 7
ENDMDL
MODEL 4
REMARK VINA RESULT:      -7.0     25.954     27.927
REMARK  Name = 26744361
REMARK  8 active torsions:
REMARK  status: ('A' for Active; 'I' for Inactive)
REMARK    1  A    between atoms: S_1  and  C_24
REMARK    2  A    between atoms: S_1  and  C_28
REMARK    3  A    between atoms: O_2  and  C_14
REMARK    4  A    between atoms: N_8  and  C_16
REMARK    5  A    between atoms: N_11  and  C_29
REMARK    6  A    between atoms: C_12  and  C_17
REMARK    7  A    between atoms: C_16  and  C_18
REMARK    8  A    between atoms: C_21  and  C_25
REMARK                            x       y       z     vdW  Elec       q    Type
REMARK                         _______ _______ _______ _____ _____    ______ ____
ROOT
ATOM      8  N   UNL     1     -11.112   9.674  17.533  0.00  0.00    -0.285 NA
ATOM     12  C   UNL     1     -10.492  10.636  18.466  0.00  0.00    +0.149 C 
ATOM     13  C   UNL     1     -10.182  11.876  17.605  0.00  0.00    +0.061 C 
ATOM     14  C   UNL     1     -10.622  11.497  16.196  0.00  0.00    +0.130 C 
ATOM     15  C   UNL     1     -10.579   9.981  16.207  0.00  0.00    +0.116 C 
ENDROOT
BRANCH  12  17
ATOM      3  O   UNL     1     -12.242  11.991  19.501  0.00  0.00    -0.336 OA
ATOM      9  N   UNL     1     -11.440  10.370  20.821  0.00  0.00    -0.190 NA
ATOM     10  N   UNL     1     -12.943  12.091  20.709  0.00  0.00    -0.056 NA
ATOM     17  C   UNL     1     -11.379  10.954  19.651  0.00  0.00    +0.245 A 
ATOM     21  C   UNL     1     -12.414  11.102  21.436  0.00  0.00    +0.202 A 
BRANCH  21  25
ATOM     25  C   UNL     1     -12.837  10.819  22.777  0.00  0.00    +0.025 A 
ATOM     26  C   UNL     1     -12.005  11.133  23.852  0.00  0.00    +0.044 A 
ATOM     27  C   UNL     1     -14.081  10.230  23.006  0.00  0.00    +0.012 A 
ATOM     29  C   UNL     1     -12.418  10.859  25.156  0.00  0.00    +0.127 A 
ATOM     30  C   UNL     1     -14.493   9.955  24.310  0.00  0.00    +0.003 A 
ATOM     31  C   UNL     1     -13.661  10.270  25.385  0.00  0.00    +0.033 A 
BRANCH  29  11
ATOM      6  O   UNL     1     -11.897  12.119  27.016  0.00  0.00    -0.126 OA
ATOM      7  O   UNL     1     -10.524  10.511  26.424  0.00  0.00    -0.126 OA
ATOM     11  N   UNL     1     -11.573  11.178  26.251  0.00  0.00    +0.056 N 
ENDBRANCH  29  11
ENDBRANCH  21  25
ENDBRANCH  12  17
BRANCH  14   2
ATOM      2  O   UNL     1      -9.741  12.040  15.233  0.00  0.00    -0.390 OA
ATOM     32  H   UNL     1      -9.354  12.848  15.613  0.00  0.00    +0.210 HD
ENDBRANCH  14   2
BRANCH   8  16
ATOM     16  C   UNL     1     -10.885   8.284  17.907  0.00  0.00    +0.120 C 
BRANCH  16  18
ATOM     18  C   UNL     1     -11.924   7.788  18.877  0.00  0.00    -0.033 A 
ATOM     19  C   UNL     1     -13.274   8.052  18.649  0.00  0.00    +0.007 A 
ATOM     20  C   UNL     1     -11.536   7.062  20.004  0.00  0.00    +0.007 A 
ATOM     22  C   UNL     1     -14.236   7.593  19.548  0.00  0.00    +0.027 A 
ATOM     23  C   UNL     1     -12.498   6.601  20.902  0.00  0.00    +0.027 A 
ATOM     24  C   UNL     1     -13.848   6.867  20.675  0.00  0.00    +0.088 A 
BRANCH  24   1
ATOM      1  S   UNL     1     -15.053   6.292  21.800  0.00  0.00    -0.006 S 
ATOM      4  O   UNL     1     -15.492   4.966  21.384  0.00  0.00    -0.170 OA
ATOM      5  O   UNL     1     -14.538   6.492  23.148  0.00  0.00    -0.170 OA
ATOM     28  C   UNL     1     -16.433   7.389  21.572  0.00  0.00    +0.200 C 
ENDBRANCH  24   1
ENDBRANCH  16  18
ENDBRANCH   8  16
TORSDOF 7
ENDMDL
MODEL 5
REMARK VINA RESULT:      -6.9     14.173     18.448
REMARK  Name = 26744361
REMARK  8 active torsions:
REMARK  status: ('A' for Active; 'I' for Inactive)
REMARK    1  A    between atoms: S_1  and  C_24
REMARK    2  A    between atoms: S_1  and  C_28
REMARK    3  A    between atoms: O_2  and  C_14
REMARK    4  A    between atoms: N_8  and  C_16
REMARK    5  A    between atoms: N_11  and  C_29
REMARK    6  A    between atoms: C_12  and  C_17
REMARK    7  A    between atoms: C_16  and  C_18
REMARK    8  A    between atoms: C_21  and  C_25
REMARK                            x       y       z     vdW  Elec       q    Type
REMARK                         _______ _______ _______ _____ _____    ______ ____
ROOT
ATOM      8  N   UNL     1       7.731   9.575   2.663  0.00  0.00    -0.285 NA
ATOM     12  C   UNL     1       7.582  10.187   3.999  0.00  0.00    +0.149 C 
ATOM     13  C   UNL     1       6.068  10.425   4.155  0.00  0.00    +0.061 C 
ATOM     14  C   UNL     1       5.457   9.958   2.840  0.00  0.00    +0.130 C 
ATOM     15  C   UNL     1       6.610  10.056   1.859  0.00  0.00    +0.116 C 
ENDROOT
BRANCH  12  17
ATOM      3  O   UNL     1       8.632   9.976   6.194  0.00  0.00    -0.336 OA
ATOM      9  N   UNL     1       8.265   8.021   5.165  0.00  0.00    -0.190 NA
ATOM     10  N   UNL     1       9.104   8.984   7.064  0.00  0.00    -0.056 NA
ATOM     17  C   UNL     1       8.155   9.325   5.103  0.00  0.00    +0.245 A 
ATOM     21  C   UNL     1       8.852   7.860   6.386  0.00  0.00    +0.202 A 
BRANCH  21  25
ATOM     25  C   UNL     1       9.174   6.561   6.903  0.00  0.00    +0.025 A 
ATOM     26  C   UNL     1       9.125   6.324   8.276  0.00  0.00    +0.044 A 
ATOM     27  C   UNL     1       9.535   5.534   6.030  0.00  0.00    +0.012 A 
ATOM     29  C   UNL     1       9.436   5.059   8.777  0.00  0.00    +0.127 A 
ATOM     30  C   UNL     1       9.847   4.270   6.531  0.00  0.00    +0.003 A 
ATOM     31  C   UNL     1       9.798   4.033   7.905  0.00  0.00    +0.033 A 
BRANCH  29  11
ATOM      6  O   UNL     1       8.269   4.676  10.729  0.00  0.00    -0.126 OA
ATOM      7  O   UNL     1      10.461   4.752  10.820  0.00  0.00    -0.126 OA
ATOM     11  N   UNL     1       9.387   4.817  10.175  0.00  0.00    +0.056 N 
ENDBRANCH  29  11
ENDBRANCH  21  25
ENDBRANCH  12  17
BRANCH  14   2
ATOM      2  O   UNL     1       4.377  10.789   2.465  0.00  0.00    -0.390 OA
ATOM     32  H   UNL     1       4.665  11.711   2.577  0.00  0.00    +0.210 HD
ENDBRANCH  14   2
BRANCH   8  16
ATOM     16  C   UNL     1       9.016   9.863   2.040  0.00  0.00    +0.120 C 
BRANCH  16  18
ATOM     18  C   UNL     1       9.851   8.621   1.875  0.00  0.00    -0.033 A 
ATOM     19  C   UNL     1      11.183   8.724   1.474  0.00  0.00    +0.007 A 
ATOM     20  C   UNL     1       9.293   7.367   2.124  0.00  0.00    +0.007 A 
ATOM     22  C   UNL     1      11.957   7.574   1.321  0.00  0.00    +0.027 A 
ATOM     23  C   UNL     1      10.067   6.216   1.972  0.00  0.00    +0.027 A 
ATOM     24  C   UNL     1      11.399   6.320   1.570  0.00  0.00    +0.088 A 
BRANCH  24   1
ATOM      1  S   UNL     1      12.367   4.879   1.378  0.00  0.00    -0.006 S 
ATOM      4  O   UNL     1      13.767   5.264   1.263  0.00  0.00    -0.170 OA
ATOM      5  O   UNL     1      11.961   3.927   2.403  0.00  0.00    -0.170 OA
ATOM     28  C   UNL     1      11.879   4.225  -0.202  0.00  0.00    +0.200 C 
ENDBRANCH  24   1
ENDBRANCH  16  18
ENDBRANCH   8  16
TORSDOF 7
ENDMDL
MODEL 6
REMARK VINA RESULT:      -6.8     27.345     29.597
REMARK  Name = 26744361
REMARK  8 active torsions:
REMARK  status: ('A' for Active; 'I' for Inactive)
REMARK    1  A    between atoms: S_1  and  C_24
REMARK    2  A    between atoms: S_1  and  C_28
REMARK    3  A    between atoms: O_2  and  C_14
REMARK    4  A    between atoms: N_8  and  C_16
REMARK    5  A    between atoms: N_11  and  C_29
REMARK    6  A    between atoms: C_12  and  C_17
REMARK    7  A    between atoms: C_16  and  C_18
REMARK    8  A    between atoms: C_21  and  C_25
REMARK                            x       y       z     vdW  Elec       q    Type
REMARK                         _______ _______ _______ _____ _____    ______ ____
ROOT
ATOM      8  N   UNL     1      -7.316 -10.825  17.483  0.00  0.00    -0.285 NA
ATOM     12  C   UNL     1      -5.959 -11.250  17.882  0.00  0.00    +0.149 C 
ATOM     13  C   UNL     1      -6.119 -12.718  18.322  0.00  0.00    +0.061 C 
ATOM     14  C   UNL     1      -7.607 -13.012  18.177  0.00  0.00    +0.130 C 
ATOM     15  C   UNL     1      -8.250 -11.640  18.256  0.00  0.00    +0.116 C 
ENDROOT
BRANCH  12  17
ATOM      3  O   UNL     1      -3.637 -11.187  17.125  0.00  0.00    -0.336 OA
ATOM      9  N   UNL     1      -5.138 -10.838  15.500  0.00  0.00    -0.190 NA
ATOM     10  N   UNL     1      -2.900 -10.994  15.950  0.00  0.00    -0.056 NA
ATOM     17  C   UNL     1      -4.944 -11.080  16.773  0.00  0.00    +0.245 A 
ATOM     21  C   UNL     1      -3.855 -10.795  15.037  0.00  0.00    +0.202 A 
BRANCH  21  25
ATOM     25  C   UNL     1      -3.562 -10.551  13.654  0.00  0.00    +0.025 A 
ATOM     26  C   UNL     1      -4.598 -10.312  12.752  0.00  0.00    +0.044 A 
ATOM     27  C   UNL     1      -2.238 -10.551  13.212  0.00  0.00    +0.012 A 
ATOM     29  C   UNL     1      -4.312 -10.073  11.407  0.00  0.00    +0.127 A 
ATOM     30  C   UNL     1      -1.952 -10.313  11.867  0.00  0.00    +0.003 A 
ATOM     31  C   UNL     1      -2.989 -10.075  10.966  0.00  0.00    +0.033 A 
BRANCH  29  11
ATOM      6  O   UNL     1      -5.415 -10.502   9.428  0.00  0.00    -0.126 OA
ATOM      7  O   UNL     1      -6.221  -8.954  10.760  0.00  0.00    -0.126 OA
ATOM     11  N   UNL     1      -5.366  -9.831  10.488  0.00  0.00    +0.056 N 
ENDBRANCH  29  11
ENDBRANCH  21  25
ENDBRANCH  12  17
BRANCH  14   2
ATOM      2  O   UNL     1      -8.054 -13.862  19.215  0.00  0.00    -0.390 OA
ATOM     32  H   UNL     1      -8.922 -14.213  18.951  0.00  0.00    +0.210 HD
ENDBRANCH  14   2
BRANCH   8  16
ATOM     16  C   UNL     1      -7.549  -9.399  17.668  0.00  0.00    +0.120 C 
BRANCH  16  18
ATOM     18  C   UNL     1      -8.705  -8.907  16.838  0.00  0.00    -0.033 A 
ATOM     19  C   UNL     1      -8.835  -9.317  15.512  0.00  0.00    +0.007 A 
ATOM     20  C   UNL     1      -9.646  -8.042  17.396  0.00  0.00    +0.007 A 
ATOM     22  C   UNL     1      -9.906  -8.862  14.743  0.00  0.00    +0.027 A 
ATOM     23  C   UNL     1     -10.718  -7.587  16.628  0.00  0.00    +0.027 A 
ATOM     24  C   UNL     1     -10.847  -7.997  15.301  0.00  0.00    +0.088 A 
BRANCH  24   1
ATOM      1  S   UNL     1     -12.188  -7.426  14.339  0.00  0.00    -0.006 S 
ATOM      4  O   UNL     1     -11.994  -7.853  12.959  0.00  0.00    -0.170 OA
ATOM      5  O   UNL     1     -13.419  -7.772  15.036  0.00  0.00    -0.170 OA
ATOM     28  C   UNL     1     -12.026  -5.656  14.360  0.00  0.00    +0.200 C 
ENDBRANCH  24   1
ENDBRANCH  16  18
ENDBRANCH   8  16
TORSDOF 7
ENDMDL
MODEL 7
REMARK VINA RESULT:      -6.8     27.489     29.376
REMARK  Name = 26744361
REMARK  8 active torsions:
REMARK  status: ('A' for Active; 'I' for Inactive)
REMARK    1  A    between atoms: S_1  and  C_24
REMARK    2  A    between atoms: S_1  and  C_28
REMARK    3  A    between atoms: O_2  and  C_14
REMARK    4  A    between atoms: N_8  and  C_16
REMARK    5  A    between atoms: N_11  and  C_29
REMARK    6  A    between atoms: C_12  and  C_17
REMARK    7  A    between atoms: C_16  and  C_18
REMARK    8  A    between atoms: C_21  and  C_25
REMARK                            x       y       z     vdW  Elec       q    Type
REMARK                         _______ _______ _______ _____ _____    ______ ____
ROOT
ATOM      8  N   UNL     1      -5.117  -9.575   9.221  0.00  0.00    -0.285 NA
ATOM     12  C   UNL     1      -6.003  -8.607   9.899  0.00  0.00    +0.149 C 
ATOM     13  C   UNL     1      -7.154  -8.363   8.904  0.00  0.00    +0.061 C 
ATOM     14  C   UNL     1      -6.802  -9.202   7.681  0.00  0.00    +0.130 C 
ATOM     15  C   UNL     1      -5.298  -9.368   7.786  0.00  0.00    +0.116 C 
ENDROOT
BRANCH  12  17
ATOM      3  O   UNL     1      -7.769  -9.549  11.299  0.00  0.00    -0.336 OA
ATOM      9  N   UNL     1      -5.848  -9.167  12.385  0.00  0.00    -0.190 NA
ATOM     10  N   UNL     1      -7.985  -9.949  12.624  0.00  0.00    -0.056 NA
ATOM     17  C   UNL     1      -6.488  -9.103  11.244  0.00  0.00    +0.245 A 
ATOM     21  C   UNL     1      -6.807  -9.693  13.201  0.00  0.00    +0.202 A 
BRANCH  21  25
ATOM     25  C   UNL     1      -6.555  -9.951  14.590  0.00  0.00    +0.025 A 
ATOM     26  C   UNL     1      -5.275 -10.309  15.012  0.00  0.00    +0.044 A 
ATOM     27  C   UNL     1      -7.592  -9.844  15.517  0.00  0.00    +0.012 A 
ATOM     29  C   UNL     1      -5.031 -10.558  16.363  0.00  0.00    +0.127 A 
ATOM     30  C   UNL     1      -7.348 -10.094  16.868  0.00  0.00    +0.003 A 
ATOM     31  C   UNL     1      -6.067 -10.452  17.290  0.00  0.00    +0.033 A 
BRANCH  29  11
ATOM      6  O   UNL     1      -2.753 -10.701  16.036  0.00  0.00    -0.126 OA
ATOM      7  O   UNL     1      -3.587 -11.458  17.920  0.00  0.00    -0.126 OA
ATOM     11  N   UNL     1      -3.728 -10.923  16.794  0.00  0.00    +0.056 N 
ENDBRANCH  29  11
ENDBRANCH  21  25
ENDBRANCH  12  17
BRANCH  14   2
ATOM      2  O   UNL     1      -7.175  -8.535   6.491  0.00  0.00    -0.390 OA
ATOM     32  H   UNL     1      -7.345  -7.604   6.719  0.00  0.00    +0.210 HD
ENDBRANCH  14   2
BRANCH   8  16
ATOM     16  C   UNL     1      -3.721  -9.453   9.621  0.00  0.00    +0.120 C 
BRANCH  16  18
ATOM     18  C   UNL     1      -3.311 -10.550  10.568  0.00  0.00    -0.033 A 
ATOM     19  C   UNL     1      -2.447 -10.270  11.625  0.00  0.00    +0.007 A 
ATOM     20  C   UNL     1      -3.797 -11.845  10.388  0.00  0.00    +0.007 A 
ATOM     22  C   UNL     1      -2.067 -11.286  12.503  0.00  0.00    +0.027 A 
ATOM     23  C   UNL     1      -3.419 -12.861  11.266  0.00  0.00    +0.027 A 
ATOM     24  C   UNL     1      -2.553 -12.581  12.323  0.00  0.00    +0.088 A 
BRANCH  24   1
ATOM      1  S   UNL     1      -2.077 -13.853  13.421  0.00  0.00    -0.006 S 
ATOM      4  O   UNL     1      -0.632 -13.804  13.601  0.00  0.00    -0.170 OA
ATOM      5  O   UNL     1      -2.953 -13.792  14.583  0.00  0.00    -0.170 OA
ATOM     28  C   UNL     1      -2.438 -15.355  12.541  0.00  0.00    +0.200 C 
ENDBRANCH  24   1
ENDBRANCH  16  18
ENDBRANCH   8  16
TORSDOF 7
ENDMDL
MODEL 8
REMARK VINA RESULT:      -6.6     27.234     30.802
REMARK  Name = 26744361
REMARK  8 active torsions:
REMARK  status: ('A' for Active; 'I' for Inactive)
REMARK    1  A    between atoms: S_1  and  C_24
REMARK    2  A    between atoms: S_1  and  C_28
REMARK    3  A    between atoms: O_2  and  C_14
REMARK    4  A    between atoms: N_8  and  C_16
REMARK    5  A    between atoms: N_11  and  C_29
REMARK    6  A    between atoms: C_12  and  C_17
REMARK    7  A    between atoms: C_16  and  C_18
REMARK    8  A    between atoms: C_21  and  C_25
REMARK                            x       y       z     vdW  Elec       q    Type
REMARK                         _______ _______ _______ _____ _____    ______ ____
ROOT
ATOM      8  N   UNL     1     -15.611   5.670  22.213  0.00  0.00    -0.285 NA
ATOM     12  C   UNL     1     -16.794   5.392  23.052  0.00  0.00    +0.149 C 
ATOM     13  C   UNL     1     -17.861   4.874  22.068  0.00  0.00    +0.061 C 
ATOM     14  C   UNL     1     -17.198   4.939  20.698  0.00  0.00    +0.130 C 
ATOM     15  C   UNL     1     -16.114   5.985  20.878  0.00  0.00    +0.116 C 
ENDROOT
BRANCH  12  17
ATOM      3  O   UNL     1     -16.130   3.161  23.793  0.00  0.00    -0.336 OA
ATOM      9  N   UNL     1     -16.555   4.591  25.464  0.00  0.00    -0.190 NA
ATOM     10  N   UNL     1     -15.917   2.448  24.979  0.00  0.00    -0.056 NA
ATOM     17  C   UNL     1     -16.501   4.412  24.167  0.00  0.00    +0.245 A 
ATOM     21  C   UNL     1     -16.188   3.358  25.920  0.00  0.00    +0.202 A 
BRANCH  21  25
ATOM     25  C   UNL     1     -16.100   3.068  27.322  0.00  0.00    +0.025 A 
ATOM     26  C   UNL     1     -15.793   1.776  27.749  0.00  0.00    +0.044 A 
ATOM     27  C   UNL     1     -16.319   4.079  28.257  0.00  0.00    +0.012 A 
ATOM     29  C   UNL     1     -15.705   1.495  29.113  0.00  0.00    +0.127 A 
ATOM     30  C   UNL     1     -16.232   3.798  29.621  0.00  0.00    +0.003 A 
ATOM     31  C   UNL     1     -15.926   2.506  30.048  0.00  0.00    +0.033 A 
BRANCH  29  11
ATOM      6  O   UNL     1     -16.153  -0.381  30.376  0.00  0.00    -0.126 OA
ATOM      7  O   UNL     1     -14.369  -0.384  29.097  0.00  0.00    -0.126 OA
ATOM     11  N   UNL     1     -15.394   0.181  29.549  0.00  0.00    +0.056 N 
ENDBRANCH  29  11
ENDBRANCH  21  25
ENDBRANCH  12  17
BRANCH  14   2
ATOM      2  O   UNL     1     -18.133   5.318  19.707  0.00  0.00    -0.390 OA
ATOM     32  H   UNL     1     -18.721   4.559  19.555  0.00  0.00    +0.210 HD
ENDBRANCH  14   2
BRANCH   8  16
ATOM     16  C   UNL     1     -14.766   6.731  22.745  0.00  0.00    +0.120 C 
BRANCH  16  18
ATOM     18  C   UNL     1     -13.809   7.260  21.709  0.00  0.00    -0.033 A 
ATOM     19  C   UNL     1     -12.765   6.458  21.251  0.00  0.00    +0.007 A 
ATOM     20  C   UNL     1     -13.969   8.551  21.206  0.00  0.00    +0.007 A 
ATOM     22  C   UNL     1     -11.878   6.947  20.292  0.00  0.00    +0.027 A 
ATOM     23  C   UNL     1     -13.084   9.040  20.246  0.00  0.00    +0.027 A 
ATOM     24  C   UNL     1     -12.038   8.238  19.789  0.00  0.00    +0.088 A 
BRANCH  24   1
ATOM      1  S   UNL     1     -10.929   8.851  18.587  0.00  0.00    -0.006 S 
ATOM      4  O   UNL     1      -9.843   9.551  19.262  0.00  0.00    -0.170 OA
ATOM      5  O   UNL     1     -10.626   7.767  17.663  0.00  0.00    -0.170 OA
ATOM     28  C   UNL     1     -11.866  10.078  17.705  0.00  0.00    +0.200 C 
ENDBRANCH  24   1
ENDBRANCH  16  18
ENDBRANCH   8  16
TORSDOF 7
ENDMDL
MODEL 9
REMARK VINA RESULT:      -6.6     26.978     30.600
REMARK  Name = 26744361
REMARK  8 active torsions:
REMARK  status: ('A' for Active; 'I' for Inactive)
REMARK    1  A    between atoms: S_1  and  C_24
REMARK    2  A    between atoms: S_1  and  C_28
REMARK    3  A    between atoms: O_2  and  C_14
REMARK    4  A    between atoms: N_8  and  C_16
REMARK    5  A    between atoms: N_11  and  C_29
REMARK    6  A    between atoms: C_12  and  C_17
REMARK    7  A    between atoms: C_16  and  C_18
REMARK    8  A    between atoms: C_21  and  C_25
REMARK                            x       y       z     vdW  Elec       q    Type
REMARK                         _______ _______ _______ _____ _____    ______ ____
ROOT
ATOM      8  N   UNL     1     -14.840   4.999  21.728  0.00  0.00    -0.285 NA
ATOM     12  C   UNL     1     -15.885   5.294  22.729  0.00  0.00    +0.149 C 
ATOM     13  C   UNL     1     -17.161   5.548  21.904  0.00  0.00    +0.061 C 
ATOM     14  C   UNL     1     -16.723   5.418  20.451  0.00  0.00    +0.130 C 
ATOM     15  C   UNL     1     -15.232   5.694  20.504  0.00  0.00    +0.116 C 
ENDROOT
BRANCH  12  17
ATOM      3  O   UNL     1     -16.217   2.928  23.241  0.00  0.00    -0.336 OA
ATOM      9  N   UNL     1     -16.070   4.242  25.049  0.00  0.00    -0.190 NA
ATOM     10  N   UNL     1     -16.352   2.082  24.350  0.00  0.00    -0.056 NA
ATOM     17  C   UNL     1     -16.054   4.180  23.741  0.00  0.00    +0.245 A 
ATOM     21  C   UNL     1     -16.255   2.931  25.378  0.00  0.00    +0.202 A 
BRANCH  21  25
ATOM     25  C   UNL     1     -16.336   2.501  26.744  0.00  0.00    +0.025 A 
ATOM     26  C   UNL     1     -15.668   3.212  27.740  0.00  0.00    +0.044 A 
ATOM     27  C   UNL     1     -17.085   1.371  27.075  0.00  0.00    +0.012 A 
ATOM     29  C   UNL     1     -15.749   2.794  29.069  0.00  0.00    +0.127 A 
ATOM     30  C   UNL     1     -17.166   0.953  28.403  0.00  0.00    +0.003 A 
ATOM     31  C   UNL     1     -16.497   1.664  29.400  0.00  0.00    +0.033 A 
BRANCH  29  11
ATOM      6  O   UNL     1     -15.487   4.656  30.403  0.00  0.00    -0.126 OA
ATOM      7  O   UNL     1     -14.068   2.996  30.634  0.00  0.00    -0.126 OA
ATOM     11  N   UNL     1     -15.069   3.516  30.084  0.00  0.00    +0.056 N 
ENDBRANCH  29  11
ENDBRANCH  21  25
ENDBRANCH  12  17
BRANCH  14   2
ATOM      2  O   UNL     1     -17.402   6.354  19.637  0.00  0.00    -0.390 OA
ATOM     32  H   UNL     1     -18.338   6.346  19.901  0.00  0.00    +0.210 HD
ENDBRANCH  14   2
BRANCH   8  16
ATOM     16  C   UNL     1     -13.502   5.372  22.166  0.00  0.00    +0.120 C 
BRANCH  16  18
ATOM     18  C   UNL     1     -13.018   6.626  21.487  0.00  0.00    -0.033 A 
ATOM     19  C   UNL     1     -13.616   7.852  21.779  0.00  0.00    +0.007 A 
ATOM     20  C   UNL     1     -11.972   6.562  20.567  0.00  0.00    +0.007 A 
ATOM     22  C   UNL     1     -13.168   9.013  21.150  0.00  0.00    +0.027 A 
ATOM     23  C   UNL     1     -11.523   7.723  19.939  0.00  0.00    +0.027 A 
ATOM     24  C   UNL     1     -12.122   8.949  20.230  0.00  0.00    +0.088 A 
BRANCH  24   1
ATOM      1  S   UNL     1     -11.561  10.403  19.442  0.00  0.00    -0.006 S 
ATOM      4  O   UNL     1     -11.964  11.556  20.237  0.00  0.00    -0.170 OA
ATOM      5  O   UNL     1     -10.158  10.215  19.101  0.00  0.00    -0.170 OA
ATOM     28  C   UNL     1     -12.488  10.471  17.926  0.00  0.00    +0.200 C 
ENDBRANCH  24   1
ENDBRANCH  16  18
ENDBRANCH   8  16
TORSDOF 7
ENDMDL
MODEL 10
REMARK VINA RESULT:      -6.6     26.221     28.500
REMARK  Name = 26744361
REMARK  8 active torsions:
REMARK  status: ('A' for Active; 'I' for Inactive)
REMARK    1  A    between atoms: S_1  and  C_24
REMARK    2  A    between atoms: S_1  and  C_28
REMARK    3  A    between atoms: O_2  and  C_14
REMARK    4  A    between atoms: N_8  and  C_16
REMARK    5  A    between atoms: N_11  and  C_29
REMARK    6  A    between atoms: C_12  and  C_17
REMARK    7  A    between atoms: C_16  and  C_18
REMARK    8  A    between atoms: C_21  and  C_25
REMARK                            x       y       z     vdW  Elec       q    Type
REMARK                         _______ _______ _______ _____ _____    ______ ____
ROOT
ATOM      8  N   UNL     1     -11.209   9.528  17.773  0.00  0.00    -0.285 NA
ATOM     12  C   UNL     1     -10.636  10.614  18.595  0.00  0.00    +0.149 C 
ATOM     13  C   UNL     1     -10.447  11.790  17.618  0.00  0.00    +0.061 C 
ATOM     14  C   UNL     1     -10.899  11.254  16.265  0.00  0.00    +0.130 C 
ATOM     15  C   UNL     1     -10.741   9.752  16.407  0.00  0.00    +0.116 C 
ENDROOT
BRANCH  12  17
ATOM      3  O   UNL     1     -12.448  11.930  19.572  0.00  0.00    -0.336 OA
ATOM      9  N   UNL     1     -11.493  10.489  20.996  0.00  0.00    -0.190 NA
ATOM     10  N   UNL     1     -13.119  12.086  20.792  0.00  0.00    -0.056 NA
ATOM     17  C   UNL     1     -11.508  10.972  19.779  0.00  0.00    +0.245 A 
ATOM     21  C   UNL     1     -12.499  11.203  21.580  0.00  0.00    +0.202 A 
BRANCH  21  25
ATOM     25  C   UNL     1     -12.861  11.010  22.955  0.00  0.00    +0.025 A 
ATOM     26  C   UNL     1     -14.164  10.640  23.288  0.00  0.00    +0.044 A 
ATOM     27  C   UNL     1     -11.909  11.190  23.958  0.00  0.00    +0.012 A 
ATOM     29  C   UNL     1     -14.515  10.450  24.625  0.00  0.00    +0.127 A 
ATOM     30  C   UNL     1     -12.260  11.001  25.295  0.00  0.00    +0.003 A 
ATOM     31  C   UNL     1     -13.563  10.632  25.628  0.00  0.00    +0.033 A 
BRANCH  29  11
ATOM      6  O   UNL     1     -16.119   9.847  26.167  0.00  0.00    -0.126 OA
ATOM      7  O   UNL     1     -16.700   9.981  24.054  0.00  0.00    -0.126 OA
ATOM     11  N   UNL     1     -15.841  10.075  24.965  0.00  0.00    +0.056 N 
ENDBRANCH  29  11
ENDBRANCH  21  25
ENDBRANCH  12  17
BRANCH  14   2
ATOM      2  O   UNL     1     -10.091  11.771  15.225  0.00  0.00    -0.390 OA
ATOM     32  H   UNL     1     -10.220  12.735  15.208  0.00  0.00    +0.210 HD
ENDBRANCH  14   2
BRANCH   8  16
ATOM     16  C   UNL     1     -10.866   8.198  18.259  0.00  0.00    +0.120 C 
BRANCH  16  18
ATOM     18  C   UNL     1     -11.914   7.655  19.195  0.00  0.00    -0.033 A 
ATOM     19  C   UNL     1     -11.532   6.941  20.330  0.00  0.00    +0.007 A 
ATOM     20  C   UNL     1     -13.266   7.868  18.927  0.00  0.00    +0.007 A 
ATOM     22  C   UNL     1     -12.502   6.438  21.197  0.00  0.00    +0.027 A 
ATOM     23  C   UNL     1     -14.236   7.367  19.794  0.00  0.00    +0.027 A 
ATOM     24  C   UNL     1     -13.854   6.651  20.929  0.00  0.00    +0.088 A 
BRANCH  24   1
ATOM      1  S   UNL     1     -15.069   6.021  22.014  0.00  0.00    -0.006 S 
ATOM      4  O   UNL     1     -15.683   7.132  22.730  0.00  0.00    -0.170 OA
ATOM      5  O   UNL     1     -15.906   5.096  21.262  0.00  0.00    -0.170 OA
ATOM     28  C   UNL     1     -14.150   5.080  23.210  0.00  0.00    +0.200 C 
ENDBRANCH  24   1
ENDBRANCH  16  18
ENDBRANCH   8  16
TORSDOF 7
ENDMDL
