MODEL 1
REMARK VINA RESULT:      -6.7      0.000      0.000
REMARK  Name = 23899975
REMARK  12 active torsions:
REMARK  status: ('A' for Active; 'I' for Inactive)
REMARK    1  A    between atoms: O_3  and  C_17
REMARK    2  A    between atoms: O_3  and  C_27
REMARK    3  A    between atoms: O_4  and  C_18
REMARK    4  A    between atoms: O_5  and  C_23
REMARK    5  A    between atoms: O_8  and  C_31
REMARK    6  A    between atoms: N_10  and  C_32
REMARK    7  A    between atoms: C_11  and  C_21
REMARK    8  A    between atoms: C_13  and  C_23
REMARK    9  A    between atoms: C_13  and  C_24
REMARK   10  A    between atoms: C_14  and  C_22
REMARK   11  A    between atoms: C_22  and  C_25
REMARK   12  A    between atoms: C_26  and  C_31
REMARK                            x       y       z     vdW  Elec       q    Type
REMARK                         _______ _______ _______ _____ _____    ______ ____
ROOT
ATOM     11  C   UNL     1      -4.027 -11.865  14.681  0.00  0.00    -0.023 C 
ATOM     12  C   UNL     1      -4.118 -11.102  16.059  0.00  0.00    +0.007 C 
ATOM     13  C   UNL     1      -5.316 -11.494  17.007  0.00  0.00    +0.031 C 
ATOM     14  C   UNL     1      -2.968 -11.091  13.792  0.00  0.00    +0.032 C 
ATOM     15  C   UNL     1      -5.416 -11.801  13.991  0.00  0.00    +0.011 C 
ATOM     16  C   UNL     1      -2.739 -11.049  16.752  0.00  0.00    +0.007 C 
ATOM     17  C   UNL     1      -6.639 -11.471  16.182  0.00  0.00    +0.186 C 
ATOM     18  C   UNL     1      -1.590 -10.929  14.478  0.00  0.00    +0.119 C 
ATOM     19  C   UNL     1      -6.566 -12.261  14.879  0.00  0.00    +0.046 C 
ATOM     20  C   UNL     1      -1.706 -10.336  15.878  0.00  0.00    +0.032 C 
ATOM     21  C   UNL     1      -3.631 -13.355  14.823  0.00  0.00    +0.012 C 
ATOM     24  C   UNL     1      -5.449 -10.423  18.128  0.00  0.00    +0.017 C 
ENDROOT
BRANCH  18   4
ATOM      4  O   UNL     1      -0.904 -12.175  14.538  0.00  0.00    -0.391 OA
ATOM     38  H   UNL     1      -1.440 -12.832  14.063  0.00  0.00    +0.210 HD
ENDBRANCH  18   4
BRANCH  17   3
ATOM      3  O   UNL     1      -7.738 -11.995  16.928  0.00  0.00    -0.446 OA
BRANCH   3  27
ATOM      7  O   UNL     1     -10.021 -11.882  16.989  0.00  0.00    -0.226 OA
ATOM     10  N   UNL     1      -8.702 -10.059  16.341  0.00  0.00    -0.251 N 
ATOM     27  C   UNL     1      -8.940 -11.351  16.770  0.00  0.00    +0.405 C 
ATOM     40  H   UNL     1      -7.727  -9.800  16.215  0.00  0.00    +0.158 HD
BRANCH  10  32
ATOM      1 CL   UNL     1     -12.047  -8.105  13.012  0.00  0.00    -0.082 Cl
ATOM      2 CL   UNL     1     -12.664  -5.797  15.196  0.00  0.00    -0.082 Cl
ATOM     32  C   UNL     1      -9.650  -9.050  16.054  0.00  0.00    +0.038 A 
ATOM     33  C   UNL     1     -10.319  -9.050  14.830  0.00  0.00    +0.044 A 
ATOM     34  C   UNL     1      -9.915  -8.055  16.994  0.00  0.00    +0.025 A 
ATOM     35  C   UNL     1     -11.253  -8.054  14.546  0.00  0.00    +0.061 A 
ATOM     36  C   UNL     1     -10.850  -7.059  16.711  0.00  0.00    +0.023 A 
ATOM     37  C   UNL     1     -11.518  -7.058  15.487  0.00  0.00    +0.059 A 
ENDBRANCH  10  32
ENDBRANCH   3  27
ENDBRANCH  17   3
BRANCH  14  22
ATOM     22  C   UNL     1      -2.781 -11.650  12.372  0.00  0.00    +0.102 C 
BRANCH  22  25
ATOM      6  O   UNL     1      -2.117  -9.574  11.415  0.00  0.00    -0.276 OA
ATOM      9  N   UNL     1      -3.897 -10.672  10.425  0.00  0.00    -0.296 N 
ATOM     25  C   UNL     1      -2.890 -10.532  11.366  0.00  0.00    +0.216 C 
ATOM     26  C   UNL     1      -4.081  -9.729   9.320  0.00  0.00    +0.101 C 
ATOM     28  C   UNL     1      -4.834 -11.788  10.329  0.00  0.00    +0.108 C 
ATOM     29  C   UNL     1      -4.969 -10.492   8.334  0.00  0.00    +0.026 C 
ATOM     30  C   UNL     1      -5.813 -11.384   9.238  0.00  0.00    +0.021 C 
BRANCH  26  31
ATOM     31  C   UNL     1      -4.730  -8.431   9.795  0.00  0.00    +0.178 C 
BRANCH  31   8
ATOM      8  O   UNL     1      -5.698  -8.038   8.840  0.00  0.00    -0.393 OA
ATOM     41  H   UNL     1      -5.480  -7.130   8.566  0.00  0.00    +0.209 HD
ENDBRANCH  31   8
ENDBRANCH  26  31
ENDBRANCH  22  25
ENDBRANCH  14  22
BRANCH  13  23
ATOM     23  C   UNL     1      -5.129 -12.841  17.734  0.00  0.00    +0.166 C 
BRANCH  23   5
ATOM      5  O   UNL     1      -5.934 -12.823  18.893  0.00  0.00    -0.394 OA
ATOM     39  H   UNL     1      -6.614 -13.509  18.784  0.00  0.00    +0.209 HD
ENDBRANCH  23   5
ENDBRANCH  13  23
TORSDOF 10
ENDMDL
MODEL 2
REMARK VINA RESULT:      -6.7      4.952     10.690
REMARK  Name = 23899975
REMARK  12 active torsions:
REMARK  status: ('A' for Active; 'I' for Inactive)
REMARK    1  A    between atoms: O_3  and  C_17
REMARK    2  A    between atoms: O_3  and  C_27
REMARK    3  A    between atoms: O_4  and  C_18
REMARK    4  A    between atoms: O_5  and  C_23
REMARK    5  A    between atoms: O_8  and  C_31
REMARK    6  A    between atoms: N_10  and  C_32
REMARK    7  A    between atoms: C_11  and  C_21
REMARK    8  A    between atoms: C_13  and  C_23
REMARK    9  A    between atoms: C_13  and  C_24
REMARK   10  A    between atoms: C_14  and  C_22
REMARK   11  A    between atoms: C_22  and  C_25
REMARK   12  A    between atoms: C_26  and  C_31
REMARK                            x       y       z     vdW  Elec       q    Type
REMARK                         _______ _______ _______ _____ _____    ______ ____
ROOT
ATOM     11  C   UNL     1     -11.686  -6.344   9.858  0.00  0.00    -0.023 C 
ATOM     12  C   UNL     1     -10.415  -5.686   9.193  0.00  0.00    +0.007 C 
ATOM     13  C   UNL     1      -9.579  -6.595   8.212  0.00  0.00    +0.031 C 
ATOM     14  C   UNL     1     -12.157  -5.371  11.018  0.00  0.00    +0.032 C 
ATOM     15  C   UNL     1     -11.268  -7.706  10.474  0.00  0.00    +0.011 C 
ATOM     16  C   UNL     1     -10.747  -4.281   8.644  0.00  0.00    +0.007 C 
ATOM     17  C   UNL     1      -9.292  -7.959   8.912  0.00  0.00    +0.186 C 
ATOM     18  C   UNL     1     -12.417  -3.923  10.538  0.00  0.00    +0.119 C 
ATOM     19  C   UNL     1     -10.533  -8.622   9.501  0.00  0.00    +0.046 C 
ATOM     20  C   UNL     1     -11.239  -3.353   9.755  0.00  0.00    +0.032 C 
ATOM     21  C   UNL     1     -12.843  -6.603   8.863  0.00  0.00    +0.012 C 
ATOM     24  C   UNL     1      -8.206  -5.917   7.935  0.00  0.00    +0.017 C 
ENDROOT
BRANCH  18   4
ATOM      4  O   UNL     1     -13.599  -3.855   9.748  0.00  0.00    -0.391 OA
ATOM     38  H   UNL     1     -13.638  -4.658   9.202  0.00  0.00    +0.210 HD
ENDBRANCH  18   4
BRANCH  17   3
ATOM      3  O   UNL     1      -8.700  -8.900   8.016  0.00  0.00    -0.446 OA
BRANCH   3  27
ATOM      7  O   UNL     1      -7.544 -10.846   8.336  0.00  0.00    -0.226 OA
ATOM     10  N   UNL     1      -6.813  -8.806   9.220  0.00  0.00    -0.251 N 
ATOM     27  C   UNL     1      -7.658  -9.641   8.516  0.00  0.00    +0.405 C 
ATOM     40  H   UNL     1      -7.080  -7.825   9.258  0.00  0.00    +0.158 HD
BRANCH  10  32
ATOM      1 CL   UNL     1      -4.633 -10.584  13.483  0.00  0.00    -0.082 Cl
ATOM      2 CL   UNL     1      -1.774 -10.214  12.012  0.00  0.00    -0.082 Cl
ATOM     32  C   UNL     1      -5.621  -9.146   9.899  0.00  0.00    +0.038 A 
ATOM     33  C   UNL     1      -5.676  -9.642  11.201  0.00  0.00    +0.044 A 
ATOM     34  C   UNL     1      -4.389  -8.986   9.266  0.00  0.00    +0.025 A 
ATOM     35  C   UNL     1      -4.500  -9.977  11.871  0.00  0.00    +0.061 A 
ATOM     36  C   UNL     1      -3.211  -9.322   9.934  0.00  0.00    +0.023 A 
ATOM     37  C   UNL     1      -3.267  -9.817  11.237  0.00  0.00    +0.059 A 
ENDBRANCH  10  32
ENDBRANCH   3  27
ENDBRANCH  17   3
BRANCH  14  22
ATOM     22  C   UNL     1     -13.358  -5.873  11.836  0.00  0.00    +0.102 C 
BRANCH  22  25
ATOM      6  O   UNL     1     -13.271  -4.434  13.730  0.00  0.00    -0.276 OA
ATOM      9  N   UNL     1     -12.779  -6.667  14.078  0.00  0.00    -0.296 N 
ATOM     25  C   UNL     1     -13.136  -5.580  13.298  0.00  0.00    +0.216 C 
ATOM     26  C   UNL     1     -12.620  -6.579  15.531  0.00  0.00    +0.101 C 
ATOM     28  C   UNL     1     -12.608  -8.041  13.610  0.00  0.00    +0.108 C 
ATOM     29  C   UNL     1     -12.670  -8.039  15.992  0.00  0.00    +0.026 C 
ATOM     30  C   UNL     1     -12.074  -8.801  14.814  0.00  0.00    +0.021 C 
BRANCH  26  31
ATOM     31  C   UNL     1     -11.306  -5.900  15.910  0.00  0.00    +0.178 C 
BRANCH  31   8
ATOM      8  O   UNL     1     -10.770  -6.558  17.042  0.00  0.00    -0.393 OA
ATOM     41  H   UNL     1      -9.820  -6.684  16.878  0.00  0.00    +0.209 HD
ENDBRANCH  31   8
ENDBRANCH  26  31
ENDBRANCH  22  25
ENDBRANCH  14  22
BRANCH  13  23
ATOM     23  C   UNL     1     -10.232  -6.798   6.830  0.00  0.00    +0.166 C 
BRANCH  23   5
ATOM      5  O   UNL     1      -9.212  -7.129   5.913  0.00  0.00    -0.394 OA
ATOM     39  H   UNL     1      -8.762  -7.920   6.255  0.00  0.00    +0.209 HD
ENDBRANCH  23   5
ENDBRANCH  13  23
TORSDOF 10
ENDMDL
MODEL 3
REMARK VINA RESULT:      -6.5      3.146      7.889
REMARK  Name = 23899975
REMARK  12 active torsions:
REMARK  status: ('A' for Active; 'I' for Inactive)
REMARK    1  A    between atoms: O_3  and  C_17
REMARK    2  A    between atoms: O_3  and  C_27
REMARK    3  A    between atoms: O_4  and  C_18
REMARK    4  A    between atoms: O_5  and  C_23
REMARK    5  A    between atoms: O_8  and  C_31
REMARK    6  A    between atoms: N_10  and  C_32
REMARK    7  A    between atoms: C_11  and  C_21
REMARK    8  A    between atoms: C_13  and  C_23
REMARK    9  A    between atoms: C_13  and  C_24
REMARK   10  A    between atoms: C_14  and  C_22
REMARK   11  A    between atoms: C_22  and  C_25
REMARK   12  A    between atoms: C_26  and  C_31
REMARK                            x       y       z     vdW  Elec       q    Type
REMARK                         _______ _______ _______ _____ _____    ______ ____
ROOT
ATOM     11  C   UNL     1      -7.400 -10.545  17.769  0.00  0.00    -0.023 C 
ATOM     12  C   UNL     1      -6.724 -11.953  17.541  0.00  0.00    +0.007 C 
ATOM     13  C   UNL     1      -5.179 -11.954  17.228  0.00  0.00    +0.031 C 
ATOM     14  C   UNL     1      -8.968 -10.775  17.742  0.00  0.00    +0.032 C 
ATOM     15  C   UNL     1      -7.001  -9.613  16.594  0.00  0.00    +0.011 C 
ATOM     16  C   UNL     1      -7.162 -12.957  18.631  0.00  0.00    +0.007 C 
ATOM     17  C   UNL     1      -4.895 -10.925  16.092  0.00  0.00    +0.186 C 
ATOM     18  C   UNL     1      -9.452 -11.840  18.755  0.00  0.00    +0.119 C 
ATOM     19  C   UNL     1      -5.498  -9.547  16.344  0.00  0.00    +0.046 C 
ATOM     20  C   UNL     1      -8.678 -13.149  18.632  0.00  0.00    +0.032 C 
ATOM     21  C   UNL     1      -6.974  -9.860  19.090  0.00  0.00    +0.012 C 
ATOM     24  C   UNL     1      -4.768 -13.358  16.697  0.00  0.00    +0.017 C 
ENDROOT
BRANCH  18   4
ATOM      4  O   UNL     1      -9.360 -11.351  20.089  0.00  0.00    -0.391 OA
ATOM     38  H   UNL     1      -9.055 -12.082  20.652  0.00  0.00    +0.210 HD
ENDBRANCH  18   4
BRANCH  17   3
ATOM      3  O   UNL     1      -3.495 -10.737  15.884  0.00  0.00    -0.446 OA
BRANCH   3  27
ATOM      7  O   UNL     1      -1.969 -10.296  14.239  0.00  0.00    -0.226 OA
ATOM     10  N   UNL     1      -4.088 -11.174  13.768  0.00  0.00    -0.251 N 
ATOM     27  C   UNL     1      -3.075 -10.698  14.578  0.00  0.00    +0.405 C 
ATOM     40  H   UNL     1      -4.941 -11.463  14.240  0.00  0.00    +0.158 HD
BRANCH  10  32
ATOM      1 CL   UNL     1      -4.083  -8.861   9.214  0.00  0.00    -0.082 Cl
ATOM      2 CL   UNL     1      -4.084 -11.806   7.871  0.00  0.00    -0.082 Cl
ATOM     32  C   UNL     1      -4.087 -11.308  12.361  0.00  0.00    +0.038 A 
ATOM     33  C   UNL     1      -4.084 -10.172  11.552  0.00  0.00    +0.044 A 
ATOM     34  C   UNL     1      -4.088 -12.577  11.782  0.00  0.00    +0.025 A 
ATOM     35  C   UNL     1      -4.083 -10.305  10.163  0.00  0.00    +0.061 A 
ATOM     36  C   UNL     1      -4.086 -12.710  10.394  0.00  0.00    +0.023 A 
ATOM     37  C   UNL     1      -4.084 -11.574   9.585  0.00  0.00    +0.059 A 
ENDBRANCH  10  32
ENDBRANCH   3  27
ENDBRANCH  17   3
BRANCH  14  22
ATOM     22  C   UNL     1      -9.812  -9.498  17.886  0.00  0.00    +0.102 C 
BRANCH  22  25
ATOM      6  O   UNL     1     -11.344 -10.505  16.367  0.00  0.00    -0.276 OA
ATOM      9  N   UNL     1     -11.225  -8.195  16.370  0.00  0.00    -0.296 N 
ATOM     25  C   UNL     1     -10.864  -9.459  16.806  0.00  0.00    +0.216 C 
ATOM     26  C   UNL     1     -12.297  -7.971  15.398  0.00  0.00    +0.101 C 
ATOM     28  C   UNL     1     -10.684  -6.929  16.861  0.00  0.00    +0.108 C 
ATOM     29  C   UNL     1     -12.629  -6.484  15.557  0.00  0.00    +0.026 C 
ATOM     30  C   UNL     1     -11.294  -5.867  15.960  0.00  0.00    +0.021 C 
BRANCH  26  31
ATOM     31  C   UNL     1     -11.847  -8.313  13.979  0.00  0.00    +0.178 C 
BRANCH  31   8
ATOM      8  O   UNL     1     -12.351  -9.592  13.644  0.00  0.00    -0.393 OA
ATOM     41  H   UNL     1     -12.813  -9.505  12.793  0.00  0.00    +0.209 HD
ENDBRANCH  31   8
ENDBRANCH  26  31
ENDBRANCH  22  25
ENDBRANCH  14  22
BRANCH  13  23
ATOM     23  C   UNL     1      -4.287 -11.695  18.459  0.00  0.00    +0.166 C 
BRANCH  23   5
ATOM      5  O   UNL     1      -3.707 -12.924  18.841  0.00  0.00    -0.394 OA
ATOM     39  H   UNL     1      -3.865 -13.555  18.118  0.00  0.00    +0.209 HD
ENDBRANCH  23   5
ENDBRANCH  13  23
TORSDOF 10
ENDMDL
MODEL 4
REMARK VINA RESULT:      -6.4      3.015      7.949
REMARK  Name = 23899975
REMARK  12 active torsions:
REMARK  status: ('A' for Active; 'I' for Inactive)
REMARK    1  A    between atoms: O_3  and  C_17
REMARK    2  A    between atoms: O_3  and  C_27
REMARK    3  A    between atoms: O_4  and  C_18
REMARK    4  A    between atoms: O_5  and  C_23
REMARK    5  A    between atoms: O_8  and  C_31
REMARK    6  A    between atoms: N_10  and  C_32
REMARK    7  A    between atoms: C_11  and  C_21
REMARK    8  A    between atoms: C_13  and  C_23
REMARK    9  A    between atoms: C_13  and  C_24
REMARK   10  A    between atoms: C_14  and  C_22
REMARK   11  A    between atoms: C_22  and  C_25
REMARK   12  A    between atoms: C_26  and  C_31
REMARK                            x       y       z     vdW  Elec       q    Type
REMARK                         _______ _______ _______ _____ _____    ______ ____
ROOT
ATOM     11  C   UNL     1      -4.803 -11.598  15.763  0.00  0.00    -0.023 C 
ATOM     12  C   UNL     1      -4.586 -12.914  14.921  0.00  0.00    +0.007 C 
ATOM     13  C   UNL     1      -3.516 -12.845  13.764  0.00  0.00    +0.031 C 
ATOM     14  C   UNL     1      -6.118 -11.811  16.623  0.00  0.00    +0.032 C 
ATOM     15  C   UNL     1      -5.021 -10.416  14.782  0.00  0.00    +0.011 C 
ATOM     16  C   UNL     1      -4.457 -14.145  15.845  0.00  0.00    +0.007 C 
ATOM     17  C   UNL     1      -3.792 -11.578  12.899  0.00  0.00    +0.186 C 
ATOM     18  C   UNL     1      -6.079 -13.083  17.502  0.00  0.00    +0.119 C 
ATOM     19  C   UNL     1      -3.941 -10.297  13.713  0.00  0.00    +0.046 C 
ATOM     20  C   UNL     1      -5.709 -14.328  16.703  0.00  0.00    +0.032 C 
ATOM     21  C   UNL     1      -3.607 -11.244  16.680  0.00  0.00    +0.012 C 
ATOM     24  C   UNL     1      -3.686 -14.085  12.839  0.00  0.00    +0.017 C 
ENDROOT
BRANCH  18   4
ATOM      4  O   UNL     1      -5.173 -12.922  18.589  0.00  0.00    -0.391 OA
ATOM     38  H   UNL     1      -5.551 -12.263  19.195  0.00  0.00    +0.210 HD
ENDBRANCH  18   4
BRANCH  17   3
ATOM      3  O   UNL     1      -2.753 -11.350  11.946  0.00  0.00    -0.446 OA
BRANCH   3  27
ATOM      7  O   UNL     1      -2.463  -9.550  10.565  0.00  0.00    -0.226 OA
ATOM     10  N   UNL     1      -4.175 -11.112  10.231  0.00  0.00    -0.251 N 
ATOM     27  C   UNL     1      -3.079 -10.564  10.869  0.00  0.00    +0.405 C 
ATOM     40  H   UNL     1      -4.550 -11.966  10.636  0.00  0.00    +0.158 HD
BRANCH  10  32
ATOM      1 CL   UNL     1      -4.833 -11.429   5.175  0.00  0.00    -0.082 Cl
ATOM      2 CL   UNL     1      -7.009  -9.049   5.447  0.00  0.00    -0.082 Cl
ATOM     32  C   UNL     1      -4.843 -10.631   9.081  0.00  0.00    +0.038 A 
ATOM     33  C   UNL     1      -4.564 -11.183   7.831  0.00  0.00    +0.044 A 
ATOM     34  C   UNL     1      -5.780  -9.605   9.198  0.00  0.00    +0.025 A 
ATOM     35  C   UNL     1      -5.223 -10.708   6.697  0.00  0.00    +0.061 A 
ATOM     36  C   UNL     1      -6.439  -9.130   8.064  0.00  0.00    +0.023 A 
ATOM     37  C   UNL     1      -6.160  -9.682   6.813  0.00  0.00    +0.059 A 
ENDBRANCH  10  32
ENDBRANCH   3  27
ENDBRANCH  17   3
BRANCH  14  22
ATOM     22  C   UNL     1      -6.537 -10.601  17.474  0.00  0.00    +0.102 C 
BRANCH  22  25
ATOM      6  O   UNL     1      -8.094  -9.648  15.946  0.00  0.00    -0.276 OA
ATOM      9  N   UNL     1      -8.909 -10.309  18.007  0.00  0.00    -0.296 N 
ATOM     25  C   UNL     1      -7.912 -10.140  17.060  0.00  0.00    +0.216 C 
ATOM     26  C   UNL     1     -10.315 -10.005  17.736  0.00  0.00    +0.101 C 
ATOM     28  C   UNL     1      -8.740 -10.886  19.339  0.00  0.00    +0.108 C 
ATOM     29  C   UNL     1     -11.068 -10.737  18.851  0.00  0.00    +0.026 C 
ATOM     30  C   UNL     1     -10.088 -10.703  20.018  0.00  0.00    +0.021 C 
BRANCH  26  31
ATOM     31  C   UNL     1     -10.576  -8.500  17.756  0.00  0.00    +0.178 C 
BRANCH  31   8
ATOM      8  O   UNL     1      -9.332  -7.830  17.839  0.00  0.00    -0.393 OA
ATOM     41  H   UNL     1      -8.637  -8.505  17.760  0.00  0.00    +0.209 HD
ENDBRANCH  31   8
ENDBRANCH  26  31
ENDBRANCH  22  25
ENDBRANCH  14  22
BRANCH  13  23
ATOM     23  C   UNL     1      -2.055 -12.886  14.254  0.00  0.00    +0.166 C 
BRANCH  23   5
ATOM      5  O   UNL     1      -1.253 -13.344  13.187  0.00  0.00    -0.394 OA
ATOM     39  H   UNL     1      -0.325 -13.216  13.448  0.00  0.00    +0.209 HD
ENDBRANCH  23   5
ENDBRANCH  13  23
TORSDOF 10
ENDMDL
MODEL 5
REMARK VINA RESULT:      -6.4      2.282      2.579
REMARK  Name = 23899975
REMARK  12 active torsions:
REMARK  status: ('A' for Active; 'I' for Inactive)
REMARK    1  A    between atoms: O_3  and  C_17
REMARK    2  A    between atoms: O_3  and  C_27
REMARK    3  A    between atoms: O_4  and  C_18
REMARK    4  A    between atoms: O_5  and  C_23
REMARK    5  A    between atoms: O_8  and  C_31
REMARK    6  A    between atoms: N_10  and  C_32
REMARK    7  A    between atoms: C_11  and  C_21
REMARK    8  A    between atoms: C_13  and  C_23
REMARK    9  A    between atoms: C_13  and  C_24
REMARK   10  A    between atoms: C_14  and  C_22
REMARK   11  A    between atoms: C_22  and  C_25
REMARK   12  A    between atoms: C_26  and  C_31
REMARK                            x       y       z     vdW  Elec       q    Type
REMARK                         _______ _______ _______ _____ _____    ______ ____
ROOT
ATOM     11  C   UNL     1      -4.428 -11.606  13.650  0.00  0.00    -0.023 C 
ATOM     12  C   UNL     1      -4.089 -10.895  15.017  0.00  0.00    +0.007 C 
ATOM     13  C   UNL     1      -5.018 -11.241  16.243  0.00  0.00    +0.031 C 
ATOM     14  C   UNL     1      -3.585 -10.872  12.525  0.00  0.00    +0.032 C 
ATOM     15  C   UNL     1      -5.940 -11.417  13.359  0.00  0.00    +0.011 C 
ATOM     16  C   UNL     1      -2.575 -10.967  15.315  0.00  0.00    +0.007 C 
ATOM     17  C   UNL     1      -6.506 -11.092  15.805  0.00  0.00    +0.186 C 
ATOM     18  C   UNL     1      -2.067 -10.835  12.819  0.00  0.00    +0.119 C 
ATOM     19  C   UNL     1      -6.845 -11.831  14.514  0.00  0.00    +0.046 C 
ATOM     20  C   UNL     1      -1.759 -10.293  14.211  0.00  0.00    +0.032 C 
ATOM     21  C   UNL     1      -4.126 -13.124  13.649  0.00  0.00    +0.012 C 
ATOM     24  C   UNL     1      -4.763 -10.210  17.381  0.00  0.00    +0.017 C 
ENDROOT
BRANCH  18   4
ATOM      4  O   UNL     1      -1.489 -12.128  12.667  0.00  0.00    -0.391 OA
ATOM     38  H   UNL     1      -1.021 -12.145  11.815  0.00  0.00    +0.210 HD
ENDBRANCH  18   4
BRANCH  17   3
ATOM      3  O   UNL     1      -7.405 -11.567  16.808  0.00  0.00    -0.446 OA
BRANCH   3  27
ATOM      7  O   UNL     1      -8.211  -9.453  17.142  0.00  0.00    -0.226 OA
ATOM     10  N   UNL     1      -9.366 -11.355  17.869  0.00  0.00    -0.251 N 
ATOM     27  C   UNL     1      -8.331 -10.665  17.269  0.00  0.00    +0.405 C 
ATOM     40  H   UNL     1      -9.286 -12.369  17.876  0.00  0.00    +0.158 HD
BRANCH  10  32
ATOM      1 CL   UNL     1     -13.929  -9.142  17.259  0.00  0.00    -0.082 Cl
ATOM      2 CL   UNL     1     -14.210  -9.145  20.483  0.00  0.00    -0.082 Cl
ATOM     32  C   UNL     1     -10.527 -10.825  18.478  0.00  0.00    +0.038 A 
ATOM     33  C   UNL     1     -11.551 -10.302  17.689  0.00  0.00    +0.044 A 
ATOM     34  C   UNL     1     -10.648 -10.826  19.867  0.00  0.00    +0.025 A 
ATOM     35  C   UNL     1     -12.696  -9.779  18.289  0.00  0.00    +0.061 A 
ATOM     36  C   UNL     1     -11.793 -10.303  20.468  0.00  0.00    +0.023 A 
ATOM     37  C   UNL     1     -12.817  -9.779  19.679  0.00  0.00    +0.059 A 
ENDBRANCH  10  32
ENDBRANCH   3  27
ENDBRANCH  17   3
BRANCH  14  22
ATOM     22  C   UNL     1      -3.828 -11.384  11.096  0.00  0.00    +0.102 C 
BRANCH  22  25
ATOM      6  O   UNL     1      -4.219  -9.086  10.612  0.00  0.00    -0.276 OA
ATOM      9  N   UNL     1      -4.842 -10.625   9.001  0.00  0.00    -0.296 N 
ATOM     25  C   UNL     1      -4.310 -10.252  10.224  0.00  0.00    +0.216 C 
ATOM     26  C   UNL     1      -5.267  -9.650   7.994  0.00  0.00    +0.101 C 
ATOM     28  C   UNL     1      -4.968 -11.992   8.500  0.00  0.00    +0.108 C 
ATOM     29  C   UNL     1      -5.353 -10.472   6.705  0.00  0.00    +0.026 C 
ATOM     30  C   UNL     1      -5.743 -11.861   7.198  0.00  0.00    +0.021 C 
BRANCH  26  31
ATOM     31  C   UNL     1      -6.605  -9.013   8.362  0.00  0.00    +0.178 C 
BRANCH  31   8
ATOM      8  O   UNL     1      -6.361  -7.711   8.859  0.00  0.00    -0.393 OA
ATOM     41  H   UNL     1      -7.221  -7.332   9.108  0.00  0.00    +0.209 HD
ENDBRANCH  31   8
ENDBRANCH  26  31
ENDBRANCH  22  25
ENDBRANCH  14  22
BRANCH  13  23
ATOM     23  C   UNL     1      -4.750 -12.626  16.866  0.00  0.00    +0.166 C 
BRANCH  23   5
ATOM      5  O   UNL     1      -5.053 -12.548  18.242  0.00  0.00    -0.394 OA
ATOM     39  H   UNL     1      -5.991 -12.301  18.318  0.00  0.00    +0.209 HD
ENDBRANCH  23   5
ENDBRANCH  13  23
TORSDOF 10
ENDMDL
MODEL 6
REMARK VINA RESULT:      -6.3      2.883      7.742
REMARK  Name = 23899975
REMARK  12 active torsions:
REMARK  status: ('A' for Active; 'I' for Inactive)
REMARK    1  A    between atoms: O_3  and  C_17
REMARK    2  A    between atoms: O_3  and  C_27
REMARK    3  A    between atoms: O_4  and  C_18
REMARK    4  A    between atoms: O_5  and  C_23
REMARK    5  A    between atoms: O_8  and  C_31
REMARK    6  A    between atoms: N_10  and  C_32
REMARK    7  A    between atoms: C_11  and  C_21
REMARK    8  A    between atoms: C_13  and  C_23
REMARK    9  A    between atoms: C_13  and  C_24
REMARK   10  A    between atoms: C_14  and  C_22
REMARK   11  A    between atoms: C_22  and  C_25
REMARK   12  A    between atoms: C_26  and  C_31
REMARK                            x       y       z     vdW  Elec       q    Type
REMARK                         _______ _______ _______ _____ _____    ______ ____
ROOT
ATOM     11  C   UNL     1      -5.067 -11.299  15.885  0.00  0.00    -0.023 C 
ATOM     12  C   UNL     1      -5.070 -12.591  14.979  0.00  0.00    +0.007 C 
ATOM     13  C   UNL     1      -4.677 -12.394  13.465  0.00  0.00    +0.031 C 
ATOM     14  C   UNL     1      -5.791 -11.684  17.242  0.00  0.00    +0.032 C 
ATOM     15  C   UNL     1      -5.884 -10.193  15.167  0.00  0.00    +0.011 C 
ATOM     16  C   UNL     1      -4.351 -13.762  15.685  0.00  0.00    +0.007 C 
ATOM     17  C   UNL     1      -5.503 -11.208  12.880  0.00  0.00    +0.186 C 
ATOM     18  C   UNL     1      -5.165 -12.910  17.947  0.00  0.00    +0.119 C 
ATOM     19  C   UNL     1      -5.448  -9.942  13.728  0.00  0.00    +0.046 C 
ATOM     20  C   UNL     1      -5.026 -14.107  17.013  0.00  0.00    +0.032 C 
ATOM     21  C   UNL     1      -3.650 -10.743  16.165  0.00  0.00    +0.012 C 
ATOM     24  C   UNL     1      -5.068 -13.672  12.667  0.00  0.00    +0.017 C 
ENDROOT
BRANCH  18   4
ATOM      4  O   UNL     1      -3.896 -12.582  18.503  0.00  0.00    -0.391 OA
ATOM     38  H   UNL     1      -4.038 -12.307  19.424  0.00  0.00    +0.210 HD
ENDBRANCH  18   4
BRANCH  17   3
ATOM      3  O   UNL     1      -5.065 -10.854  11.568  0.00  0.00    -0.446 OA
BRANCH   3  27
ATOM      7  O   UNL     1      -7.042 -11.384  10.547  0.00  0.00    -0.226 OA
ATOM     10  N   UNL     1      -5.719  -9.585   9.840  0.00  0.00    -0.251 N 
ATOM     27  C   UNL     1      -6.049 -10.671  10.629  0.00  0.00    +0.405 C 
ATOM     40  H   UNL     1      -4.846  -9.116  10.065  0.00  0.00    +0.158 HD
BRANCH  10  32
ATOM      1 CL   UNL     1      -8.922  -5.975   8.166  0.00  0.00    -0.082 Cl
ATOM      2 CL   UNL     1      -8.749  -7.368   5.249  0.00  0.00    -0.082 Cl
ATOM     32  C   UNL     1      -6.447  -9.045   8.756  0.00  0.00    +0.038 A 
ATOM     33  C   UNL     1      -7.238  -7.911   8.942  0.00  0.00    +0.044 A 
ATOM     34  C   UNL     1      -6.373  -9.645   7.499  0.00  0.00    +0.025 A 
ATOM     35  C   UNL     1      -7.957  -7.379   7.872  0.00  0.00    +0.061 A 
ATOM     36  C   UNL     1      -7.091  -9.112   6.428  0.00  0.00    +0.023 A 
ATOM     37  C   UNL     1      -7.883  -7.979   6.615  0.00  0.00    +0.059 A 
ENDBRANCH  10  32
ENDBRANCH   3  27
ENDBRANCH  17   3
BRANCH  14  22
ATOM     22  C   UNL     1      -5.945 -10.528  18.244  0.00  0.00    +0.102 C 
BRANCH  22  25
ATOM      6  O   UNL     1      -6.688 -11.338  20.356  0.00  0.00    -0.276 OA
ATOM      9  N   UNL     1      -8.311 -10.633  18.866  0.00  0.00    -0.296 N 
ATOM     25  C   UNL     1      -7.005 -10.873  19.260  0.00  0.00    +0.216 C 
ATOM     26  C   UNL     1      -9.453 -10.820  19.762  0.00  0.00    +0.101 C 
ATOM     28  C   UNL     1      -8.733 -10.084  17.579  0.00  0.00    +0.108 C 
ATOM     29  C   UNL     1     -10.582 -10.040  19.082  0.00  0.00    +0.026 C 
ATOM     30  C   UNL     1     -10.251 -10.164  17.599  0.00  0.00    +0.021 C 
BRANCH  26  31
ATOM     31  C   UNL     1      -9.795 -12.299  19.932  0.00  0.00    +0.178 C 
BRANCH  31   8
ATOM      8  O   UNL     1     -10.792 -12.417  20.930  0.00  0.00    -0.393 OA
ATOM     41  H   UNL     1     -10.927 -13.367  21.090  0.00  0.00    +0.209 HD
ENDBRANCH  31   8
ENDBRANCH  26  31
ENDBRANCH  22  25
ENDBRANCH  14  22
BRANCH  13  23
ATOM     23  C   UNL     1      -3.165 -12.199  13.227  0.00  0.00    +0.166 C 
BRANCH  23   5
ATOM      5  O   UNL     1      -2.863 -12.685  11.938  0.00  0.00    -0.394 OA
ATOM     39  H   UNL     1      -3.304 -12.100  11.298  0.00  0.00    +0.209 HD
ENDBRANCH  23   5
ENDBRANCH  13  23
TORSDOF 10
ENDMDL
MODEL 7
REMARK VINA RESULT:      -6.2     25.602     29.361
REMARK  Name = 23899975
REMARK  12 active torsions:
REMARK  status: ('A' for Active; 'I' for Inactive)
REMARK    1  A    between atoms: O_3  and  C_17
REMARK    2  A    between atoms: O_3  and  C_27
REMARK    3  A    between atoms: O_4  and  C_18
REMARK    4  A    between atoms: O_5  and  C_23
REMARK    5  A    between atoms: O_8  and  C_31
REMARK    6  A    between atoms: N_10  and  C_32
REMARK    7  A    between atoms: C_11  and  C_21
REMARK    8  A    between atoms: C_13  and  C_23
REMARK    9  A    between atoms: C_13  and  C_24
REMARK   10  A    between atoms: C_14  and  C_22
REMARK   11  A    between atoms: C_22  and  C_25
REMARK   12  A    between atoms: C_26  and  C_31
REMARK                            x       y       z     vdW  Elec       q    Type
REMARK                         _______ _______ _______ _____ _____    ______ ____
ROOT
ATOM     11  C   UNL     1      19.299  -6.089  -2.393  0.00  0.00    -0.023 C 
ATOM     12  C   UNL     1      19.794  -5.563  -0.990  0.00  0.00    +0.007 C 
ATOM     13  C   UNL     1      20.603  -6.582  -0.099  0.00  0.00    +0.031 C 
ATOM     14  C   UNL     1      18.262  -5.025  -2.946  0.00  0.00    +0.032 C 
ATOM     15  C   UNL     1      18.575  -7.445  -2.182  0.00  0.00    +0.011 C 
ATOM     16  C   UNL     1      20.441  -4.167  -1.122  0.00  0.00    +0.007 C 
ATOM     17  C   UNL     1      19.816  -7.925  -0.029  0.00  0.00    +0.186 C 
ATOM     18  C   UNL     1      18.831  -3.588  -3.014  0.00  0.00    +0.119 C 
ATOM     19  C   UNL     1      19.391  -8.462  -1.392  0.00  0.00    +0.046 C 
ATOM     20  C   UNL     1      19.453  -3.149  -1.692  0.00  0.00    +0.032 C 
ATOM     21  C   UNL     1      20.443  -6.310  -3.412  0.00  0.00    +0.012 C 
ATOM     24  C   UNL     1      20.700  -6.024   1.351  0.00  0.00    +0.017 C 
ENDROOT
BRANCH  18   4
ATOM      4  O   UNL     1      19.790  -3.471  -4.060  0.00  0.00    -0.391 OA
ATOM     38  H   UNL     1      20.164  -4.354  -4.219  0.00  0.00    +0.210 HD
ENDBRANCH  18   4
BRANCH  17   3
ATOM      3  O   UNL     1      20.576  -8.953   0.607  0.00  0.00    -0.446 OA
BRANCH   3  27
ATOM      7  O   UNL     1      20.467  -9.141   2.884  0.00  0.00    -0.226 OA
ATOM     10  N   UNL     1      19.041 -10.340   1.466  0.00  0.00    -0.251 N 
ATOM     27  C   UNL     1      20.058  -9.457   1.774  0.00  0.00    +0.405 C 
ATOM     40  H   UNL     1      18.845 -10.473   0.477  0.00  0.00    +0.158 HD
BRANCH  10  32
ATOM      1 CL   UNL     1      18.691 -14.286   4.691  0.00  0.00    -0.082 Cl
ATOM      2 CL   UNL     1      15.613 -13.425   5.196  0.00  0.00    -0.082 Cl
ATOM     32  C   UNL     1      18.236 -11.085   2.359  0.00  0.00    +0.038 A 
ATOM     33  C   UNL     1      18.769 -12.190   3.022  0.00  0.00    +0.044 A 
ATOM     34  C   UNL     1      16.909 -10.715   2.576  0.00  0.00    +0.025 A 
ATOM     35  C   UNL     1      17.975 -12.926   3.902  0.00  0.00    +0.061 A 
ATOM     36  C   UNL     1      16.115 -11.449   3.456  0.00  0.00    +0.023 A 
ATOM     37  C   UNL     1      16.648 -12.555   4.119  0.00  0.00    +0.059 A 
ENDBRANCH  10  32
ENDBRANCH   3  27
ENDBRANCH  17   3
BRANCH  14  22
ATOM     22  C   UNL     1      17.612  -5.392  -4.290  0.00  0.00    +0.102 C 
BRANCH  22  25
ATOM      6  O   UNL     1      15.500  -4.493  -3.659  0.00  0.00    -0.276 OA
ATOM      9  N   UNL     1      15.514  -6.629  -4.545  0.00  0.00    -0.296 N 
ATOM     25  C   UNL     1      16.113  -5.451  -4.131  0.00  0.00    +0.216 C 
ATOM     26  C   UNL     1      14.062  -6.818  -4.552  0.00  0.00    +0.101 C 
ATOM     28  C   UNL     1      16.200  -7.789  -5.111  0.00  0.00    +0.108 C 
ATOM     29  C   UNL     1      13.856  -8.029  -5.465  0.00  0.00    +0.026 C 
ATOM     30  C   UNL     1      15.122  -8.852  -5.251  0.00  0.00    +0.021 C 
BRANCH  26  31
ATOM     31  C   UNL     1      13.523  -7.059  -3.143  0.00  0.00    +0.178 C 
BRANCH  31   8
ATOM      8  O   UNL     1      12.764  -5.931  -2.754  0.00  0.00    -0.393 OA
ATOM     41  H   UNL     1      12.384  -5.547  -3.562  0.00  0.00    +0.209 HD
ENDBRANCH  31   8
ENDBRANCH  26  31
ENDBRANCH  22  25
ENDBRANCH  14  22
BRANCH  13  23
ATOM     23  C   UNL     1      22.058  -6.805  -0.559  0.00  0.00    +0.166 C 
BRANCH  23   5
ATOM      5  O   UNL     1      22.826  -7.136   0.577  0.00  0.00    -0.394 OA
ATOM     39  H   UNL     1      23.061  -8.077   0.503  0.00  0.00    +0.209 HD
ENDBRANCH  23   5
ENDBRANCH  13  23
TORSDOF 10
ENDMDL
MODEL 8
REMARK VINA RESULT:      -6.2     26.028     29.171
REMARK  Name = 23899975
REMARK  12 active torsions:
REMARK  status: ('A' for Active; 'I' for Inactive)
REMARK    1  A    between atoms: O_3  and  C_17
REMARK    2  A    between atoms: O_3  and  C_27
REMARK    3  A    between atoms: O_4  and  C_18
REMARK    4  A    between atoms: O_5  and  C_23
REMARK    5  A    between atoms: O_8  and  C_31
REMARK    6  A    between atoms: N_10  and  C_32
REMARK    7  A    between atoms: C_11  and  C_21
REMARK    8  A    between atoms: C_13  and  C_23
REMARK    9  A    between atoms: C_13  and  C_24
REMARK   10  A    between atoms: C_14  and  C_22
REMARK   11  A    between atoms: C_22  and  C_25
REMARK   12  A    between atoms: C_26  and  C_31
REMARK                            x       y       z     vdW  Elec       q    Type
REMARK                         _______ _______ _______ _____ _____    ______ ____
ROOT
ATOM     11  C   UNL     1      13.229  12.436  13.401  0.00  0.00    -0.023 C 
ATOM     12  C   UNL     1      13.736  12.356  11.909  0.00  0.00    +0.007 C 
ATOM     13  C   UNL     1      12.763  12.912  10.800  0.00  0.00    +0.031 C 
ATOM     14  C   UNL     1      14.209  11.544  14.271  0.00  0.00    +0.032 C 
ATOM     15  C   UNL     1      11.800  11.835  13.466  0.00  0.00    +0.011 C 
ATOM     16  C   UNL     1      15.194  12.853  11.795  0.00  0.00    +0.007 C 
ATOM     17  C   UNL     1      11.346  12.300  11.020  0.00  0.00    +0.186 C 
ATOM     18  C   UNL     1      15.697  11.942  14.124  0.00  0.00    +0.119 C 
ATOM     19  C   UNL     1      10.833  12.433  12.450  0.00  0.00    +0.046 C 
ATOM     20  C   UNL     1      16.135  12.018  12.665  0.00  0.00    +0.032 C 
ATOM     21  C   UNL     1      13.168  13.878  13.958  0.00  0.00    +0.012 C 
ATOM     24  C   UNL     1      13.261  12.441   9.403  0.00  0.00    +0.017 C 
ENDROOT
BRANCH  18   4
ATOM      4  O   UNL     1      15.956  13.185  14.770  0.00  0.00    -0.391 OA
ATOM     38  H   UNL     1      16.918  13.265  14.884  0.00  0.00    +0.210 HD
ENDBRANCH  18   4
BRANCH  17   3
ATOM      3  O   UNL     1      10.371  12.900  10.167  0.00  0.00    -0.446 OA
BRANCH   3  27
ATOM      7  O   UNL     1       8.312  11.943   9.891  0.00  0.00    -0.226 OA
ATOM     10  N   UNL     1      10.146  11.357   8.558  0.00  0.00    -0.251 N 
ATOM     27  C   UNL     1       9.487  12.043   9.560  0.00  0.00    +0.405 C 
ATOM     40  H   UNL     1      11.130  11.580   8.433  0.00  0.00    +0.158 HD
BRANCH  10  32
ATOM      1 CL   UNL     1       8.959   6.450   7.786  0.00  0.00    -0.082 Cl
ATOM      2 CL   UNL     1       7.932   7.303   4.838  0.00  0.00    -0.082 Cl
ATOM     32  C   UNL     1       9.620  10.379   7.683  0.00  0.00    +0.038 A 
ATOM     33  C   UNL     1       9.543   9.048   8.090  0.00  0.00    +0.044 A 
ATOM     34  C   UNL     1       9.178  10.747   6.412  0.00  0.00    +0.025 A 
ATOM     35  C   UNL     1       9.025   8.083   7.226  0.00  0.00    +0.061 A 
ATOM     36  C   UNL     1       8.659   9.783   5.548  0.00  0.00    +0.023 A 
ATOM     37  C   UNL     1       8.583   8.451   5.955  0.00  0.00    +0.059 A 
ENDBRANCH  10  32
ENDBRANCH   3  27
ENDBRANCH  17   3
BRANCH  14  22
ATOM     22  C   UNL     1      13.841  11.443  15.760  0.00  0.00    +0.102 C 
BRANCH  22  25
ATOM      6  O   UNL     1      12.991   9.257  15.348  0.00  0.00    -0.276 OA
ATOM      9  N   UNL     1      14.076   9.605  17.362  0.00  0.00    -0.296 N 
ATOM     25  C   UNL     1      13.592  10.001  16.126  0.00  0.00    +0.216 C 
ATOM     26  C   UNL     1      14.006   8.221  17.831  0.00  0.00    +0.101 C 
ATOM     28  C   UNL     1      14.793  10.451  18.314  0.00  0.00    +0.108 C 
ATOM     29  C   UNL     1      15.015   8.174  18.982  0.00  0.00    +0.026 C 
ATOM     30  C   UNL     1      14.963   9.587  19.554  0.00  0.00    +0.021 C 
BRANCH  26  31
ATOM     31  C   UNL     1      12.594   7.856  18.287  0.00  0.00    +0.178 C 
BRANCH  31   8
ATOM      8  O   UNL     1      12.017   6.999  17.320  0.00  0.00    -0.393 OA
ATOM     41  H   UNL     1      11.093   6.850  17.582  0.00  0.00    +0.209 HD
ENDBRANCH  31   8
ENDBRANCH  26  31
ENDBRANCH  22  25
ENDBRANCH  14  22
BRANCH  13  23
ATOM     23  C   UNL     1      12.706  14.451  10.726  0.00  0.00    +0.166 C 
BRANCH  23   5
ATOM      5  O   UNL     1      12.397  14.811   9.397  0.00  0.00    -0.394 OA
ATOM     39  H   UNL     1      12.125  14.000   8.934  0.00  0.00    +0.209 HD
ENDBRANCH  23   5
ENDBRANCH  13  23
TORSDOF 10
ENDMDL
MODEL 9
REMARK VINA RESULT:      -6.2      2.967      3.314
REMARK  Name = 23899975
REMARK  12 active torsions:
REMARK  status: ('A' for Active; 'I' for Inactive)
REMARK    1  A    between atoms: O_3  and  C_17
REMARK    2  A    between atoms: O_3  and  C_27
REMARK    3  A    between atoms: O_4  and  C_18
REMARK    4  A    between atoms: O_5  and  C_23
REMARK    5  A    between atoms: O_8  and  C_31
REMARK    6  A    between atoms: N_10  and  C_32
REMARK    7  A    between atoms: C_11  and  C_21
REMARK    8  A    between atoms: C_13  and  C_23
REMARK    9  A    between atoms: C_13  and  C_24
REMARK   10  A    between atoms: C_14  and  C_22
REMARK   11  A    between atoms: C_22  and  C_25
REMARK   12  A    between atoms: C_26  and  C_31
REMARK                            x       y       z     vdW  Elec       q    Type
REMARK                         _______ _______ _______ _____ _____    ______ ____
ROOT
ATOM     11  C   UNL     1      -5.998 -11.486  15.833  0.00  0.00    -0.023 C 
ATOM     12  C   UNL     1      -5.649 -10.938  17.271  0.00  0.00    +0.007 C 
ATOM     13  C   UNL     1      -6.759 -11.102  18.379  0.00  0.00    +0.031 C 
ATOM     14  C   UNL     1      -4.892 -10.928  14.845  0.00  0.00    +0.032 C 
ATOM     15  C   UNL     1      -7.384 -10.927  15.417  0.00  0.00    +0.011 C 
ATOM     16  C   UNL     1      -4.235 -11.384  17.704  0.00  0.00    +0.007 C 
ATOM     17  C   UNL     1      -8.115 -10.581  17.815  0.00  0.00    +0.186 C 
ATOM     18  C   UNL     1      -3.447 -11.270  15.280  0.00  0.00    +0.119 C 
ATOM     19  C   UNL     1      -8.479 -11.161  16.452  0.00  0.00    +0.046 C 
ATOM     20  C   UNL     1      -3.171 -10.879  16.728  0.00  0.00    +0.032 C 
ATOM     21  C   UNL     1      -6.063 -13.031  15.758  0.00  0.00    +0.012 C 
ATOM     24  C   UNL     1      -6.392 -10.213  19.603  0.00  0.00    +0.017 C 
ENDROOT
BRANCH  18   4
ATOM      4  O   UNL     1      -3.177 -12.656  15.096  0.00  0.00    -0.391 OA
ATOM     38  H   UNL     1      -2.331 -12.853  15.532  0.00  0.00    +0.210 HD
ENDBRANCH  18   4
BRANCH  17   3
ATOM      3  O   UNL     1      -9.202 -10.870  18.696  0.00  0.00    -0.446 OA
BRANCH   3  27
ATOM      7  O   UNL     1     -10.214  -8.891  18.160  0.00  0.00    -0.226 OA
ATOM     10  N   UNL     1     -11.380 -10.651  19.172  0.00  0.00    -0.251 N 
ATOM     27  C   UNL     1     -10.277 -10.019  18.631  0.00  0.00    +0.405 C 
ATOM     40  H   UNL     1     -11.233 -11.596  19.515  0.00  0.00    +0.158 HD
BRANCH  10  32
ATOM      1 CL   UNL     1     -15.777  -9.396  16.895  0.00  0.00    -0.082 Cl
ATOM      2 CL   UNL     1     -16.877  -8.517  19.810  0.00  0.00    -0.082 Cl
ATOM     32  C   UNL     1     -12.693 -10.144  19.308  0.00  0.00    +0.038 A 
ATOM     33  C   UNL     1     -13.514 -10.024  18.187  0.00  0.00    +0.044 A 
ATOM     34  C   UNL     1     -13.167  -9.765  20.563  0.00  0.00    +0.025 A 
ATOM     35  C   UNL     1     -14.809  -9.524  18.321  0.00  0.00    +0.061 A 
ATOM     36  C   UNL     1     -14.462  -9.265  20.698  0.00  0.00    +0.023 A 
ATOM     37  C   UNL     1     -15.283  -9.144  19.577  0.00  0.00    +0.059 A 
ENDBRANCH  10  32
ENDBRANCH   3  27
ENDBRANCH  17   3
BRANCH  14  22
ATOM     22  C   UNL     1      -5.094 -11.305  13.368  0.00  0.00    +0.102 C 
BRANCH  22  25
ATOM      6  O   UNL     1      -6.022  -9.132  13.076  0.00  0.00    -0.276 OA
ATOM      9  N   UNL     1      -4.954 -10.076  11.255  0.00  0.00    -0.296 N 
ATOM     25  C   UNL     1      -5.405 -10.067  12.564  0.00  0.00    +0.216 C 
ATOM     26  C   UNL     1      -5.085  -8.920  10.366  0.00  0.00    +0.101 C 
ATOM     28  C   UNL     1      -4.219 -11.160  10.607  0.00  0.00    +0.108 C 
ATOM     29  C   UNL     1      -4.095  -9.215   9.236  0.00  0.00    +0.026 C 
ATOM     30  C   UNL     1      -4.101 -10.737   9.151  0.00  0.00    +0.021 C 
BRANCH  26  31
ATOM     31  C   UNL     1      -6.515  -8.767   9.854  0.00  0.00    +0.178 C 
BRANCH  31   8
ATOM      8  O   UNL     1      -6.486  -8.011   8.658  0.00  0.00    -0.393 OA
ATOM     41  H   UNL     1      -7.263  -8.270   8.135  0.00  0.00    +0.209 HD
ENDBRANCH  31   8
ENDBRANCH  26  31
ENDBRANCH  22  25
ENDBRANCH  14  22
BRANCH  13  23
ATOM     23  C   UNL     1      -6.891 -12.537  18.930  0.00  0.00    +0.166 C 
BRANCH  23   5
ATOM      5  O   UNL     1      -7.518 -12.461  20.192  0.00  0.00    -0.394 OA
ATOM     39  H   UNL     1      -8.246 -13.106  20.193  0.00  0.00    +0.209 HD
ENDBRANCH  23   5
ENDBRANCH  13  23
TORSDOF 10
ENDMDL
MODEL 10
REMARK VINA RESULT:      -6.1     24.374     27.987
REMARK  Name = 23899975
REMARK  12 active torsions:
REMARK  status: ('A' for Active; 'I' for Inactive)
REMARK    1  A    between atoms: O_3  and  C_17
REMARK    2  A    between atoms: O_3  and  C_27
REMARK    3  A    between atoms: O_4  and  C_18
REMARK    4  A    between atoms: O_5  and  C_23
REMARK    5  A    between atoms: O_8  and  C_31
REMARK    6  A    between atoms: N_10  and  C_32
REMARK    7  A    between atoms: C_11  and  C_21
REMARK    8  A    between atoms: C_13  and  C_23
REMARK    9  A    between atoms: C_13  and  C_24
REMARK   10  A    between atoms: C_14  and  C_22
REMARK   11  A    between atoms: C_22  and  C_25
REMARK   12  A    between atoms: C_26  and  C_31
REMARK                            x       y       z     vdW  Elec       q    Type
REMARK                         _______ _______ _______ _____ _____    ______ ____
ROOT
ATOM     11  C   UNL     1      11.877   5.488  -0.043  0.00  0.00    -0.023 C 
ATOM     12  C   UNL     1      11.941   4.016  -0.606  0.00  0.00    +0.007 C 
ATOM     13  C   UNL     1      11.875   3.854  -2.173  0.00  0.00    +0.031 C 
ATOM     14  C   UNL     1      11.636   5.376   1.520  0.00  0.00    +0.032 C 
ATOM     15  C   UNL     1      10.670   6.213  -0.695  0.00  0.00    +0.011 C 
ATOM     16  C   UNL     1      13.068   3.212   0.078  0.00  0.00    +0.007 C 
ATOM     17  C   UNL     1      10.675   4.689  -2.716  0.00  0.00    +0.186 C 
ATOM     18  C   UNL     1      12.688   4.504   2.244  0.00  0.00    +0.119 C 
ATOM     19  C   UNL     1      10.651   6.130  -2.217  0.00  0.00    +0.046 C 
ATOM     20  C   UNL     1      12.857   3.136   1.591  0.00  0.00    +0.032 C 
ATOM     21  C   UNL     1      13.150   6.319  -0.337  0.00  0.00    +0.012 C 
ATOM     24  C   UNL     1      11.599   2.363  -2.520  0.00  0.00    +0.017 C 
ENDROOT
BRANCH  18   4
ATOM      4  O   UNL     1      13.946   5.169   2.300  0.00  0.00    -0.391 OA
ATOM     38  H   UNL     1      13.851   5.936   2.890  0.00  0.00    +0.210 HD
ENDBRANCH  18   4
BRANCH  17   3
ATOM      3  O   UNL     1      10.666   4.739  -4.143  0.00  0.00    -0.446 OA
BRANCH   3  27
ATOM      7  O   UNL     1       9.292   3.173  -5.085  0.00  0.00    -0.226 OA
ATOM     10  N   UNL     1       8.681   5.427  -4.921  0.00  0.00    -0.251 N 
ATOM     27  C   UNL     1       9.508   4.333  -4.757  0.00  0.00    +0.405 C 
ATOM     40  H   UNL     1       9.040   6.316  -4.581  0.00  0.00    +0.158 HD
BRANCH  10  32
ATOM      1 CL   UNL     1       3.634   5.791  -4.224  0.00  0.00    -0.082 Cl
ATOM      2 CL   UNL     1       3.313   5.581  -7.438  0.00  0.00    -0.082 Cl
ATOM     32  C   UNL     1       7.395   5.466  -5.506  0.00  0.00    +0.038 A 
ATOM     33  C   UNL     1       6.265   5.595  -4.699  0.00  0.00    +0.044 A 
ATOM     34  C   UNL     1       7.256   5.375  -6.891  0.00  0.00    +0.025 A 
ATOM     35  C   UNL     1       4.996   5.633  -5.277  0.00  0.00    +0.061 A 
ATOM     36  C   UNL     1       5.987   5.413  -7.469  0.00  0.00    +0.023 A 
ATOM     37  C   UNL     1       4.857   5.542  -6.661  0.00  0.00    +0.059 A 
ENDBRANCH  10  32
ENDBRANCH   3  27
ENDBRANCH  17   3
BRANCH  14  22
ATOM     22  C   UNL     1      11.481   6.720   2.249  0.00  0.00    +0.102 C 
BRANCH  22  25
ATOM      6  O   UNL     1       9.130   7.097   2.238  0.00  0.00    -0.276 OA
ATOM      9  N   UNL     1      10.094   6.500   4.255  0.00  0.00    -0.296 N 
ATOM     25  C   UNL     1      10.123   6.792   2.901  0.00  0.00    +0.216 C 
ATOM     26  C   UNL     1       8.848   6.429   5.021  0.00  0.00    +0.101 C 
ATOM     28  C   UNL     1      11.243   6.134   5.080  0.00  0.00    +0.108 C 
ATOM     29  C   UNL     1       9.244   5.671   6.291  0.00  0.00    +0.026 C 
ATOM     30  C   UNL     1      10.701   6.069   6.499  0.00  0.00    +0.021 C 
BRANCH  26  31
ATOM     31  C   UNL     1       8.300   7.821   5.328  0.00  0.00    +0.178 C 
BRANCH  31   8
ATOM      8  O   UNL     1       7.665   7.784   6.592  0.00  0.00    -0.393 OA
ATOM     41  H   UNL     1       6.820   7.316   6.476  0.00  0.00    +0.209 HD
ENDBRANCH  31   8
ENDBRANCH  26  31
ENDBRANCH  22  25
ENDBRANCH  14  22
BRANCH  13  23
ATOM     23  C   UNL     1      13.187   4.217  -2.899  0.00  0.00    +0.166 C 
BRANCH  23   5
ATOM      5  O   UNL     1      13.375   3.288  -3.944  0.00  0.00    -0.394 OA
ATOM     39  H   UNL     1      14.269   2.920  -3.847  0.00  0.00    +0.209 HD
ENDBRANCH  23   5
ENDBRANCH  13  23
TORSDOF 10
ENDMDL
