MODEL 1
REMARK VINA RESULT:      -8.1      0.000      0.000
REMARK  Name = 28991177
REMARK  5 active torsions:
REMARK  status: ('A' for Active; 'I' for Inactive)
REMARK    1  A    between atoms: N_5  and  C_16
REMARK    2  A    between atoms: N_6  and  C_17
REMARK    3  A    between atoms: C_10  and  C_16
REMARK    4  A    between atoms: C_11  and  C_17
REMARK    5  A    between atoms: C_22  and  C_24
REMARK                            x       y       z     vdW  Elec       q    Type
REMARK                         _______ _______ _______ _____ _____    ______ ____
ROOT
ATOM      4  N   UNL     1      12.346   7.287  18.556  0.00  0.00    -0.298 NA
ATOM      9  C   UNL     1      14.191   9.113  18.401  0.00  0.00    -0.003 C 
ATOM     10  C   UNL     1      14.647   7.944  19.303  0.00  0.00    +0.020 C 
ATOM     11  C   UNL     1      11.773   8.619  18.888  0.00  0.00    +0.074 C 
ATOM     12  C   UNL     1      12.877   9.698  18.949  0.00  0.00    +0.024 C 
ATOM     13  C   UNL     1      13.465   6.964  19.475  0.00  0.00    +0.089 C 
ATOM     14  C   UNL     1      13.881   8.514  17.015  0.00  0.00    +0.019 C 
ATOM     15  C   UNL     1      12.886   7.352  17.176  0.00  0.00    +0.085 C 
ENDROOT
BRANCH  10  16
ATOM     16  C   UNL     1      15.199   8.403  20.650  0.00  0.00    +0.089 C 
BRANCH  16   5
ATOM      5  N   UNL     1      16.429   7.683  20.983  0.00  0.00    -0.299 NA
ATOM      7  N   UNL     1      19.182   6.969  20.726  0.00  0.00    -0.313 N 
ATOM      8  N   UNL     1      20.751   5.197  20.759  0.00  0.00    -0.240 NA
ATOM     18  C   UNL     1      17.481   8.622  21.390  0.00  0.00    +0.103 C 
ATOM     19  C   UNL     1      16.885   6.887  19.837  0.00  0.00    +0.103 C 
ATOM     20  C   UNL     1      18.756   7.878  21.794  0.00  0.00    +0.122 C 
ATOM     21  C   UNL     1      18.139   6.085  20.190  0.00  0.00    +0.122 C 
ATOM     23  C   UNL     1      20.509   6.524  20.681  0.00  0.00    +0.121 A 
ATOM     25  C   UNL     1      21.497   7.488  20.557  0.00  0.00    +0.043 A 
ATOM     28  C   UNL     1      22.819   7.060  20.512  0.00  0.00    +0.005 A 
ATOM     29  C   UNL     1      22.049   4.820  20.712  0.00  0.00    +0.113 A 
ATOM     32  C   UNL     1      23.108   5.703  20.590  0.00  0.00    +0.020 A 
ENDBRANCH  16   5
ENDBRANCH  10  16
BRANCH  11  17
ATOM     17  C   UNL     1      10.934   8.591  20.168  0.00  0.00    +0.123 C 
BRANCH  17   6
ATOM      1  O   UNL     1      10.883   8.536  23.039  0.00  0.00    -0.270 OA
ATOM      6  N   UNL     1      11.327   9.665  21.064  0.00  0.00    -0.310 N 
ATOM     22  C   UNL     1      11.266   9.537  22.438  0.00  0.00    +0.244 C 
ATOM     35  H   UNL     1      11.590  10.544  20.632  0.00  0.00    +0.149 HD
BRANCH  22  24
ATOM      2  O   UNL     1      10.447  13.190  25.646  0.00  0.00    -0.453 OA
ATOM      3  O   UNL     1      12.686  14.049  25.416  0.00  0.00    -0.453 OA
ATOM     24  C   UNL     1      11.678  10.735  23.214  0.00  0.00    +0.040 A 
ATOM     26  C   UNL     1      10.764  11.352  24.071  0.00  0.00    +0.062 A 
ATOM     27  C   UNL     1      12.985  11.236  23.079  0.00  0.00    +0.017 A 
ATOM     30  C   UNL     1      11.192  12.462  24.772  0.00  0.00    +0.167 A 
ATOM     31  C   UNL     1      13.393  12.360  23.801  0.00  0.00    +0.050 A 
ATOM     33  C   UNL     1      12.471  12.952  24.640  0.00  0.00    +0.166 A 
ATOM     34  C   UNL     1      11.400  14.194  26.051  0.00  0.00    +0.466 C 
ENDBRANCH  22  24
ENDBRANCH  17   6
ENDBRANCH  11  17
TORSDOF 5
ENDMDL
MODEL 2
REMARK VINA RESULT:      -7.8     16.469     20.432
REMARK  Name = 28991177
REMARK  5 active torsions:
REMARK  status: ('A' for Active; 'I' for Inactive)
REMARK    1  A    between atoms: N_5  and  C_16
REMARK    2  A    between atoms: N_6  and  C_17
REMARK    3  A    between atoms: C_10  and  C_16
REMARK    4  A    between atoms: C_11  and  C_17
REMARK    5  A    between atoms: C_22  and  C_24
REMARK                            x       y       z     vdW  Elec       q    Type
REMARK                         _______ _______ _______ _____ _____    ______ ____
ROOT
ATOM      4  N   UNL     1      10.063   6.649   7.425  0.00  0.00    -0.298 NA
ATOM      9  C   UNL     1       9.593   5.077   5.407  0.00  0.00    -0.003 C 
ATOM     10  C   UNL     1      10.911   5.859   5.201  0.00  0.00    +0.020 C 
ATOM     11  C   UNL     1       8.689   6.883   6.906  0.00  0.00    +0.074 C 
ATOM     12  C   UNL     1       8.437   6.070   5.616  0.00  0.00    +0.024 C 
ATOM     13  C   UNL     1      11.064   6.876   6.354  0.00  0.00    +0.089 C 
ATOM     14  C   UNL     1       9.749   4.275   6.713  0.00  0.00    +0.019 C 
ATOM     15  C   UNL     1      10.156   5.230   7.849  0.00  0.00    +0.085 C 
ENDROOT
BRANCH  10  16
ATOM     16  C   UNL     1      11.002   6.536   3.836  0.00  0.00    +0.089 C 
BRANCH  16   5
ATOM      5  N   UNL     1      11.012   5.544   2.761  0.00  0.00    -0.299 NA
ATOM      7  N   UNL     1      11.543   4.548   0.138  0.00  0.00    -0.313 N 
ATOM      8  N   UNL     1      10.720   3.249  -1.662  0.00  0.00    -0.240 NA
ATOM     18  C   UNL     1      12.388   5.253   2.342  0.00  0.00    +0.103 C 
ATOM     19  C   UNL     1      10.230   6.022   1.613  0.00  0.00    +0.103 C 
ATOM     20  C   UNL     1      12.415   4.175   1.256  0.00  0.00    +0.122 C 
ATOM     21  C   UNL     1      10.185   4.969   0.504  0.00  0.00    +0.122 C 
ATOM     23  C   UNL     1      11.734   3.959  -1.118  0.00  0.00    +0.121 A 
ATOM     25  C   UNL     1      12.964   4.146  -1.726  0.00  0.00    +0.043 A 
ATOM     28  C   UNL     1      13.168   3.566  -2.974  0.00  0.00    +0.005 A 
ATOM     29  C   UNL     1      10.955   2.700  -2.875  0.00  0.00    +0.113 A 
ATOM     32  C   UNL     1      12.149   2.828  -3.565  0.00  0.00    +0.020 A 
ENDBRANCH  16   5
ENDBRANCH  10  16
BRANCH  11  17
ATOM     17  C   UNL     1       8.385   8.370   6.709  0.00  0.00    +0.123 C 
BRANCH  17   6
ATOM      1  O   UNL     1       8.827  10.425   4.751  0.00  0.00    -0.270 OA
ATOM      6  N   UNL     1       7.628   8.583   5.487  0.00  0.00    -0.310 N 
ATOM     22  C   UNL     1       7.923   9.605   4.607  0.00  0.00    +0.244 C 
ATOM     35  H   UNL     1       6.825   7.982   5.339  0.00  0.00    +0.149 HD
BRANCH  22  24
ATOM      2  O   UNL     1       3.574  10.379   2.417  0.00  0.00    -0.453 OA
ATOM      3  O   UNL     1       4.486  10.011   0.217  0.00  0.00    -0.453 OA
ATOM     24  C   UNL     1       7.039   9.704   3.417  0.00  0.00    +0.040 A 
ATOM     26  C   UNL     1       5.686  10.012   3.584  0.00  0.00    +0.062 A 
ATOM     27  C   UNL     1       7.571   9.489   2.133  0.00  0.00    +0.017 A 
ATOM     30  C   UNL     1       4.904  10.094   2.450  0.00  0.00    +0.167 A 
ATOM     31  C   UNL     1       6.757   9.579   1.002  0.00  0.00    +0.050 A 
ATOM     33  C   UNL     1       5.425   9.883   1.194  0.00  0.00    +0.166 A 
ATOM     34  C   UNL     1       3.316  10.326   0.998  0.00  0.00    +0.466 C 
ENDBRANCH  22  24
ENDBRANCH  17   6
ENDBRANCH  11  17
TORSDOF 5
ENDMDL
MODEL 3
REMARK VINA RESULT:      -7.7     14.041     17.653
REMARK  Name = 28991177
REMARK  5 active torsions:
REMARK  status: ('A' for Active; 'I' for Inactive)
REMARK    1  A    between atoms: N_5  and  C_16
REMARK    2  A    between atoms: N_6  and  C_17
REMARK    3  A    between atoms: C_10  and  C_16
REMARK    4  A    between atoms: C_11  and  C_17
REMARK    5  A    between atoms: C_22  and  C_24
REMARK                            x       y       z     vdW  Elec       q    Type
REMARK                         _______ _______ _______ _____ _____    ______ ____
ROOT
ATOM      4  N   UNL     1      10.251   6.593   7.394  0.00  0.00    -0.298 NA
ATOM      9  C   UNL     1       9.521   5.122   5.377  0.00  0.00    -0.003 C 
ATOM     10  C   UNL     1      10.912   5.749   5.127  0.00  0.00    +0.020 C 
ATOM     11  C   UNL     1       8.895   6.995   6.935  0.00  0.00    +0.074 C 
ATOM     12  C   UNL     1       8.499   6.240   5.646  0.00  0.00    +0.024 C 
ATOM     13  C   UNL     1      11.229   6.721   6.286  0.00  0.00    +0.089 C 
ATOM     14  C   UNL     1       9.634   4.285   6.666  0.00  0.00    +0.019 C 
ATOM     15  C   UNL     1      10.194   5.167   7.796  0.00  0.00    +0.085 C 
ENDROOT
BRANCH  10  16
ATOM     16  C   UNL     1      11.028   6.436   3.769  0.00  0.00    +0.089 C 
BRANCH  16   5
ATOM      5  N   UNL     1      10.978   5.456   2.683  0.00  0.00    -0.299 NA
ATOM      7  N   UNL     1      11.459   4.450   0.054  0.00  0.00    -0.313 N 
ATOM      8  N   UNL     1      10.561   3.229  -1.765  0.00  0.00    -0.240 NA
ATOM     18  C   UNL     1      12.334   5.073   2.271  0.00  0.00    +0.103 C 
ATOM     19  C   UNL     1      10.240   5.997   1.535  0.00  0.00    +0.103 C 
ATOM     20  C   UNL     1      12.294   4.006   1.174  0.00  0.00    +0.122 C 
ATOM     21  C   UNL     1      10.130   4.961   0.414  0.00  0.00    +0.122 C 
ATOM     23  C   UNL     1      11.618   3.862  -1.206  0.00  0.00    +0.121 A 
ATOM     25  C   UNL     1      12.863   3.969  -1.804  0.00  0.00    +0.043 A 
ATOM     28  C   UNL     1      13.036   3.388  -3.056  0.00  0.00    +0.005 A 
ATOM     29  C   UNL     1      10.768   2.677  -2.982  0.00  0.00    +0.113 A 
ATOM     32  C   UNL     1      11.972   2.729  -3.662  0.00  0.00    +0.020 A 
ENDBRANCH  16   5
ENDBRANCH  10  16
BRANCH  11  17
ATOM     17  C   UNL     1       8.760   8.511   6.769  0.00  0.00    +0.123 C 
BRANCH  17   6
ATOM      1  O   UNL     1       9.347  11.309   7.045  0.00  0.00    -0.270 OA
ATOM      6  N   UNL     1       9.158   9.199   7.986  0.00  0.00    -0.310 N 
ATOM     22  C   UNL     1       9.418  10.555   8.013  0.00  0.00    +0.244 C 
ATOM     35  H   UNL     1       9.301   8.623   8.808  0.00  0.00    +0.149 HD
BRANCH  22  24
ATOM      2  O   UNL     1      12.806  12.043  11.272  0.00  0.00    -0.453 OA
ATOM      3  O   UNL     1      11.140  12.607  12.919  0.00  0.00    -0.453 OA
ATOM     24  C   UNL     1       9.840  11.102   9.328  0.00  0.00    +0.040 A 
ATOM     26  C   UNL     1      11.198  11.287   9.598  0.00  0.00    +0.062 A 
ATOM     27  C   UNL     1       8.868  11.431  10.289  0.00  0.00    +0.017 A 
ATOM     30  C   UNL     1      11.542  11.798  10.833  0.00  0.00    +0.167 A 
ATOM     31  C   UNL     1       9.243  11.948  11.532  0.00  0.00    +0.050 A 
ATOM     33  C   UNL     1      10.590  12.120  11.774  0.00  0.00    +0.166 A 
ATOM     34  C   UNL     1      12.544  12.556  12.594  0.00  0.00    +0.466 C 
ENDBRANCH  22  24
ENDBRANCH  17   6
ENDBRANCH  11  17
TORSDOF 5
ENDMDL
MODEL 4
REMARK VINA RESULT:      -7.5      1.336      2.221
REMARK  Name = 28991177
REMARK  5 active torsions:
REMARK  status: ('A' for Active; 'I' for Inactive)
REMARK    1  A    between atoms: N_5  and  C_16
REMARK    2  A    between atoms: N_6  and  C_17
REMARK    3  A    between atoms: C_10  and  C_16
REMARK    4  A    between atoms: C_11  and  C_17
REMARK    5  A    between atoms: C_22  and  C_24
REMARK                            x       y       z     vdW  Elec       q    Type
REMARK                         _______ _______ _______ _____ _____    ______ ____
ROOT
ATOM      4  N   UNL     1      13.173   7.057  19.687  0.00  0.00    -0.298 NA
ATOM      9  C   UNL     1      14.937   8.901  19.182  0.00  0.00    -0.003 C 
ATOM     10  C   UNL     1      15.620   7.603  19.672  0.00  0.00    +0.020 C 
ATOM     11  C   UNL     1      12.817   8.312  20.402  0.00  0.00    +0.074 C 
ATOM     12  C   UNL     1      13.926   9.376  20.240  0.00  0.00    +0.024 C 
ATOM     13  C   UNL     1      14.525   6.598  20.092  0.00  0.00    +0.089 C 
ATOM     14  C   UNL     1      14.137   8.534  17.917  0.00  0.00    +0.019 C 
ATOM     15  C   UNL     1      13.203   7.352  18.233  0.00  0.00    +0.085 C 
ENDROOT
BRANCH  10  16
ATOM     16  C   UNL     1      16.627   7.840  20.795  0.00  0.00    +0.089 C 
BRANCH  16   5
ATOM      5  N   UNL     1      17.948   7.328  20.428  0.00  0.00    -0.299 NA
ATOM      7  N   UNL     1      20.313   5.757  20.737  0.00  0.00    -0.313 N 
ATOM      8  N   UNL     1      22.669   5.712  20.517  0.00  0.00    -0.240 NA
ATOM     18  C   UNL     1      17.903   5.872  20.242  0.00  0.00    +0.103 C 
ATOM     19  C   UNL     1      18.937   7.671  21.458  0.00  0.00    +0.103 C 
ATOM     20  C   UNL     1      19.265   5.331  19.804  0.00  0.00    +0.122 C 
ATOM     21  C   UNL     1      20.334   7.190  21.059  0.00  0.00    +0.122 C 
ATOM     23  C   UNL     1      21.521   5.053  20.792  0.00  0.00    +0.121 A 
ATOM     25  C   UNL     1      21.459   3.710  21.129  0.00  0.00    +0.043 A 
ATOM     28  C   UNL     1      22.651   2.998  21.187  0.00  0.00    +0.005 A 
ATOM     29  C   UNL     1      23.808   4.986  20.583  0.00  0.00    +0.113 A 
ATOM     32  C   UNL     1      23.853   3.641  20.911  0.00  0.00    +0.020 A 
ENDBRANCH  16   5
ENDBRANCH  10  16
BRANCH  11  17
ATOM     17  C   UNL     1      12.475   8.068  21.874  0.00  0.00    +0.123 C 
BRANCH  17   6
ATOM      1  O   UNL     1      10.292   9.754  22.673  0.00  0.00    -0.270 OA
ATOM      6  N   UNL     1      12.565   9.303  22.635  0.00  0.00    -0.310 N 
ATOM     22  C   UNL     1      11.449  10.043  22.970  0.00  0.00    +0.244 C 
ATOM     35  H   UNL     1      13.498   9.633  22.855  0.00  0.00    +0.149 HD
BRANCH  22  24
ATOM      2  O   UNL     1      14.264  13.867  24.298  0.00  0.00    -0.453 OA
ATOM      3  O   UNL     1      12.567  14.757  25.759  0.00  0.00    -0.453 OA
ATOM     24  C   UNL     1      11.712  11.294  23.727  0.00  0.00    +0.040 A 
ATOM     26  C   UNL     1      12.940  11.944  23.585  0.00  0.00    +0.062 A 
ATOM     27  C   UNL     1      10.721  11.813  24.580  0.00  0.00    +0.017 A 
ATOM     30  C   UNL     1      13.139  13.103  24.307  0.00  0.00    +0.167 A 
ATOM     31  C   UNL     1      10.948  12.988  25.300  0.00  0.00    +0.050 A 
ATOM     33  C   UNL     1      12.169  13.611  25.142  0.00  0.00    +0.166 A 
ATOM     34  C   UNL     1      13.894  14.914  25.219  0.00  0.00    +0.466 C 
ENDBRANCH  22  24
ENDBRANCH  17   6
ENDBRANCH  11  17
TORSDOF 5
ENDMDL
MODEL 5
REMARK VINA RESULT:      -7.5     28.090     30.710
REMARK  Name = 28991177
REMARK  5 active torsions:
REMARK  status: ('A' for Active; 'I' for Inactive)
REMARK    1  A    between atoms: N_5  and  C_16
REMARK    2  A    between atoms: N_6  and  C_17
REMARK    3  A    between atoms: C_10  and  C_16
REMARK    4  A    between atoms: C_11  and  C_17
REMARK    5  A    between atoms: C_22  and  C_24
REMARK                            x       y       z     vdW  Elec       q    Type
REMARK                         _______ _______ _______ _____ _____    ______ ____
ROOT
ATOM      4  N   UNL     1      -9.002 -12.813  19.945  0.00  0.00    -0.298 NA
ATOM      9  C   UNL     1      -8.065 -12.870  17.519  0.00  0.00    -0.003 C 
ATOM     10  C   UNL     1      -6.942 -12.564  18.537  0.00  0.00    +0.020 C 
ATOM     11  C   UNL     1      -9.804 -11.920  19.068  0.00  0.00    +0.074 C 
ATOM     12  C   UNL     1      -9.180 -11.819  17.658  0.00  0.00    +0.024 C 
ATOM     13  C   UNL     1      -7.577 -12.400  19.936  0.00  0.00    +0.089 C 
ATOM     14  C   UNL     1      -8.668 -14.231  17.916  0.00  0.00    +0.019 C 
ATOM     15  C   UNL     1      -9.086 -14.189  19.396  0.00  0.00    +0.085 C 
ENDROOT
BRANCH  10  16
ATOM     16  C   UNL     1      -6.098 -11.350  18.156  0.00  0.00    +0.089 C 
BRANCH  16   5
ATOM      5  N   UNL     1      -5.835 -11.329  16.717  0.00  0.00    -0.299 NA
ATOM      7  N   UNL     1      -4.410 -10.648  14.337  0.00  0.00    -0.313 N 
ATOM      8  N   UNL     1      -4.596  -9.964  12.078  0.00  0.00    -0.240 NA
ATOM     18  C   UNL     1      -4.540 -11.954  16.421  0.00  0.00    +0.103 C 
ATOM     19  C   UNL     1      -5.851  -9.950  16.211  0.00  0.00    +0.103 C 
ATOM     20  C   UNL     1      -4.278 -11.989  14.913  0.00  0.00    +0.122 C 
ATOM     21  C   UNL     1      -5.634  -9.919  14.696  0.00  0.00    +0.122 C 
ATOM     23  C   UNL     1      -3.811 -10.359  13.105  0.00  0.00    +0.121 A 
ATOM     25  C   UNL     1      -2.435 -10.500  13.021  0.00  0.00    +0.043 A 
ATOM     28  C   UNL     1      -1.826 -10.217  11.803  0.00  0.00    +0.005 A 
ATOM     29  C   UNL     1      -3.968  -9.698  10.911  0.00  0.00    +0.113 A 
ATOM     32  C   UNL     1      -2.600  -9.808  10.724  0.00  0.00    +0.020 A 
ENDBRANCH  16   5
ENDBRANCH  10  16
BRANCH  11  17
ATOM     17  C   UNL     1     -10.028 -10.539  19.690  0.00  0.00    +0.123 C 
BRANCH  17   6
ATOM      1  O   UNL     1     -12.556  -9.682  18.631  0.00  0.00    -0.270 OA
ATOM      6  N   UNL     1     -10.243  -9.538  18.659  0.00  0.00    -0.310 N 
ATOM     22  C   UNL     1     -11.506  -9.196  18.218  0.00  0.00    +0.244 C 
ATOM     35  H   UNL     1      -9.414  -9.145  18.228  0.00  0.00    +0.149 HD
BRANCH  22  24
ATOM      2  O   UNL     1     -13.835  -6.569  14.756  0.00  0.00    -0.453 OA
ATOM      3  O   UNL     1     -11.830  -5.378  14.148  0.00  0.00    -0.453 OA
ATOM     24  C   UNL     1     -11.555  -8.175  17.140  0.00  0.00    +0.040 A 
ATOM     26  C   UNL     1     -12.763  -7.912  16.489  0.00  0.00    +0.062 A 
ATOM     27  C   UNL     1     -10.385  -7.480  16.785  0.00  0.00    +0.017 A 
ATOM     30  C   UNL     1     -12.761  -6.955  15.495  0.00  0.00    +0.167 A 
ATOM     31  C   UNL     1     -10.410  -6.515  15.775  0.00  0.00    +0.050 A 
ATOM     33  C   UNL     1     -11.615  -6.275  15.148  0.00  0.00    +0.166 A 
ATOM     34  C   UNL     1     -13.238  -5.568  13.905  0.00  0.00    +0.466 C 
ENDBRANCH  22  24
ENDBRANCH  17   6
ENDBRANCH  11  17
TORSDOF 5
ENDMDL
MODEL 6
REMARK VINA RESULT:      -7.3     27.922     31.009
REMARK  Name = 28991177
REMARK  5 active torsions:
REMARK  status: ('A' for Active; 'I' for Inactive)
REMARK    1  A    between atoms: N_5  and  C_16
REMARK    2  A    between atoms: N_6  and  C_17
REMARK    3  A    between atoms: C_10  and  C_16
REMARK    4  A    between atoms: C_11  and  C_17
REMARK    5  A    between atoms: C_22  and  C_24
REMARK                            x       y       z     vdW  Elec       q    Type
REMARK                         _______ _______ _______ _____ _____    ______ ____
ROOT
ATOM      4  N   UNL     1      -4.263 -12.109  17.693  0.00  0.00    -0.298 NA
ATOM      9  C   UNL     1      -6.171 -10.398  17.255  0.00  0.00    -0.003 C 
ATOM     10  C   UNL     1      -6.508 -11.771  16.630  0.00  0.00    +0.020 C 
ATOM     11  C   UNL     1      -3.705 -10.867  17.095  0.00  0.00    +0.074 C 
ATOM     12  C   UNL     1      -4.833  -9.893  16.687  0.00  0.00    +0.024 C 
ATOM     13  C   UNL     1      -5.285 -12.700  16.795  0.00  0.00    +0.089 C 
ATOM     14  C   UNL     1      -5.968 -10.631  18.764  0.00  0.00    +0.019 C 
ATOM     15  C   UNL     1      -4.925 -11.745  18.969  0.00  0.00    +0.085 C 
ENDROOT
BRANCH  10  16
ATOM     16  C   UNL     1      -6.952 -11.677  15.173  0.00  0.00    +0.089 C 
BRANCH  16   5
ATOM      5  N   UNL     1      -8.307 -11.134  15.074  0.00  0.00    -0.299 NA
ATOM      7  N   UNL     1     -10.387  -9.223  15.496  0.00  0.00    -0.313 N 
ATOM      8  N   UNL     1     -12.673  -8.910  16.024  0.00  0.00    -0.240 NA
ATOM     18  C   UNL     1      -8.299  -9.855  14.353  0.00  0.00    +0.103 C 
ATOM     19  C   UNL     1      -8.887 -10.951  16.411  0.00  0.00    +0.103 C 
ATOM     20  C   UNL     1      -9.718  -9.304  14.194  0.00  0.00    +0.122 C 
ATOM     21  C   UNL     1     -10.325 -10.437  16.320  0.00  0.00    +0.122 C 
ATOM     23  C   UNL     1     -11.488  -8.373  15.658  0.00  0.00    +0.121 A 
ATOM     25  C   UNL     1     -11.285  -7.022  15.431  0.00  0.00    +0.043 A 
ATOM     28  C   UNL     1     -12.369  -6.165  15.588  0.00  0.00    +0.005 A 
ATOM     29  C   UNL     1     -13.704  -8.046  16.167  0.00  0.00    +0.113 A 
ATOM     32  C   UNL     1     -13.605  -6.680  15.963  0.00  0.00    +0.020 A 
ENDBRANCH  16   5
ENDBRANCH  10  16
BRANCH  11  17
ATOM     17  C   UNL     1      -2.755 -11.156  15.930  0.00  0.00    +0.123 C 
BRANCH  17   6
ATOM      1  O   UNL     1      -1.864 -11.767  13.269  0.00  0.00    -0.270 OA
ATOM      6  N   UNL     1      -3.277 -10.604  14.691  0.00  0.00    -0.310 N 
ATOM     22  C   UNL     1      -2.777 -10.967  13.456  0.00  0.00    +0.244 C 
ATOM     35  H   UNL     1      -3.988  -9.887  14.777  0.00  0.00    +0.149 HD
BRANCH  22  24
ATOM      2  O   UNL     1      -6.617  -9.077  11.007  0.00  0.00    -0.453 OA
ATOM      3  O   UNL     1      -5.251  -8.438   9.128  0.00  0.00    -0.453 OA
ATOM     24  C   UNL     1      -3.401 -10.293  12.288  0.00  0.00    +0.040 A 
ATOM     26  C   UNL     1      -4.774 -10.035  12.290  0.00  0.00    +0.062 A 
ATOM     27  C   UNL     1      -2.604  -9.920  11.191  0.00  0.00    +0.017 A 
ATOM     30  C   UNL     1      -5.309  -9.407  11.184  0.00  0.00    +0.167 A 
ATOM     31  C   UNL     1      -3.170  -9.285  10.084  0.00  0.00    +0.050 A 
ATOM     33  C   UNL     1      -4.528  -9.041  10.110  0.00  0.00    +0.166 A 
ATOM     34  C   UNL     1      -6.572  -8.463   9.703  0.00  0.00    +0.466 C 
ENDBRANCH  22  24
ENDBRANCH  17   6
ENDBRANCH  11  17
TORSDOF 5
ENDMDL
MODEL 7
REMARK VINA RESULT:      -7.2     26.849     30.962
REMARK  Name = 28991177
REMARK  5 active torsions:
REMARK  status: ('A' for Active; 'I' for Inactive)
REMARK    1  A    between atoms: N_5  and  C_16
REMARK    2  A    between atoms: N_6  and  C_17
REMARK    3  A    between atoms: C_10  and  C_16
REMARK    4  A    between atoms: C_11  and  C_17
REMARK    5  A    between atoms: C_22  and  C_24
REMARK                            x       y       z     vdW  Elec       q    Type
REMARK                         _______ _______ _______ _____ _____    ______ ____
ROOT
ATOM      4  N   UNL     1     -16.620   3.571  24.096  0.00  0.00    -0.298 NA
ATOM      9  C   UNL     1     -17.538   5.038  22.155  0.00  0.00    -0.003 C 
ATOM     10  C   UNL     1     -15.994   5.098  22.209  0.00  0.00    +0.020 C 
ATOM     11  C   UNL     1     -17.659   4.503  24.610  0.00  0.00    +0.074 C 
ATOM     12  C   UNL     1     -18.114   5.488  23.509  0.00  0.00    +0.024 C 
ATOM     13  C   UNL     1     -15.515   4.330  23.461  0.00  0.00    +0.089 C 
ATOM     14  C   UNL     1     -17.921   3.558  21.964  0.00  0.00    +0.019 C 
ATOM     15  C   UNL     1     -17.247   2.714  23.060  0.00  0.00    +0.085 C 
ENDROOT
BRANCH  10  16
ATOM     16  C   UNL     1     -15.445   6.522  22.178  0.00  0.00    +0.089 C 
BRANCH  16   5
ATOM      5  N   UNL     1     -14.477   6.685  21.094  0.00  0.00    -0.299 NA
ATOM      7  N   UNL     1     -12.701   8.119  19.377  0.00  0.00    -0.313 N 
ATOM      8  N   UNL     1     -11.903   8.368  17.162  0.00  0.00    -0.240 NA
ATOM     18  C   UNL     1     -13.208   7.212  21.610  0.00  0.00    +0.103 C 
ATOM     19  C   UNL     1     -15.008   7.583  20.060  0.00  0.00    +0.103 C 
ATOM     20  C   UNL     1     -12.168   7.334  20.494  0.00  0.00    +0.122 C 
ATOM     21  C   UNL     1     -14.028   7.716  18.892  0.00  0.00    +0.122 C 
ATOM     23  C   UNL     1     -11.822   8.717  18.466  0.00  0.00    +0.121 A 
ATOM     25  C   UNL     1     -10.916   9.637  18.969  0.00  0.00    +0.043 A 
ATOM     28  C   UNL     1     -10.036  10.238  18.076  0.00  0.00    +0.005 A 
ATOM     29  C   UNL     1     -11.031   8.973  16.324  0.00  0.00    +0.113 A 
ATOM     32  C   UNL     1     -10.089   9.905  16.727  0.00  0.00    +0.020 A 
ENDBRANCH  16   5
ENDBRANCH  10  16
BRANCH  11  17
ATOM     17  C   UNL     1     -17.211   5.235  25.878  0.00  0.00    +0.123 C 
BRANCH  17   6
ATOM      1  O   UNL     1     -17.922   4.716  28.611  0.00  0.00    -0.270 OA
ATOM      6  N   UNL     1     -16.543   4.322  26.790  0.00  0.00    -0.310 N 
ATOM     22  C   UNL     1     -16.967   4.143  28.092  0.00  0.00    +0.244 C 
ATOM     35  H   UNL     1     -15.706   3.867  26.445  0.00  0.00    +0.149 HD
BRANCH  22  24
ATOM      2  O   UNL     1     -16.103  -0.264  30.127  0.00  0.00    -0.453 OA
ATOM      3  O   UNL     1     -14.036   0.472  31.122  0.00  0.00    -0.453 OA
ATOM     24  C   UNL     1     -16.162   3.194  28.904  0.00  0.00    +0.040 A 
ATOM     26  C   UNL     1     -16.610   1.883  29.083  0.00  0.00    +0.062 A 
ATOM     27  C   UNL     1     -14.956   3.624  29.485  0.00  0.00    +0.017 A 
ATOM     30  C   UNL     1     -15.829   1.038  29.844  0.00  0.00    +0.167 A 
ATOM     31  C   UNL     1     -14.184   2.748  30.251  0.00  0.00    +0.050 A 
ATOM     33  C   UNL     1     -14.648   1.459  30.412  0.00  0.00    +0.166 A 
ATOM     34  C   UNL     1     -14.962  -0.617  30.936  0.00  0.00    +0.466 C 
ENDBRANCH  22  24
ENDBRANCH  17   6
ENDBRANCH  11  17
TORSDOF 5
ENDMDL
MODEL 8
REMARK VINA RESULT:      -7.2     27.940     30.534
REMARK  Name = 28991177
REMARK  5 active torsions:
REMARK  status: ('A' for Active; 'I' for Inactive)
REMARK    1  A    between atoms: N_5  and  C_16
REMARK    2  A    between atoms: N_6  and  C_17
REMARK    3  A    between atoms: C_10  and  C_16
REMARK    4  A    between atoms: C_11  and  C_17
REMARK    5  A    between atoms: C_22  and  C_24
REMARK                            x       y       z     vdW  Elec       q    Type
REMARK                         _______ _______ _______ _____ _____    ______ ____
ROOT
ATOM      4  N   UNL     1      -2.062 -11.946  13.319  0.00  0.00    -0.298 NA
ATOM      9  C   UNL     1      -4.024 -11.950  11.612  0.00  0.00    -0.003 C 
ATOM     10  C   UNL     1      -2.922 -10.956  11.182  0.00  0.00    +0.020 C 
ATOM     11  C   UNL     1      -3.353 -11.737  14.027  0.00  0.00    +0.074 C 
ATOM     12  C   UNL     1      -4.518 -11.586  13.023  0.00  0.00    +0.024 C 
ATOM     13  C   UNL     1      -1.856 -10.889  12.299  0.00  0.00    +0.089 C 
ATOM     14  C   UNL     1      -3.363 -13.339  11.703  0.00  0.00    +0.019 C 
ATOM     15  C   UNL     1      -2.130 -13.254  12.621  0.00  0.00    +0.085 C 
ENDROOT
BRANCH  10  16
ATOM     16  C   UNL     1      -3.462  -9.571  10.835  0.00  0.00    +0.089 C 
BRANCH  16   5
ATOM      5  N   UNL     1      -4.750  -9.670  10.149  0.00  0.00    -0.299 NA
ATOM      7  N   UNL     1      -6.988  -8.714   8.653  0.00  0.00    -0.313 N 
ATOM      8  N   UNL     1      -9.339  -8.792   8.393  0.00  0.00    -0.240 NA
ATOM     18  C   UNL     1      -4.604  -9.331   8.728  0.00  0.00    +0.103 C 
ATOM     19  C   UNL     1      -5.737  -8.782  10.776  0.00  0.00    +0.103 C 
ATOM     20  C   UNL     1      -5.934  -9.485   7.986  0.00  0.00    +0.122 C 
ATOM     21  C   UNL     1      -7.105  -8.919  10.103  0.00  0.00    +0.122 C 
ATOM     23  C   UNL     1      -8.140  -8.357   7.944  0.00  0.00    +0.121 A 
ATOM     25  C   UNL     1      -7.973  -7.571   6.816  0.00  0.00    +0.043 A 
ATOM     28  C   UNL     1      -9.110  -7.208   6.101  0.00  0.00    +0.005 A 
ATOM     29  C   UNL     1     -10.421  -8.420   7.672  0.00  0.00    +0.113 A 
ATOM     32  C   UNL     1     -10.360  -7.637   6.531  0.00  0.00    +0.020 A 
ENDBRANCH  16   5
ENDBRANCH  10  16
BRANCH  11  17
ATOM     17  C   UNL     1      -3.296 -10.566  15.011  0.00  0.00    +0.123 C 
BRANCH  17   6
ATOM      1  O   UNL     1      -4.117 -11.315  17.659  0.00  0.00    -0.270 OA
ATOM      6  N   UNL     1      -4.598 -10.337  15.614  0.00  0.00    -0.310 N 
ATOM     22  C   UNL     1      -4.893 -10.737  16.902  0.00  0.00    +0.244 C 
ATOM     35  H   UNL     1      -5.308  -9.923  15.019  0.00  0.00    +0.149 HD
BRANCH  22  24
ATOM      2  O   UNL     1      -8.720 -11.331  19.954  0.00  0.00    -0.453 OA
ATOM      3  O   UNL     1     -10.080  -9.755  18.741  0.00  0.00    -0.453 OA
ATOM     24  C   UNL     1      -6.277 -10.452  17.362  0.00  0.00    +0.040 A 
ATOM     26  C   UNL     1      -6.777 -11.099  18.494  0.00  0.00    +0.062 A 
ATOM     27  C   UNL     1      -7.071  -9.532  16.654  0.00  0.00    +0.017 A 
ATOM     30  C   UNL     1      -8.067 -10.802  18.885  0.00  0.00    +0.167 A 
ATOM     31  C   UNL     1      -8.374  -9.249  17.070  0.00  0.00    +0.050 A 
ATOM     33  C   UNL     1      -8.844  -9.901  18.191  0.00  0.00    +0.166 A 
ATOM     34  C   UNL     1      -9.995 -10.662  19.858  0.00  0.00    +0.466 C 
ENDBRANCH  22  24
ENDBRANCH  17   6
ENDBRANCH  11  17
TORSDOF 5
ENDMDL
MODEL 9
REMARK VINA RESULT:      -7.2     27.192     31.718
REMARK  Name = 28991177
REMARK  5 active torsions:
REMARK  status: ('A' for Active; 'I' for Inactive)
REMARK    1  A    between atoms: N_5  and  C_16
REMARK    2  A    between atoms: N_6  and  C_17
REMARK    3  A    between atoms: C_10  and  C_16
REMARK    4  A    between atoms: C_11  and  C_17
REMARK    5  A    between atoms: C_22  and  C_24
REMARK                            x       y       z     vdW  Elec       q    Type
REMARK                         _______ _______ _______ _____ _____    ______ ____
ROOT
ATOM      4  N   UNL     1      -8.399 -10.857  16.191  0.00  0.00    -0.298 NA
ATOM      9  C   UNL     1     -10.529 -10.428  17.621  0.00  0.00    -0.003 C 
ATOM     10  C   UNL     1     -10.250  -9.237  16.676  0.00  0.00    +0.020 C 
ATOM     11  C   UNL     1      -8.094 -11.061  17.633  0.00  0.00    +0.074 C 
ATOM     12  C   UNL     1      -9.300 -10.669  18.516  0.00  0.00    +0.024 C 
ATOM     13  C   UNL     1      -8.903  -9.480  15.961  0.00  0.00    +0.089 C 
ATOM     14  C   UNL     1     -10.697 -11.674  16.731  0.00  0.00    +0.019 C 
ATOM     15  C   UNL     1      -9.471 -11.810  15.811  0.00  0.00    +0.085 C 
ENDROOT
BRANCH  10  16
ATOM     16  C   UNL     1     -10.274  -7.886  17.387  0.00  0.00    +0.089 C 
BRANCH  16   5
ATOM      5  N   UNL     1     -11.203  -6.967  16.730  0.00  0.00    -0.299 NA
ATOM      7  N   UNL     1     -12.851  -6.001  14.606  0.00  0.00    -0.313 N 
ATOM      8  N   UNL     1     -13.576  -4.090  13.412  0.00  0.00    -0.240 NA
ATOM     18  C   UNL     1     -12.454  -7.655  16.387  0.00  0.00    +0.103 C 
ATOM     19  C   UNL     1     -10.596  -6.400  15.519  0.00  0.00    +0.103 C 
ATOM     20  C   UNL     1     -13.456  -6.691  15.750  0.00  0.00    +0.122 C 
ATOM     21  C   UNL     1     -11.537  -5.393  14.853  0.00  0.00    +0.122 C 
ATOM     23  C   UNL     1     -13.671  -5.421  13.632  0.00  0.00    +0.121 A 
ATOM     25  C   UNL     1     -14.537  -6.260  12.949  0.00  0.00    +0.043 A 
ATOM     28  C   UNL     1     -15.358  -5.698  11.978  0.00  0.00    +0.005 A 
ATOM     29  C   UNL     1     -14.391  -3.580  12.461  0.00  0.00    +0.113 A 
ATOM     32  C   UNL     1     -15.289  -4.333  11.724  0.00  0.00    +0.020 A 
ENDBRANCH  16   5
ENDBRANCH  10  16
BRANCH  11  17
ATOM     17  C   UNL     1      -6.815 -10.342  18.066  0.00  0.00    +0.123 C 
BRANCH  17   6
ATOM      1  O   UNL     1      -4.145 -11.399  18.085  0.00  0.00    -0.270 OA
ATOM      6  N   UNL     1      -5.855 -10.297  16.975  0.00  0.00    -0.310 N 
ATOM     22  C   UNL     1      -4.590 -10.838  17.086  0.00  0.00    +0.244 C 
ATOM     35  H   UNL     1      -6.136  -9.789  16.144  0.00  0.00    +0.149 HD
BRANCH  22  24
ATOM      2  O   UNL     1      -3.811 -10.542  12.227  0.00  0.00    -0.453 OA
ATOM      3  O   UNL     1      -1.432 -10.277  12.508  0.00  0.00    -0.453 OA
ATOM     24  C   UNL     1      -3.720 -10.687  15.892  0.00  0.00    +0.040 A 
ATOM     26  C   UNL     1      -4.288 -10.698  14.616  0.00  0.00    +0.062 A 
ATOM     27  C   UNL     1      -2.332 -10.533  16.056  0.00  0.00    +0.017 A 
ATOM     30  C   UNL     1      -3.441 -10.554  13.536  0.00  0.00    +0.167 A 
ATOM     31  C   UNL     1      -1.497 -10.388  14.945  0.00  0.00    +0.050 A 
ATOM     33  C   UNL     1      -2.083 -10.402  13.697  0.00  0.00    +0.166 A 
ATOM     34  C   UNL     1      -2.533 -10.365  11.581  0.00  0.00    +0.466 C 
ENDBRANCH  22  24
ENDBRANCH  17   6
ENDBRANCH  11  17
TORSDOF 5
ENDMDL
MODEL 10
REMARK VINA RESULT:      -7.1     28.220     30.978
REMARK  Name = 28991177
REMARK  5 active torsions:
REMARK  status: ('A' for Active; 'I' for Inactive)
REMARK    1  A    between atoms: N_5  and  C_16
REMARK    2  A    between atoms: N_6  and  C_17
REMARK    3  A    between atoms: C_10  and  C_16
REMARK    4  A    between atoms: C_11  and  C_17
REMARK    5  A    between atoms: C_22  and  C_24
REMARK                            x       y       z     vdW  Elec       q    Type
REMARK                         _______ _______ _______ _____ _____    ______ ____
ROOT
ATOM      4  N   UNL     1     -12.127  -9.149  16.604  0.00  0.00    -0.298 NA
ATOM      9  C   UNL     1     -10.367  -7.644  15.419  0.00  0.00    -0.003 C 
ATOM     10  C   UNL     1     -10.391  -9.059  14.796  0.00  0.00    +0.020 C 
ATOM     11  C   UNL     1     -11.222  -8.534  17.611  0.00  0.00    +0.074 C 
ATOM     12  C   UNL     1     -10.077  -7.755  16.926  0.00  0.00    +0.024 C 
ATOM     13  C   UNL     1     -11.344  -9.947  15.627  0.00  0.00    +0.089 C 
ATOM     14  C   UNL     1     -11.787  -7.066  15.269  0.00  0.00    +0.019 C 
ATOM     15  C   UNL     1     -12.804  -8.054  15.868  0.00  0.00    +0.085 C 
ENDROOT
BRANCH  10  16
ATOM     16  C   UNL     1      -9.005  -9.685  14.670  0.00  0.00    +0.089 C 
BRANCH  16   5
ATOM      5  N   UNL     1      -8.422  -9.402  13.359  0.00  0.00    -0.299 NA
ATOM      7  N   UNL     1      -7.145 -10.031  10.882  0.00  0.00    -0.313 N 
ATOM      8  N   UNL     1      -5.518  -9.359   9.299  0.00  0.00    -0.240 NA
ATOM     18  C   UNL     1      -9.154 -10.115  12.304  0.00  0.00    +0.103 C 
ATOM     19  C   UNL     1      -7.005  -9.787  13.331  0.00  0.00    +0.103 C 
ATOM     20  C   UNL     1      -8.589  -9.783  10.921  0.00  0.00    +0.122 C 
ATOM     21  C   UNL     1      -6.369  -9.444  11.982  0.00  0.00    +0.122 C 
ATOM     23  C   UNL     1      -6.505 -10.214   9.651  0.00  0.00    +0.121 A 
ATOM     25  C   UNL     1      -6.931 -11.273   8.866  0.00  0.00    +0.043 A 
ATOM     28  C   UNL     1      -6.305 -11.468   7.640  0.00  0.00    +0.005 A 
ATOM     29  C   UNL     1      -4.934  -9.580   8.099  0.00  0.00    +0.113 A 
ATOM     32  C   UNL     1      -5.286 -10.609   7.243  0.00  0.00    +0.020 A 
ENDBRANCH  16   5
ENDBRANCH  10  16
BRANCH  11  17
ATOM     17  C   UNL     1     -10.691  -9.555  18.620  0.00  0.00    +0.123 C 
BRANCH  17   6
ATOM      1  O   UNL     1      -9.015 -11.348  20.112  0.00  0.00    -0.270 OA
ATOM      6  N   UNL     1      -9.291  -9.852  18.363  0.00  0.00    -0.310 N 
ATOM     22  C   UNL     1      -8.571 -10.735  19.144  0.00  0.00    +0.244 C 
ATOM     35  H   UNL     1      -8.845  -9.328  17.618  0.00  0.00    +0.149 HD
BRANCH  22  24
ATOM      2  O   UNL     1      -4.735 -10.198  16.093  0.00  0.00    -0.453 OA
ATOM      3  O   UNL     1      -3.230 -11.321  17.602  0.00  0.00    -0.453 OA
ATOM     24  C   UNL     1      -7.145 -10.909  18.766  0.00  0.00    +0.040 A 
ATOM     26  C   UNL     1      -6.688 -10.419  17.541  0.00  0.00    +0.062 A 
ATOM     27  C   UNL     1      -6.266 -11.564  19.647  0.00  0.00    +0.017 A 
ATOM     30  C   UNL     1      -5.355 -10.603  17.233  0.00  0.00    +0.167 A 
ATOM     31  C   UNL     1      -4.921 -11.738  19.312  0.00  0.00    +0.050 A 
ATOM     33  C   UNL     1      -4.496 -11.245  18.096  0.00  0.00    +0.166 A 
ATOM     34  C   UNL     1      -3.388 -10.655  16.334  0.00  0.00    +0.466 C 
ENDBRANCH  22  24
ENDBRANCH  17   6
ENDBRANCH  11  17
TORSDOF 5
ENDMDL
