MODEL 1
REMARK VINA RESULT:      -7.4      0.000      0.000
REMARK  Name = 71694334
REMARK  5 active torsions:
REMARK  status: ('A' for Active; 'I' for Inactive)
REMARK    1  A    between atoms: N_7  and  C_24
REMARK    2  A    between atoms: N_9  and  C_26
REMARK    3  A    between atoms: C_10  and  C_15
REMARK    4  A    between atoms: C_15  and  C_18
REMARK    5  A    between atoms: C_24  and  C_32
REMARK                            x       y       z     vdW  Elec       q    Type
REMARK                         _______ _______ _______ _____ _____    ______ ____
ROOT
ATOM      2  O   UNL     1      18.993  12.643  24.437  0.00  0.00    -0.274 OA
ATOM      4  O   UNL     1      16.772   9.064  21.209  0.00  0.00    -0.488 OA
ATOM      6  N   UNL     1      16.923  12.818  23.416  0.00  0.00    -0.300 N 
ATOM      8  N   UNL     1      18.814  11.114  21.511  0.00  0.00    -0.304 NA
ATOM     10  C   UNL     1      14.412  11.401  23.845  0.00  0.00    +0.008 C 
ATOM     11  C   UNL     1      15.236  11.304  22.526  0.00  0.00    +0.032 C 
ATOM     12  C   UNL     1      15.359  11.783  25.007  0.00  0.00    +0.023 C 
ATOM     13  C   UNL     1      16.023  12.605  22.277  0.00  0.00    +0.115 C 
ATOM     14  C   UNL     1      16.222  13.007  24.688  0.00  0.00    +0.108 C 
ATOM     16  C   UNL     1      14.424  10.917  21.319  0.00  0.00    -0.023 C 
ATOM     17  C   UNL     1      18.305  12.633  23.409  0.00  0.00    +0.229 C 
ATOM     19  C   UNL     1      14.571   9.852  20.512  0.00  0.00    +0.010 C 
ATOM     20  C   UNL     1      19.009  12.447  22.077  0.00  0.00    +0.178 C 
ATOM     21  C   UNL     1      15.588   8.739  20.490  0.00  0.00    +0.256 C 
ATOM     22  C   UNL     1      19.157  10.007  22.402  0.00  0.00    +0.120 C 
ATOM     23  C   UNL     1      19.051   8.664  21.699  0.00  0.00    +0.010 A 
ATOM     25  C   UNL     1      17.842   8.210  21.121  0.00  0.00    +0.125 A 
ATOM     26  C   UNL     1      20.128   6.588  21.031  0.00  0.00    +0.030 A 
ATOM     27  C   UNL     1      20.185   7.837  21.645  0.00  0.00    +0.031 A 
ATOM     30  C   UNL     1      17.795   6.951  20.513  0.00  0.00    +0.048 A 
ATOM     31  C   UNL     1      18.935   6.145  20.467  0.00  0.00    +0.027 A 
ATOM     41  H   UNL     1      19.364  11.044  20.655  0.00  0.00    +0.123 HD
ENDROOT
BRANCH  26   9
ATOM      5  O   UNL     1      23.542   4.169  20.611  0.00  0.00    -0.377 OA
ATOM      9  N   UNL     1      21.267   5.777  20.983  0.00  0.00    -0.326 N 
ATOM     28  C   UNL     1      22.511   6.361  20.465  0.00  0.00    +0.133 C 
ATOM     29  C   UNL     1      21.127   4.330  20.790  0.00  0.00    +0.133 C 
ATOM     33  C   UNL     1      23.704   5.546  20.954  0.00  0.00    +0.178 C 
ATOM     34  C   UNL     1      22.394   3.623  21.260  0.00  0.00    +0.178 C 
ENDBRANCH  26   9
BRANCH  10  15
ATOM     15  C   UNL     1      13.219  12.363  23.784  0.00  0.00    +0.100 C 
BRANCH  15  18
ATOM      3  O   UNL     1      11.279  12.346  22.337  0.00  0.00    -0.276 OA
ATOM      7  N   UNL     1      11.880  10.408  23.471  0.00  0.00    -0.311 N 
ATOM     18  C   UNL     1      12.021  11.738  23.106  0.00  0.00    +0.214 C 
ATOM     40  H   UNL     1      12.540   9.994  24.123  0.00  0.00    +0.149 HD
BRANCH   7  24
ATOM     24  C   UNL     1      10.818   9.562  22.977  0.00  0.00    +0.139 C 
BRANCH  24  32
ATOM      1  F   UNL     1      12.418   6.575  18.481  0.00  0.00    -0.205 F 
ATOM     32  C   UNL     1      11.245   8.765  21.779  0.00  0.00    -0.030 A 
ATOM     35  C   UNL     1      10.918   9.206  20.496  0.00  0.00    +0.008 A 
ATOM     36  C   UNL     1      11.967   7.584  21.947  0.00  0.00    +0.008 A 
ATOM     37  C   UNL     1      11.315   8.466  19.382  0.00  0.00    +0.038 A 
ATOM     38  C   UNL     1      12.363   6.844  20.832  0.00  0.00    +0.038 A 
ATOM     39  C   UNL     1      12.037   7.285  19.550  0.00  0.00    +0.123 A 
ENDBRANCH  24  32
ENDBRANCH   7  24
ENDBRANCH  15  18
ENDBRANCH  10  15
TORSDOF 5
ENDMDL
MODEL 2
REMARK VINA RESULT:      -7.3     25.772     28.645
REMARK  Name = 71694334
REMARK  5 active torsions:
REMARK  status: ('A' for Active; 'I' for Inactive)
REMARK    1  A    between atoms: N_7  and  C_24
REMARK    2  A    between atoms: N_9  and  C_26
REMARK    3  A    between atoms: C_10  and  C_15
REMARK    4  A    between atoms: C_15  and  C_18
REMARK    5  A    between atoms: C_24  and  C_32
REMARK                            x       y       z     vdW  Elec       q    Type
REMARK                         _______ _______ _______ _____ _____    ______ ____
ROOT
ATOM      2  O   UNL     1      21.792  -7.357   3.629  0.00  0.00    -0.274 OA
ATOM      4  O   UNL     1      18.873  -9.563  -0.214  0.00  0.00    -0.488 OA
ATOM      6  N   UNL     1      21.708  -6.684   1.417  0.00  0.00    -0.300 N 
ATOM      8  N   UNL     1      21.205  -9.822   1.507  0.00  0.00    -0.304 NA
ATOM     10  C   UNL     1      19.617  -5.390  -0.149  0.00  0.00    +0.008 C 
ATOM     11  C   UNL     1      20.135  -6.831  -0.437  0.00  0.00    +0.032 C 
ATOM     12  C   UNL     1      19.875  -5.046   1.337  0.00  0.00    +0.023 C 
ATOM     13  C   UNL     1      21.612  -6.974  -0.018  0.00  0.00    +0.115 C 
ATOM     14  C   UNL     1      21.321  -5.315   1.764  0.00  0.00    +0.108 C 
ATOM     16  C   UNL     1      19.922  -7.290  -1.854  0.00  0.00    -0.023 C 
ATOM     17  C   UNL     1      21.905  -7.625   2.427  0.00  0.00    +0.229 C 
ATOM     19  C   UNL     1      19.222  -8.347  -2.300  0.00  0.00    +0.010 C 
ATOM     20  C   UNL     1      22.313  -9.035   2.042  0.00  0.00    +0.178 C 
ATOM     21  C   UNL     1      18.475  -9.437  -1.574  0.00  0.00    +0.256 C 
ATOM     22  C   UNL     1      20.016  -9.875   2.355  0.00  0.00    +0.120 C 
ATOM     23  C   UNL     1      18.962 -10.814   1.792  0.00  0.00    +0.010 A 
ATOM     25  C   UNL     1      18.397 -10.628   0.508  0.00  0.00    +0.125 A 
ATOM     26  C   UNL     1      17.538 -12.758   2.118  0.00  0.00    +0.030 A 
ATOM     27  C   UNL     1      18.519 -11.885   2.584  0.00  0.00    +0.031 A 
ATOM     30  C   UNL     1      17.408 -11.507   0.054  0.00  0.00    +0.048 A 
ATOM     31  C   UNL     1      16.983 -12.569   0.856  0.00  0.00    +0.027 A 
ATOM     41  H   UNL     1      21.539 -10.770   1.330  0.00  0.00    +0.123 HD
ENDROOT
BRANCH  26   9
ATOM      5  O   UNL     1      16.011 -15.959   4.377  0.00  0.00    -0.377 OA
ATOM      9  N   UNL     1      17.108 -13.822   2.918  0.00  0.00    -0.326 N 
ATOM     28  C   UNL     1      16.919 -15.133   2.285  0.00  0.00    +0.133 C 
ATOM     29  C   UNL     1      16.258 -13.562   4.085  0.00  0.00    +0.133 C 
ATOM     33  C   UNL     1      16.959 -16.228   3.345  0.00  0.00    +0.178 C 
ATOM     34  C   UNL     1      16.333 -14.741   5.049  0.00  0.00    +0.178 C 
ENDBRANCH  26   9
BRANCH  10  15
ATOM     15  C   UNL     1      20.204  -4.305  -1.062  0.00  0.00    +0.100 C 
BRANCH  15  18
ATOM      3  O   UNL     1      19.216  -2.353  -2.094  0.00  0.00    -0.276 OA
ATOM      7  N   UNL     1      18.047  -4.362  -2.089  0.00  0.00    -0.311 N 
ATOM     18  C   UNL     1      19.128  -3.542  -1.800  0.00  0.00    +0.214 C 
ATOM     40  H   UNL     1      18.061  -5.334  -1.795  0.00  0.00    +0.149 HD
BRANCH   7  24
ATOM     24  C   UNL     1      16.869  -3.898  -2.786  0.00  0.00    +0.139 C 
BRANCH  24  32
ATOM      1  F   UNL     1      13.753  -8.163  -4.736  0.00  0.00    -0.205 F 
ATOM     32  C   UNL     1      16.039  -5.035  -3.306  0.00  0.00    -0.030 A 
ATOM     35  C   UNL     1      14.675  -4.854  -3.536  0.00  0.00    +0.008 A 
ATOM     36  C   UNL     1      16.631  -6.273  -3.558  0.00  0.00    +0.008 A 
ATOM     37  C   UNL     1      13.903  -5.911  -4.020  0.00  0.00    +0.038 A 
ATOM     38  C   UNL     1      15.858  -7.329  -4.041  0.00  0.00    +0.038 A 
ATOM     39  C   UNL     1      14.494  -7.148  -4.272  0.00  0.00    +0.123 A 
ENDBRANCH  24  32
ENDBRANCH   7  24
ENDBRANCH  15  18
ENDBRANCH  10  15
TORSDOF 5
ENDMDL
MODEL 3
REMARK VINA RESULT:      -7.3     28.409     32.716
REMARK  Name = 71694334
REMARK  5 active torsions:
REMARK  status: ('A' for Active; 'I' for Inactive)
REMARK    1  A    between atoms: N_7  and  C_24
REMARK    2  A    between atoms: N_9  and  C_26
REMARK    3  A    between atoms: C_10  and  C_15
REMARK    4  A    between atoms: C_15  and  C_18
REMARK    5  A    between atoms: C_24  and  C_32
REMARK                            x       y       z     vdW  Elec       q    Type
REMARK                         _______ _______ _______ _____ _____    ______ ____
ROOT
ATOM      2  O   UNL     1      -6.742 -11.474  20.042  0.00  0.00    -0.274 OA
ATOM      4  O   UNL     1      -8.220 -10.747  14.997  0.00  0.00    -0.488 OA
ATOM      6  N   UNL     1      -5.594 -12.185  18.162  0.00  0.00    -0.300 N 
ATOM      8  N   UNL     1      -8.698 -12.195  17.475  0.00  0.00    -0.304 NA
ATOM     10  C   UNL     1      -4.128 -10.728  16.106  0.00  0.00    +0.008 C 
ATOM     11  C   UNL     1      -5.427 -11.540  15.820  0.00  0.00    +0.032 C 
ATOM     12  C   UNL     1      -4.113 -10.305  17.594  0.00  0.00    +0.023 C 
ATOM     13  C   UNL     1      -5.557 -12.724  16.798  0.00  0.00    +0.115 C 
ATOM     14  C   UNL     1      -4.369 -11.478  18.545  0.00  0.00    +0.108 C 
ATOM     16  C   UNL     1      -5.568 -11.993  14.392  0.00  0.00    -0.023 C 
ATOM     17  C   UNL     1      -6.722 -12.104  18.977  0.00  0.00    +0.229 C 
ATOM     19  C   UNL     1      -6.542 -11.710  13.511  0.00  0.00    +0.010 C 
ATOM     20  C   UNL     1      -7.976 -12.852  18.563  0.00  0.00    +0.178 C 
ATOM     21  C   UNL     1      -7.818 -10.917  13.643  0.00  0.00    +0.256 C 
ATOM     22  C   UNL     1      -9.024 -10.790  17.709  0.00  0.00    +0.120 C 
ATOM     23  C   UNL     1      -9.883 -10.217  16.594  0.00  0.00    +0.010 A 
ATOM     25  C   UNL     1      -9.452 -10.196  15.247  0.00  0.00    +0.125 A 
ATOM     26  C   UNL     1     -11.946  -9.111  15.931  0.00  0.00    +0.030 A 
ATOM     27  C   UNL     1     -11.134  -9.668  16.918  0.00  0.00    +0.031 A 
ATOM     30  C   UNL     1     -10.272  -9.629  14.266  0.00  0.00    +0.048 A 
ATOM     31  C   UNL     1     -11.515  -9.091  14.608  0.00  0.00    +0.027 A 
ATOM     41  H   UNL     1      -9.555 -12.718  17.296  0.00  0.00    +0.123 HD
ENDROOT
BRANCH  26   9
ATOM      5  O   UNL     1     -15.556  -7.320  17.130  0.00  0.00    -0.377 OA
ATOM      9  N   UNL     1     -13.190  -8.570  16.270  0.00  0.00    -0.326 N 
ATOM     28  C   UNL     1     -13.443  -7.160  15.948  0.00  0.00    +0.133 C 
ATOM     29  C   UNL     1     -13.920  -9.087  17.432  0.00  0.00    +0.133 C 
ATOM     33  C   UNL     1     -14.946  -6.902  15.908  0.00  0.00    +0.178 C 
ATOM     34  C   UNL     1     -15.398  -8.726  17.314  0.00  0.00    +0.178 C 
ENDBRANCH  26   9
BRANCH  10  15
ATOM     15  C   UNL     1      -2.827 -11.452  15.739  0.00  0.00    +0.100 C 
BRANCH  15  18
ATOM      3  O   UNL     1      -1.079  -9.929  15.047  0.00  0.00    -0.276 OA
ATOM      7  N   UNL     1      -2.446 -10.909  13.443  0.00  0.00    -0.311 N 
ATOM     18  C   UNL     1      -2.007 -10.672  14.737  0.00  0.00    +0.214 C 
ATOM     40  H   UNL     1      -3.230 -11.536  13.286  0.00  0.00    +0.149 HD
BRANCH   7  24
ATOM     24  C   UNL     1      -1.847 -10.293  12.281  0.00  0.00    +0.139 C 
BRANCH  24  32
ATOM      1  F   UNL     1      -5.278 -10.419   7.819  0.00  0.00    -0.205 F 
ATOM     32  C   UNL     1      -2.762 -10.327  11.092  0.00  0.00    -0.030 A 
ATOM     35  C   UNL     1      -2.975  -9.169  10.343  0.00  0.00    +0.008 A 
ATOM     36  C   UNL     1      -3.398 -11.516  10.735  0.00  0.00    +0.008 A 
ATOM     37  C   UNL     1      -3.825  -9.201   9.237  0.00  0.00    +0.038 A 
ATOM     38  C   UNL     1      -4.249 -11.546   9.630  0.00  0.00    +0.038 A 
ATOM     39  C   UNL     1      -4.462 -10.389   8.881  0.00  0.00    +0.123 A 
ENDBRANCH  24  32
ENDBRANCH   7  24
ENDBRANCH  15  18
ENDBRANCH  10  15
TORSDOF 5
ENDMDL
MODEL 4
REMARK VINA RESULT:      -7.0     23.058     26.736
REMARK  Name = 71694334
REMARK  5 active torsions:
REMARK  status: ('A' for Active; 'I' for Inactive)
REMARK    1  A    between atoms: N_7  and  C_24
REMARK    2  A    between atoms: N_9  and  C_26
REMARK    3  A    between atoms: C_10  and  C_15
REMARK    4  A    between atoms: C_15  and  C_18
REMARK    5  A    between atoms: C_24  and  C_32
REMARK                            x       y       z     vdW  Elec       q    Type
REMARK                         _______ _______ _______ _____ _____    ______ ____
ROOT
ATOM      2  O   UNL     1      10.943   2.789  -5.882  0.00  0.00    -0.274 OA
ATOM      4  O   UNL     1       8.660   6.329  -2.654  0.00  0.00    -0.488 OA
ATOM      6  N   UNL     1      11.972   3.923  -4.146  0.00  0.00    -0.300 N 
ATOM      8  N   UNL     1       9.689   5.796  -5.323  0.00  0.00    -0.304 NA
ATOM     10  C   UNL     1      11.695   3.722  -1.251  0.00  0.00    +0.008 C 
ATOM     11  C   UNL     1      11.301   4.991  -2.063  0.00  0.00    +0.032 C 
ATOM     12  C   UNL     1      11.630   2.486  -2.179  0.00  0.00    +0.023 C 
ATOM     13  C   UNL     1      12.173   5.124  -3.328  0.00  0.00    +0.115 C 
ATOM     14  C   UNL     1      12.402   2.687  -3.487  0.00  0.00    +0.108 C 
ATOM     16  C   UNL     1      11.307   6.264  -1.260  0.00  0.00    -0.023 C 
ATOM     17  C   UNL     1      11.239   3.856  -5.330  0.00  0.00    +0.229 C 
ATOM     19  C   UNL     1      10.295   7.115  -1.023  0.00  0.00    +0.010 C 
ATOM     20  C   UNL     1      10.812   5.151  -5.998  0.00  0.00    +0.178 C 
ATOM     21  C   UNL     1       8.865   7.134  -1.499  0.00  0.00    +0.256 C 
ATOM     22  C   UNL     1       8.518   4.946  -5.118  0.00  0.00    +0.120 C 
ATOM     23  C   UNL     1       7.352   5.723  -4.530  0.00  0.00    +0.010 A 
ATOM     25  C   UNL     1       7.446   6.396  -3.289  0.00  0.00    +0.125 A 
ATOM     26  C   UNL     1       5.034   6.433  -4.719  0.00  0.00    +0.030 A 
ATOM     27  C   UNL     1       6.136   5.753  -5.231  0.00  0.00    +0.031 A 
ATOM     30  C   UNL     1       6.330   7.071  -2.782  0.00  0.00    +0.048 A 
ATOM     31  C   UNL     1       5.131   7.091  -3.496  0.00  0.00    +0.027 A 
ATOM     41  H   UNL     1       9.421   6.621  -5.861  0.00  0.00    +0.123 HD
ENDROOT
BRANCH  26   9
ATOM      5  O   UNL     1       1.429   6.220  -6.873  0.00  0.00    -0.377 OA
ATOM      9  N   UNL     1       3.830   6.454  -5.431  0.00  0.00    -0.326 N 
ATOM     28  C   UNL     1       2.645   5.851  -4.807  0.00  0.00    +0.133 C 
ATOM     29  C   UNL     1       3.847   6.426  -6.898  0.00  0.00    +0.133 C 
ATOM     33  C   UNL     1       1.383   6.404  -5.458  0.00  0.00    +0.178 C 
ATOM     34  C   UNL     1       2.520   6.948  -7.438  0.00  0.00    +0.178 C 
ENDBRANCH  26   9
BRANCH  10  15
ATOM     15  C   UNL     1      13.062   3.804  -0.559  0.00  0.00    +0.100 C 
BRANCH  15  18
ATOM      3  O   UNL     1      13.890   3.119   1.608  0.00  0.00    -0.276 OA
ATOM      7  N   UNL     1      11.696   3.858   1.400  0.00  0.00    -0.311 N 
ATOM     18  C   UNL     1      12.962   3.548   0.927  0.00  0.00    +0.214 C 
ATOM     40  H   UNL     1      10.988   4.199   0.756  0.00  0.00    +0.149 HD
BRANCH   7  24
ATOM     24  C   UNL     1      11.313   3.708   2.786  0.00  0.00    +0.139 C 
BRANCH  24  32
ATOM      1  F   UNL     1       8.216   8.046   4.599  0.00  0.00    -0.205 F 
ATOM     32  C   UNL     1      10.487   4.864   3.269  0.00  0.00    -0.030 A 
ATOM     35  C   UNL     1      10.198   5.923   2.408  0.00  0.00    +0.008 A 
ATOM     36  C   UNL     1      10.010   4.881   4.580  0.00  0.00    +0.008 A 
ATOM     37  C   UNL     1       9.430   6.998   2.857  0.00  0.00    +0.038 A 
ATOM     38  C   UNL     1       9.243   5.956   5.029  0.00  0.00    +0.038 A 
ATOM     39  C   UNL     1       8.953   7.014   4.168  0.00  0.00    +0.123 A 
ENDBRANCH  24  32
ENDBRANCH   7  24
ENDBRANCH  15  18
ENDBRANCH  10  15
TORSDOF 5
ENDMDL
MODEL 5
REMARK VINA RESULT:      -6.9     17.735     20.528
REMARK  Name = 71694334
REMARK  5 active torsions:
REMARK  status: ('A' for Active; 'I' for Inactive)
REMARK    1  A    between atoms: N_7  and  C_24
REMARK    2  A    between atoms: N_9  and  C_26
REMARK    3  A    between atoms: C_10  and  C_15
REMARK    4  A    between atoms: C_15  and  C_18
REMARK    5  A    between atoms: C_24  and  C_32
REMARK                            x       y       z     vdW  Elec       q    Type
REMARK                         _______ _______ _______ _____ _____    ______ ____
ROOT
ATOM      2  O   UNL     1       9.043   6.988   5.296  0.00  0.00    -0.274 OA
ATOM      4  O   UNL     1      13.469   6.196   2.479  0.00  0.00    -0.488 OA
ATOM      6  N   UNL     1      11.212   7.324   6.030  0.00  0.00    -0.300 N 
ATOM      8  N   UNL     1      11.252   4.962   3.902  0.00  0.00    -0.304 NA
ATOM     10  C   UNL     1      13.218   9.320   5.334  0.00  0.00    +0.008 C 
ATOM     11  C   UNL     1      13.382   7.801   5.034  0.00  0.00    +0.032 C 
ATOM     12  C   UNL     1      11.712   9.658   5.436  0.00  0.00    +0.023 C 
ATOM     13  C   UNL     1      12.631   6.953   6.079  0.00  0.00    +0.115 C 
ATOM     14  C   UNL     1      10.960   8.723   6.387  0.00  0.00    +0.108 C 
ATOM     16  C   UNL     1      14.811   7.351   4.892  0.00  0.00    -0.023 C 
ATOM     17  C   UNL     1      10.186   6.555   5.482  0.00  0.00    +0.229 C 
ATOM     19  C   UNL     1      15.412   6.776   3.836  0.00  0.00    +0.010 C 
ATOM     20  C   UNL     1      10.471   5.107   5.128  0.00  0.00    +0.178 C 
ATOM     21  C   UNL     1      14.884   6.344   2.491  0.00  0.00    +0.256 C 
ATOM     22  C   UNL     1      10.706   5.650   2.735  0.00  0.00    +0.120 C 
ATOM     23  C   UNL     1      11.502   5.346   1.477  0.00  0.00    +0.010 A 
ATOM     25  C   UNL     1      12.882   5.642   1.370  0.00  0.00    +0.125 A 
ATOM     26  C   UNL     1      11.525   4.503  -0.805  0.00  0.00    +0.030 A 
ATOM     27  C   UNL     1      10.840   4.778   0.377  0.00  0.00    +0.031 A 
ATOM     30  C   UNL     1      13.558   5.368   0.176  0.00  0.00    +0.048 A 
ATOM     31  C   UNL     1      12.881   4.799  -0.905  0.00  0.00    +0.027 A 
ATOM     41  H   UNL     1      11.349   3.968   3.697  0.00  0.00    +0.123 HD
ENDROOT
BRANCH  26   9
ATOM      5  O   UNL     1       9.733   2.817  -4.214  0.00  0.00    -0.377 OA
ATOM      9  N   UNL     1      10.851   3.935  -1.890  0.00  0.00    -0.326 N 
ATOM     28  C   UNL     1      11.289   2.615  -2.364  0.00  0.00    +0.133 C 
ATOM     29  C   UNL     1      10.251   4.799  -2.912  0.00  0.00    +0.133 C 
ATOM     33  C   UNL     1      10.169   1.957  -3.162  0.00  0.00    +0.178 C 
ATOM     34  C   UNL     1       9.186   4.024  -3.682  0.00  0.00    +0.178 C 
ENDBRANCH  26   9
BRANCH  10  15
ATOM     15  C   UNL     1      13.965   9.810   6.581  0.00  0.00    +0.100 C 
BRANCH  15  18
ATOM      3  O   UNL     1      15.122  11.783   5.791  0.00  0.00    -0.276 OA
ATOM      7  N   UNL     1      16.349   9.926   6.458  0.00  0.00    -0.311 N 
ATOM     18  C   UNL     1      15.181  10.636   6.227  0.00  0.00    +0.214 C 
ATOM     40  H   UNL     1      16.297   8.975   6.813  0.00  0.00    +0.149 HD
BRANCH   7  24
ATOM     24  C   UNL     1      17.665  10.467   6.206  0.00  0.00    +0.139 C 
BRANCH  24  32
ATOM      1  F   UNL     1      21.428   6.431   5.089  0.00  0.00    -0.205 F 
ATOM     32  C   UNL     1      18.668   9.391   5.908  0.00  0.00    -0.030 A 
ATOM     35  C   UNL     1      18.614   8.703   4.696  0.00  0.00    +0.008 A 
ATOM     36  C   UNL     1      19.654   9.079   6.844  0.00  0.00    +0.008 A 
ATOM     37  C   UNL     1      19.547   7.703   4.419  0.00  0.00    +0.038 A 
ATOM     38  C   UNL     1      20.586   8.078   6.567  0.00  0.00    +0.038 A 
ATOM     39  C   UNL     1      20.533   7.391   5.354  0.00  0.00    +0.123 A 
ENDBRANCH  24  32
ENDBRANCH   7  24
ENDBRANCH  15  18
ENDBRANCH  10  15
TORSDOF 5
ENDMDL
MODEL 6
REMARK VINA RESULT:      -6.9     28.891     33.216
REMARK  Name = 71694334
REMARK  5 active torsions:
REMARK  status: ('A' for Active; 'I' for Inactive)
REMARK    1  A    between atoms: N_7  and  C_24
REMARK    2  A    between atoms: N_9  and  C_26
REMARK    3  A    between atoms: C_10  and  C_15
REMARK    4  A    between atoms: C_15  and  C_18
REMARK    5  A    between atoms: C_24  and  C_32
REMARK                            x       y       z     vdW  Elec       q    Type
REMARK                         _______ _______ _______ _____ _____    ______ ____
ROOT
ATOM      2  O   UNL     1      -8.643 -10.338  13.926  0.00  0.00    -0.274 OA
ATOM      4  O   UNL     1      -7.475 -11.956  18.843  0.00  0.00    -0.488 OA
ATOM      6  N   UNL     1      -6.700  -9.875  15.095  0.00  0.00    -0.300 N 
ATOM      8  N   UNL     1      -9.066 -10.158  17.200  0.00  0.00    -0.304 NA
ATOM     10  C   UNL     1      -4.457 -11.557  15.893  0.00  0.00    +0.008 C 
ATOM     11  C   UNL     1      -5.424 -10.879  16.909  0.00  0.00    +0.032 C 
ATOM     12  C   UNL     1      -5.186 -11.731  14.540  0.00  0.00    +0.023 C 
ATOM     13  C   UNL     1      -5.983  -9.562  16.337  0.00  0.00    +0.115 C 
ATOM     14  C   UNL     1      -5.842 -10.437  14.050  0.00  0.00    +0.108 C 
ATOM     16  C   UNL     1      -4.832 -10.672  18.278  0.00  0.00    -0.023 C 
ATOM     17  C   UNL     1      -8.085  -9.888  14.935  0.00  0.00    +0.229 C 
ATOM     19  C   UNL     1      -5.257 -11.150  19.460  0.00  0.00    +0.010 C 
ATOM     20  C   UNL     1      -8.952  -9.292  16.028  0.00  0.00    +0.178 C 
ATOM     21  C   UNL     1      -6.456 -11.984  19.835  0.00  0.00    +0.256 C 
ATOM     22  C   UNL     1      -9.505 -11.523  16.921  0.00  0.00    +0.120 C 
ATOM     23  C   UNL     1      -9.722 -12.318  18.198  0.00  0.00    +0.010 A 
ATOM     25  C   UNL     1      -8.686 -12.531  19.137  0.00  0.00    +0.125 A 
ATOM     26  C   UNL     1     -11.225 -13.635  19.585  0.00  0.00    +0.030 A 
ATOM     27  C   UNL     1     -10.986 -12.880  18.439  0.00  0.00    +0.031 A 
ATOM     30  C   UNL     1      -8.936 -13.297  20.281  0.00  0.00    +0.048 A 
ATOM     31  C   UNL     1     -10.201 -13.844  20.504  0.00  0.00    +0.027 A 
ATOM     41  H   UNL     1      -9.709  -9.721  17.861  0.00  0.00    +0.123 HD
ENDROOT
BRANCH  26   9
ATOM      5  O   UNL     1     -15.122 -15.035  20.314  0.00  0.00    -0.377 OA
ATOM      9  N   UNL     1     -12.491 -14.186  19.811  0.00  0.00    -0.326 N 
ATOM     28  C   UNL     1     -13.573 -13.840  18.880  0.00  0.00    +0.133 C 
ATOM     29  C   UNL     1     -12.918 -14.500  21.178  0.00  0.00    +0.133 C 
ATOM     33  C   UNL     1     -14.679 -14.886  18.965  0.00  0.00    +0.178 C 
ATOM     34  C   UNL     1     -14.060 -15.510  21.141  0.00  0.00    +0.178 C 
ENDBRANCH  26   9
BRANCH  10  15
ATOM     15  C   UNL     1      -3.122 -10.826  15.695  0.00  0.00    +0.100 C 
BRANCH  15  18
ATOM      3  O   UNL     1      -1.926 -12.425  14.329  0.00  0.00    -0.276 OA
ATOM      7  N   UNL     1      -2.335 -10.292  13.503  0.00  0.00    -0.311 N 
ATOM     18  C   UNL     1      -2.396 -11.298  14.456  0.00  0.00    +0.214 C 
ATOM     40  H   UNL     1      -2.747  -9.385  13.704  0.00  0.00    +0.149 HD
BRANCH   7  24
ATOM     24  C   UNL     1      -1.695 -10.459  12.219  0.00  0.00    +0.139 C 
BRANCH  24  32
ATOM      1  F   UNL     1      -5.395 -10.285   7.978  0.00  0.00    -0.205 F 
ATOM     32  C   UNL     1      -2.681 -10.413  11.089  0.00  0.00    -0.030 A 
ATOM     35  C   UNL     1      -2.912  -9.215  10.413  0.00  0.00    +0.008 A 
ATOM     36  C   UNL     1      -3.368 -11.568  10.714  0.00  0.00    +0.008 A 
ATOM     37  C   UNL     1      -3.829  -9.172   9.362  0.00  0.00    +0.038 A 
ATOM     38  C   UNL     1      -4.285 -11.524   9.663  0.00  0.00    +0.038 A 
ATOM     39  C   UNL     1      -4.515 -10.326   8.987  0.00  0.00    +0.123 A 
ENDBRANCH  24  32
ENDBRANCH   7  24
ENDBRANCH  15  18
ENDBRANCH  10  15
TORSDOF 5
ENDMDL
MODEL 7
REMARK VINA RESULT:      -6.9     22.061     24.976
REMARK  Name = 71694334
REMARK  5 active torsions:
REMARK  status: ('A' for Active; 'I' for Inactive)
REMARK    1  A    between atoms: N_7  and  C_24
REMARK    2  A    between atoms: N_9  and  C_26
REMARK    3  A    between atoms: C_10  and  C_15
REMARK    4  A    between atoms: C_15  and  C_18
REMARK    5  A    between atoms: C_24  and  C_32
REMARK                            x       y       z     vdW  Elec       q    Type
REMARK                         _______ _______ _______ _____ _____    ______ ____
ROOT
ATOM      2  O   UNL     1       7.067  10.416  -0.221  0.00  0.00    -0.274 OA
ATOM      4  O   UNL     1       9.687   5.803  -0.134  0.00  0.00    -0.488 OA
ATOM      6  N   UNL     1       7.688   9.160  -2.062  0.00  0.00    -0.300 N 
ATOM      8  N   UNL     1       9.848   8.686   0.223  0.00  0.00    -0.304 NA
ATOM     10  C   UNL     1       6.746   6.597  -3.082  0.00  0.00    +0.008 C 
ATOM     11  C   UNL     1       8.190   6.827  -2.546  0.00  0.00    +0.032 C 
ATOM     12  C   UNL     1       5.796   7.635  -2.439  0.00  0.00    +0.023 C 
ATOM     13  C   UNL     1       8.631   8.287  -2.771  0.00  0.00    +0.115 C 
ATOM     14  C   UNL     1       6.315   9.070  -2.565  0.00  0.00    +0.108 C 
ATOM     16  C   UNL     1       9.209   5.860  -3.087  0.00  0.00    -0.023 C 
ATOM     17  C   UNL     1       7.947   9.846  -0.876  0.00  0.00    +0.229 C 
ATOM     19  C   UNL     1       9.989   4.996  -2.416  0.00  0.00    +0.010 C 
ATOM     20  C   UNL     1       9.379   9.931  -0.380  0.00  0.00    +0.178 C 
ATOM     21  C   UNL     1      10.159   4.731  -0.941  0.00  0.00    +0.256 C 
ATOM     22  C   UNL     1       8.997   8.151   1.283  0.00  0.00    +0.120 C 
ATOM     23  C   UNL     1       9.617   6.931   1.944  0.00  0.00    +0.010 A 
ATOM     25  C   UNL     1       9.941   5.764   1.214  0.00  0.00    +0.125 A 
ATOM     26  C   UNL     1      10.397   5.853   3.980  0.00  0.00    +0.030 A 
ATOM     27  C   UNL     1       9.851   6.957   3.328  0.00  0.00    +0.031 A 
ATOM     30  C   UNL     1      10.482   4.659   1.880  0.00  0.00    +0.048 A 
ATOM     31  C   UNL     1      10.711   4.706   3.257  0.00  0.00    +0.027 A 
ATOM     41  H   UNL     1      10.789   8.838   0.586  0.00  0.00    +0.123 HD
ENDROOT
BRANCH  26   9
ATOM      5  O   UNL     1      11.299   5.807   8.086  0.00  0.00    -0.377 OA
ATOM      9  N   UNL     1      10.626   5.896   5.359  0.00  0.00    -0.326 N 
ATOM     28  C   UNL     1      11.875   6.504   5.835  0.00  0.00    +0.133 C 
ATOM     29  C   UNL     1      10.068   4.852   6.226  0.00  0.00    +0.133 C 
ATOM     33  C   UNL     1      11.723   6.917   7.295  0.00  0.00    +0.178 C 
ATOM     34  C   UNL     1      10.013   5.353   7.665  0.00  0.00    +0.178 C 
ENDBRANCH  26   9
BRANCH  10  15
ATOM     15  C   UNL     1       6.618   6.625  -4.611  0.00  0.00    +0.100 C 
BRANCH  15  18
ATOM      3  O   UNL     1       4.883   7.923  -5.686  0.00  0.00    -0.276 OA
ATOM      7  N   UNL     1       4.339   5.910  -4.659  0.00  0.00    -0.311 N 
ATOM     18  C   UNL     1       5.204   6.918  -5.057  0.00  0.00    +0.214 C 
ATOM     40  H   UNL     1       4.697   5.119  -4.132  0.00  0.00    +0.149 HD
BRANCH   7  24
ATOM     24  C   UNL     1       2.923   5.927  -4.947  0.00  0.00    +0.139 C 
BRANCH  24  32
ATOM      1  F   UNL     1       0.711   0.750  -4.973  0.00  0.00    -0.205 F 
ATOM     32  C   UNL     1       2.334   4.547  -4.954  0.00  0.00    -0.030 A 
ATOM     35  C   UNL     1       1.097   4.313  -4.351  0.00  0.00    +0.008 A 
ATOM     36  C   UNL     1       3.021   3.498  -5.563  0.00  0.00    +0.008 A 
ATOM     37  C   UNL     1       0.549   3.030  -4.358  0.00  0.00    +0.038 A 
ATOM     38  C   UNL     1       2.473   2.215  -5.569  0.00  0.00    +0.038 A 
ATOM     39  C   UNL     1       1.237   1.981  -4.967  0.00  0.00    +0.123 A 
ENDBRANCH  24  32
ENDBRANCH   7  24
ENDBRANCH  15  18
ENDBRANCH  10  15
TORSDOF 5
ENDMDL
MODEL 8
REMARK VINA RESULT:      -6.8     26.340     30.104
REMARK  Name = 71694334
REMARK  5 active torsions:
REMARK  status: ('A' for Active; 'I' for Inactive)
REMARK    1  A    between atoms: N_7  and  C_24
REMARK    2  A    between atoms: N_9  and  C_26
REMARK    3  A    between atoms: C_10  and  C_15
REMARK    4  A    between atoms: C_15  and  C_18
REMARK    5  A    between atoms: C_24  and  C_32
REMARK                            x       y       z     vdW  Elec       q    Type
REMARK                         _______ _______ _______ _____ _____    ______ ____
ROOT
ATOM      2  O   UNL     1      -6.421  12.724   5.117  0.00  0.00    -0.274 OA
ATOM      4  O   UNL     1      -6.039   7.432   5.105  0.00  0.00    -0.488 OA
ATOM      6  N   UNL     1      -4.468  11.493   5.266  0.00  0.00    -0.300 N 
ATOM      8  N   UNL     1      -6.799   9.801   6.613  0.00  0.00    -0.304 NA
ATOM     10  C   UNL     1      -3.046   9.849   3.324  0.00  0.00    +0.008 C 
ATOM     11  C   UNL     1      -3.699   9.276   4.616  0.00  0.00    +0.032 C 
ATOM     12  C   UNL     1      -3.763  11.162   2.933  0.00  0.00    +0.023 C 
ATOM     13  C   UNL     1      -3.707  10.331   5.740  0.00  0.00    +0.115 C 
ATOM     14  C   UNL     1      -3.870  12.148   4.101  0.00  0.00    +0.108 C 
ATOM     16  C   UNL     1      -3.097   7.980   5.089  0.00  0.00    -0.023 C 
ATOM     17  C   UNL     1      -5.752  11.849   5.678  0.00  0.00    +0.229 C 
ATOM     19  C   UNL     1      -3.691   6.786   5.255  0.00  0.00    +0.010 C 
ATOM     20  C   UNL     1      -6.345  11.161   6.893  0.00  0.00    +0.178 C 
ATOM     21  C   UNL     1      -5.122   6.343   5.088  0.00  0.00    +0.256 C 
ATOM     22  C   UNL     1      -7.719   9.675   5.485  0.00  0.00    +0.120 C 
ATOM     23  C   UNL     1      -8.243   8.256   5.339  0.00  0.00    +0.010 A 
ATOM     25  C   UNL     1      -7.381   7.153   5.137  0.00  0.00    +0.125 A 
ATOM     26  C   UNL     1     -10.157   6.759   5.230  0.00  0.00    +0.030 A 
ATOM     27  C   UNL     1      -9.630   8.039   5.382  0.00  0.00    +0.031 A 
ATOM     30  C   UNL     1      -7.922   5.872   4.980  0.00  0.00    +0.048 A 
ATOM     31  C   UNL     1      -9.304   5.677   5.029  0.00  0.00    +0.027 A 
ATOM     41  H   UNL     1      -7.240   9.428   7.455  0.00  0.00    +0.123 HD
ENDROOT
BRANCH  26   9
ATOM      5  O   UNL     1     -14.286   6.074   5.633  0.00  0.00    -0.377 OA
ATOM      9  N   UNL     1     -11.540   6.559   5.277  0.00  0.00    -0.326 N 
ATOM     28  C   UNL     1     -12.332   7.404   6.181  0.00  0.00    +0.133 C 
ATOM     29  C   UNL     1     -12.096   5.227   5.019  0.00  0.00    +0.133 C 
ATOM     33  C   UNL     1     -13.790   7.410   5.735  0.00  0.00    +0.178 C 
ATOM     34  C   UNL     1     -13.567   5.348   4.636  0.00  0.00    +0.178 C 
ENDBRANCH  26   9
BRANCH  10  15
ATOM     15  C   UNL     1      -1.530  10.071   3.418  0.00  0.00    +0.100 C 
BRANCH  15  18
ATOM      3  O   UNL     1      -0.297  11.485   1.891  0.00  0.00    -0.276 OA
ATOM      7  N   UNL     1      -1.188   9.479   1.129  0.00  0.00    -0.311 N 
ATOM     18  C   UNL     1      -0.928  10.450   2.084  0.00  0.00    +0.214 C 
ATOM     40  H   UNL     1      -1.729   8.657   1.382  0.00  0.00    +0.149 HD
BRANCH   7  24
ATOM     24  C   UNL     1      -0.735   9.578  -0.240  0.00  0.00    +0.139 C 
BRANCH  24  32
ATOM      1  F   UNL     1      -4.963  10.686  -3.789  0.00  0.00    -0.205 F 
ATOM     32  C   UNL     1      -1.862   9.873  -1.186  0.00  0.00    -0.030 A 
ATOM     35  C   UNL     1      -1.595  10.430  -2.437  0.00  0.00    +0.008 A 
ATOM     36  C   UNL     1      -3.177   9.591  -0.814  0.00  0.00    +0.008 A 
ATOM     37  C   UNL     1      -2.643  10.704  -3.316  0.00  0.00    +0.038 A 
ATOM     38  C   UNL     1      -4.224   9.866  -1.694  0.00  0.00    +0.038 A 
ATOM     39  C   UNL     1      -3.957  10.422  -2.945  0.00  0.00    +0.123 A 
ENDBRANCH  24  32
ENDBRANCH   7  24
ENDBRANCH  15  18
ENDBRANCH  10  15
TORSDOF 5
ENDMDL
MODEL 9
REMARK VINA RESULT:      -6.8     20.626     23.794
REMARK  Name = 71694334
REMARK  5 active torsions:
REMARK  status: ('A' for Active; 'I' for Inactive)
REMARK    1  A    between atoms: N_7  and  C_24
REMARK    2  A    between atoms: N_9  and  C_26
REMARK    3  A    between atoms: C_10  and  C_15
REMARK    4  A    between atoms: C_15  and  C_18
REMARK    5  A    between atoms: C_24  and  C_32
REMARK                            x       y       z     vdW  Elec       q    Type
REMARK                         _______ _______ _______ _____ _____    ______ ____
ROOT
ATOM      2  O   UNL     1       4.244  11.038   3.173  0.00  0.00    -0.274 OA
ATOM      4  O   UNL     1       8.518   8.283   1.658  0.00  0.00    -0.488 OA
ATOM      6  N   UNL     1       5.292  11.160   1.114  0.00  0.00    -0.300 N 
ATOM      8  N   UNL     1       7.496  10.460   3.295  0.00  0.00    -0.304 NA
ATOM     10  C   UNL     1       5.458   9.276  -1.104  0.00  0.00    +0.008 C 
ATOM     11  C   UNL     1       6.693   9.724  -0.266  0.00  0.00    +0.032 C 
ATOM     12  C   UNL     1       4.179   9.443  -0.250  0.00  0.00    +0.023 C 
ATOM     13  C   UNL     1       6.496  11.154   0.275  0.00  0.00    +0.115 C 
ATOM     14  C   UNL     1       4.066  10.833   0.381  0.00  0.00    +0.108 C 
ATOM     16  C   UNL     1       8.008   9.589  -0.986  0.00  0.00    -0.023 C 
ATOM     17  C   UNL     1       5.269  11.223   2.506  0.00  0.00    +0.229 C 
ATOM     19  C   UNL     1       9.084   8.860  -0.645  0.00  0.00    +0.010 C 
ATOM     20  C   UNL     1       6.550  11.571   3.242  0.00  0.00    +0.178 C 
ATOM     21  C   UNL     1       9.372   7.995   0.557  0.00  0.00    +0.256 C 
ATOM     22  C   UNL     1       6.955   9.210   3.825  0.00  0.00    +0.120 C 
ATOM     23  C   UNL     1       8.030   8.146   3.968  0.00  0.00    +0.010 A 
ATOM     25  C   UNL     1       8.789   7.690   2.865  0.00  0.00    +0.125 A 
ATOM     26  C   UNL     1       9.217   6.584   5.406  0.00  0.00    +0.030 A 
ATOM     27  C   UNL     1       8.257   7.579   5.232  0.00  0.00    +0.031 A 
ATOM     30  C   UNL     1       9.745   6.685   3.050  0.00  0.00    +0.048 A 
ATOM     31  C   UNL     1       9.958   6.137   4.317  0.00  0.00    +0.027 A 
ATOM     41  H   UNL     1       8.300  10.748   3.855  0.00  0.00    +0.123 HD
ENDROOT
BRANCH  26   9
ATOM      5  O   UNL     1      10.121   5.031   9.207  0.00  0.00    -0.377 OA
ATOM      9  N   UNL     1       9.432   6.031   6.673  0.00  0.00    -0.326 N 
ATOM     28  C   UNL     1       9.627   6.947   7.804  0.00  0.00    +0.133 C 
ATOM     29  C   UNL     1      10.098   4.730   6.799  0.00  0.00    +0.133 C 
ATOM     33  C   UNL     1       9.335   6.219   9.112  0.00  0.00    +0.178 C 
ATOM     34  C   UNL     1       9.782   4.121   8.161  0.00  0.00    +0.178 C 
ENDBRANCH  26   9
BRANCH  10  15
ATOM     15  C   UNL     1       5.304   9.994  -2.451  0.00  0.00    +0.100 C 
BRANCH  15  18
ATOM      3  O   UNL     1       6.304   8.363  -3.932  0.00  0.00    -0.276 OA
ATOM      7  N   UNL     1       4.094   9.005  -4.259  0.00  0.00    -0.311 N 
ATOM     18  C   UNL     1       5.322   9.029  -3.614  0.00  0.00    +0.214 C 
ATOM     40  H   UNL     1       3.341   9.601  -3.927  0.00  0.00    +0.149 HD
BRANCH   7  24
ATOM     24  C   UNL     1       3.823   8.174  -5.410  0.00  0.00    +0.139 C 
BRANCH  24  32
ATOM      1  F   UNL     1       0.469   3.836  -4.135  0.00  0.00    -0.205 F 
ATOM     32  C   UNL     1       2.929   7.018  -5.070  0.00  0.00    -0.030 A 
ATOM     35  C   UNL     1       3.473   5.848  -4.539  0.00  0.00    +0.008 A 
ATOM     36  C   UNL     1       1.554   7.112  -5.286  0.00  0.00    +0.008 A 
ATOM     37  C   UNL     1       2.642   4.773  -4.223  0.00  0.00    +0.038 A 
ATOM     38  C   UNL     1       0.724   6.037  -4.970  0.00  0.00    +0.038 A 
ATOM     39  C   UNL     1       1.267   4.867  -4.438  0.00  0.00    +0.123 A 
ENDBRANCH  24  32
ENDBRANCH   7  24
ENDBRANCH  15  18
ENDBRANCH  10  15
TORSDOF 5
ENDMDL
MODEL 10
REMARK VINA RESULT:      -6.8     15.699     19.356
REMARK  Name = 71694334
REMARK  5 active torsions:
REMARK  status: ('A' for Active; 'I' for Inactive)
REMARK    1  A    between atoms: N_7  and  C_24
REMARK    2  A    between atoms: N_9  and  C_26
REMARK    3  A    between atoms: C_10  and  C_15
REMARK    4  A    between atoms: C_15  and  C_18
REMARK    5  A    between atoms: C_24  and  C_32
REMARK                            x       y       z     vdW  Elec       q    Type
REMARK                         _______ _______ _______ _____ _____    ______ ____
ROOT
ATOM      2  O   UNL     1      11.009   5.792   7.306  0.00  0.00    -0.274 OA
ATOM      4  O   UNL     1       8.793  10.471   6.143  0.00  0.00    -0.488 OA
ATOM      6  N   UNL     1       9.551   6.220   5.561  0.00  0.00    -0.300 N 
ATOM      8  N   UNL     1       8.826   8.190   7.949  0.00  0.00    -0.304 NA
ATOM     10  C   UNL     1       9.861   7.732   3.088  0.00  0.00    +0.008 C 
ATOM     11  C   UNL     1       8.879   8.142   4.225  0.00  0.00    +0.032 C 
ATOM     12  C   UNL     1      11.003   6.879   3.688  0.00  0.00    +0.023 C 
ATOM     13  C   UNL     1       8.382   6.901   4.992  0.00  0.00    +0.115 C 
ATOM     14  C   UNL     1      10.488   5.723   4.550  0.00  0.00    +0.108 C 
ATOM     16  C   UNL     1       7.728   8.997   3.766  0.00  0.00    -0.023 C 
ATOM     17  C   UNL     1       9.920   6.220   6.905  0.00  0.00    +0.229 C 
ATOM     19  C   UNL     1       7.390  10.237   4.161  0.00  0.00    +0.010 C 
ATOM     20  C   UNL     1       8.928   6.733   7.934  0.00  0.00    +0.178 C 
ATOM     21  C   UNL     1       7.982  11.158   5.197  0.00  0.00    +0.256 C 
ATOM     22  C   UNL     1      10.095   8.899   8.101  0.00  0.00    +0.120 C 
ATOM     23  C   UNL     1       9.892  10.398   8.237  0.00  0.00    +0.010 A 
ATOM     25  C   UNL     1       9.248  11.164   7.236  0.00  0.00    +0.125 A 
ATOM     26  C   UNL     1      10.238  12.423   9.538  0.00  0.00    +0.030 A 
ATOM     27  C   UNL     1      10.381  11.047   9.382  0.00  0.00    +0.031 A 
ATOM     30  C   UNL     1       9.115  12.547   7.401  0.00  0.00    +0.048 A 
ATOM     31  C   UNL     1       9.606  13.172   8.550  0.00  0.00    +0.027 A 
ATOM     41  H   UNL     1       8.193   8.461   8.702  0.00  0.00    +0.123 HD
ENDROOT
BRANCH  26   9
ATOM      5  O   UNL     1      11.484  14.243  13.118  0.00  0.00    -0.377 OA
ATOM      9  N   UNL     1      10.730  13.054  10.686  0.00  0.00    -0.326 N 
ATOM     28  C   UNL     1      11.046  12.220  11.853  0.00  0.00    +0.133 C 
ATOM     29  C   UNL     1      10.330  14.432  10.991  0.00  0.00    +0.133 C 
ATOM     33  C   UNL     1      12.011  12.963  12.770  0.00  0.00    +0.178 C 
ATOM     34  C   UNL     1      11.333  15.057  11.955  0.00  0.00    +0.178 C 
ENDBRANCH  26   9
BRANCH  10  15
ATOM     15  C   UNL     1       9.206   7.002   1.909  0.00  0.00    +0.100 C 
BRANCH  15  18
ATOM      3  O   UNL     1      10.950   7.566   0.330  0.00  0.00    -0.276 OA
ATOM      7  N   UNL     1      10.114   5.398   0.387  0.00  0.00    -0.311 N 
ATOM     18  C   UNL     1      10.191   6.721   0.797  0.00  0.00    +0.214 C 
ATOM     40  H   UNL     1       9.446   4.774   0.829  0.00  0.00    +0.149 HD
BRANCH   7  24
ATOM     24  C   UNL     1      10.939   4.849  -0.665  0.00  0.00    +0.139 C 
BRANCH  24  32
ATOM      1  F   UNL     1      15.994   3.256   1.234  0.00  0.00    -0.205 F 
ATOM     32  C   UNL     1      12.287   4.425  -0.159  0.00  0.00    -0.030 A 
ATOM     35  C   UNL     1      12.422   3.943   1.143  0.00  0.00    +0.008 A 
ATOM     36  C   UNL     1      13.403   4.512  -0.990  0.00  0.00    +0.008 A 
ATOM     37  C   UNL     1      13.675   3.548   1.614  0.00  0.00    +0.038 A 
ATOM     38  C   UNL     1      14.656   4.118  -0.519  0.00  0.00    +0.038 A 
ATOM     39  C   UNL     1      14.792   3.635   0.783  0.00  0.00    +0.123 A 
ENDBRANCH  24  32
ENDBRANCH   7  24
ENDBRANCH  15  18
ENDBRANCH  10  15
TORSDOF 5
ENDMDL
