MODEL 1
REMARK VINA RESULT:      -7.4      0.000      0.000
REMARK  Name = 11866251
REMARK  9 active torsions:
REMARK  status: ('A' for Active; 'I' for Inactive)
REMARK    1  A    between atoms: S_2  and  N_10
REMARK    2  A    between atoms: S_2  and  C_27
REMARK    3  A    between atoms: O_7  and  C_28
REMARK    4  A    between atoms: O_7  and  C_33
REMARK    5  A    between atoms: O_8  and  C_30
REMARK    6  A    between atoms: O_8  and  C_34
REMARK    7  A    between atoms: C_12  and  C_20
REMARK    8  A    between atoms: C_17  and  C_24
REMARK    9  A    between atoms: C_19  and  C_25
REMARK                            x       y       z     vdW  Elec       q    Type
REMARK                         _______ _______ _______ _____ _____    ______ ____
ROOT
ATOM      1  S   UNL     1     -12.572   5.306  21.916  0.00  0.00    -0.056 S 
ATOM      3  O   UNL     1     -13.829  11.519  19.173  0.00  0.00    -0.461 OA
ATOM      4  O   UNL     1     -14.115  13.708  18.530  0.00  0.00    -0.251 OA
ATOM      9  N   UNL     1     -14.797   6.448  21.259  0.00  0.00    -0.228 NA
ATOM     10  N   UNL     1     -15.127   4.357  22.441  0.00  0.00    -0.194 N 
ATOM     11  C   UNL     1     -12.727   9.374  19.906  0.00  0.00    +0.045 C 
ATOM     12  C   UNL     1     -11.474   8.469  19.528  0.00  0.00    -0.021 C 
ATOM     13  C   UNL     1     -12.836  10.531  18.897  0.00  0.00    +0.184 C 
ATOM     14  C   UNL     1     -11.565  11.358  18.906  0.00  0.00    +0.044 C 
ATOM     15  C   UNL     1     -10.193   9.344  19.365  0.00  0.00    +0.008 C 
ATOM     16  C   UNL     1     -10.373  10.551  18.433  0.00  0.00    +0.008 C 
ATOM     17  C   UNL     1     -14.048   8.541  20.071  0.00  0.00    +0.043 C 
ATOM     18  C   UNL     1     -11.222   7.443  20.674  0.00  0.00    +0.051 C 
ATOM     19  C   UNL     1     -12.005  12.553  18.083  0.00  0.00    +0.101 C 
ATOM     20  C   UNL     1     -11.694   7.691  18.203  0.00  0.00    +0.012 C 
ATOM     21  C   UNL     1     -13.768   7.262  20.820  0.00  0.00    +0.057 A 
ATOM     22  C   UNL     1     -12.497   6.783  21.071  0.00  0.00    +0.015 A 
ATOM     23  C   UNL     1     -13.423  12.705  18.602  0.00  0.00    +0.311 C 
ATOM     24  C   UNL     1     -15.158   9.336  20.772  0.00  0.00    +0.014 C 
ATOM     25  C   UNL     1     -11.160  13.790  18.321  0.00  0.00    +0.019 C 
ATOM     26  C   UNL     1     -14.285   5.395  21.858  0.00  0.00    +0.178 A 
ATOM     35  H   UNL     1     -14.617   3.566  22.851  0.00  0.00    +0.176 HD
ENDROOT
BRANCH  10   2
ATOM      2  S   UNL     1     -16.543   4.907  23.255  0.00  0.00    +0.077 S 
ATOM      5  O   UNL     1     -17.691   4.742  22.386  0.00  0.00    -0.150 OA
ATOM      6  O   UNL     1     -16.281   6.184  23.892  0.00  0.00    -0.150 OA
BRANCH   2  27
ATOM     27  C   UNL     1     -16.674   3.707  24.550  0.00  0.00    +0.153 A 
ATOM     28  C   UNL     1     -16.818   2.365  24.241  0.00  0.00    +0.147 A 
ATOM     29  C   UNL     1     -16.627   4.147  25.863  0.00  0.00    +0.078 A 
ATOM     30  C   UNL     1     -16.729   3.217  26.896  0.00  0.00    +0.122 A 
ATOM     31  C   UNL     1     -16.921   1.435  25.276  0.00  0.00    +0.051 A 
ATOM     32  C   UNL     1     -16.875   1.861  26.603  0.00  0.00    +0.049 A 
BRANCH  28   7
ATOM      7  O   UNL     1     -16.866   1.928  22.952  0.00  0.00    -0.493 OA
ATOM     33  C   UNL     1     -18.057   1.262  22.536  0.00  0.00    +0.277 C 
ENDBRANCH  28   7
BRANCH  30   8
ATOM      8  O   UNL     1     -16.685   3.632  28.192  0.00  0.00    -0.495 OA
ATOM     34  C   UNL     1     -15.474   3.392  28.909  0.00  0.00    +0.277 C 
ENDBRANCH  30   8
ENDBRANCH   2  27
ENDBRANCH  10   2
TORSDOF 4
ENDMDL
MODEL 2
REMARK VINA RESULT:      -7.3     28.350     32.435
REMARK  Name = 11866251
REMARK  9 active torsions:
REMARK  status: ('A' for Active; 'I' for Inactive)
REMARK    1  A    between atoms: S_2  and  N_10
REMARK    2  A    between atoms: S_2  and  C_27
REMARK    3  A    between atoms: O_7  and  C_28
REMARK    4  A    between atoms: O_7  and  C_33
REMARK    5  A    between atoms: O_8  and  C_30
REMARK    6  A    between atoms: O_8  and  C_34
REMARK    7  A    between atoms: C_12  and  C_20
REMARK    8  A    between atoms: C_17  and  C_24
REMARK    9  A    between atoms: C_19  and  C_25
REMARK                            x       y       z     vdW  Elec       q    Type
REMARK                         _______ _______ _______ _____ _____    ______ ____
ROOT
ATOM      1  S   UNL     1      12.846   7.024   4.239  0.00  0.00    -0.056 S 
ATOM      3  O   UNL     1      10.817   3.204  -1.145  0.00  0.00    -0.461 OA
ATOM      4  O   UNL     1      10.081   2.214  -3.087  0.00  0.00    -0.251 OA
ATOM      9  N   UNL     1      10.926   5.307   4.008  0.00  0.00    -0.228 NA
ATOM     10  N   UNL     1      10.879   6.491   6.124  0.00  0.00    -0.194 N 
ATOM     11  C   UNL     1      12.157   4.628   0.445  0.00  0.00    +0.045 C 
ATOM     12  C   UNL     1      13.676   4.965   0.777  0.00  0.00    -0.021 C 
ATOM     13  C   UNL     1      12.108   3.529  -0.632  0.00  0.00    +0.184 C 
ATOM     14  C   UNL     1      12.833   3.986  -1.883  0.00  0.00    +0.044 C 
ATOM     15  C   UNL     1      14.470   5.268  -0.531  0.00  0.00    +0.008 C 
ATOM     16  C   UNL     1      14.311   4.200  -1.622  0.00  0.00    +0.008 C 
ATOM     17  C   UNL     1      11.313   4.303   1.729  0.00  0.00    +0.043 C 
ATOM     18  C   UNL     1      13.730   6.231   1.685  0.00  0.00    +0.051 C 
ATOM     19  C   UNL     1      12.418   2.902  -2.858  0.00  0.00    +0.101 C 
ATOM     20  C   UNL     1      14.388   3.796   1.510  0.00  0.00    +0.012 C 
ATOM     21  C   UNL     1      11.665   5.262   2.840  0.00  0.00    +0.057 A 
ATOM     22  C   UNL     1      12.755   6.109   2.805  0.00  0.00    +0.015 A 
ATOM     23  C   UNL     1      10.975   2.717  -2.424  0.00  0.00    +0.311 C 
ATOM     24  C   UNL     1       9.803   4.329   1.461  0.00  0.00    +0.014 C 
ATOM     25  C   UNL     1      12.543   3.320  -4.310  0.00  0.00    +0.019 C 
ATOM     26  C   UNL     1      11.450   6.206   4.813  0.00  0.00    +0.178 A 
ATOM     35  H   UNL     1      11.394   7.186   6.679  0.00  0.00    +0.176 HD
ENDROOT
BRANCH  10   2
ATOM      2  S   UNL     1       9.158   6.515   6.205  0.00  0.00    +0.077 S 
ATOM      5  O   UNL     1       8.744   6.634   7.589  0.00  0.00    -0.150 OA
ATOM      6  O   UNL     1       8.610   5.471   5.360  0.00  0.00    -0.150 OA
BRANCH   2  27
ATOM     27  C   UNL     1       8.805   8.055   5.406  0.00  0.00    +0.153 A 
ATOM     28  C   UNL     1       9.410   9.220   5.846  0.00  0.00    +0.147 A 
ATOM     29  C   UNL     1       7.918   8.057   4.342  0.00  0.00    +0.078 A 
ATOM     30  C   UNL     1       7.628   9.261   3.700  0.00  0.00    +0.122 A 
ATOM     31  C   UNL     1       9.118  10.424   5.205  0.00  0.00    +0.051 A 
ATOM     32  C   UNL     1       8.228  10.444   4.131  0.00  0.00    +0.049 A 
BRANCH  28   7
ATOM      7  O   UNL     1      10.282   9.224   6.893  0.00  0.00    -0.493 OA
ATOM     33  C   UNL     1       9.852   9.864   8.093  0.00  0.00    +0.277 C 
ENDBRANCH  28   7
BRANCH  30   8
ATOM      8  O   UNL     1       6.759   9.280   2.653  0.00  0.00    -0.495 OA
ATOM     34  C   UNL     1       5.563  10.041   2.816  0.00  0.00    +0.277 C 
ENDBRANCH  30   8
ENDBRANCH   2  27
ENDBRANCH  10   2
TORSDOF 4
ENDMDL
MODEL 3
REMARK VINA RESULT:      -7.1     21.233     24.179
REMARK  Name = 11866251
REMARK  9 active torsions:
REMARK  status: ('A' for Active; 'I' for Inactive)
REMARK    1  A    between atoms: S_2  and  N_10
REMARK    2  A    between atoms: S_2  and  C_27
REMARK    3  A    between atoms: O_7  and  C_28
REMARK    4  A    between atoms: O_7  and  C_33
REMARK    5  A    between atoms: O_8  and  C_30
REMARK    6  A    between atoms: O_8  and  C_34
REMARK    7  A    between atoms: C_12  and  C_20
REMARK    8  A    between atoms: C_17  and  C_24
REMARK    9  A    between atoms: C_19  and  C_25
REMARK                            x       y       z     vdW  Elec       q    Type
REMARK                         _______ _______ _______ _____ _____    ______ ____
ROOT
ATOM      1  S   UNL     1      -4.737 -11.078   7.762  0.00  0.00    -0.056 S 
ATOM      3  O   UNL     1      -5.718  -9.760  14.471  0.00  0.00    -0.461 OA
ATOM      4  O   UNL     1      -6.200  -9.605  16.714  0.00  0.00    -0.251 OA
ATOM      9  N   UNL     1      -6.009  -9.160   8.943  0.00  0.00    -0.228 NA
ATOM     10  N   UNL     1      -6.318  -9.151   6.538  0.00  0.00    -0.194 N 
ATOM     11  C   UNL     1      -4.824 -10.626  12.279  0.00  0.00    +0.045 C 
ATOM     12  C   UNL     1      -3.480 -11.226  11.675  0.00  0.00    -0.021 C 
ATOM     13  C   UNL     1      -4.574 -10.196  13.735  0.00  0.00    +0.184 C 
ATOM     14  C   UNL     1      -4.107 -11.379  14.560  0.00  0.00    +0.044 C 
ATOM     15  C   UNL     1      -2.901 -12.329  12.613  0.00  0.00    +0.008 C 
ATOM     16  C   UNL     1      -2.766 -11.896  14.080  0.00  0.00    +0.008 C 
ATOM     17  C   UNL     1      -5.444  -9.500  11.376  0.00  0.00    +0.043 C 
ATOM     18  C   UNL     1      -3.789 -11.874  10.291  0.00  0.00    +0.051 C 
ATOM     19  C   UNL     1      -4.203 -10.799  15.958  0.00  0.00    +0.101 C 
ATOM     20  C   UNL     1      -2.388 -10.139  11.483  0.00  0.00    +0.012 C 
ATOM     21  C   UNL     1      -5.361  -9.893   9.922  0.00  0.00    +0.057 A 
ATOM     22  C   UNL     1      -4.608 -10.952   9.455  0.00  0.00    +0.015 A 
ATOM     23  C   UNL     1      -5.482  -9.996  15.807  0.00  0.00    +0.311 C 
ATOM     24  C   UNL     1      -6.895  -9.174  11.758  0.00  0.00    +0.014 C 
ATOM     25  C   UNL     1      -4.301 -11.857  17.041  0.00  0.00    +0.019 C 
ATOM     26  C   UNL     1      -5.759  -9.698   7.769  0.00  0.00    +0.178 A 
ATOM     35  H   UNL     1      -6.026  -9.632   5.679  0.00  0.00    +0.176 HD
ENDROOT
BRANCH  10   2
ATOM      2  S   UNL     1      -7.947  -8.597   6.633  0.00  0.00    +0.077 S 
ATOM      5  O   UNL     1      -7.966  -7.250   7.167  0.00  0.00    -0.150 OA
ATOM      6  O   UNL     1      -8.786  -9.630   7.213  0.00  0.00    -0.150 OA
BRANCH   2  27
ATOM     27  C   UNL     1      -8.370  -8.500   4.917  0.00  0.00    +0.153 A 
ATOM     28  C   UNL     1      -8.064  -9.548   4.066  0.00  0.00    +0.147 A 
ATOM     29  C   UNL     1      -9.007  -7.358   4.460  0.00  0.00    +0.078 A 
ATOM     30  C   UNL     1      -9.348  -7.263   3.110  0.00  0.00    +0.122 A 
ATOM     31  C   UNL     1      -8.404  -9.452   2.717  0.00  0.00    +0.051 A 
ATOM     32  C   UNL     1      -9.046  -8.310   2.239  0.00  0.00    +0.049 A 
BRANCH  28   7
ATOM      7  O   UNL     1      -7.436 -10.673   4.511  0.00  0.00    -0.493 OA
ATOM     33  C   UNL     1      -6.823 -11.505   3.528  0.00  0.00    +0.277 C 
ENDBRANCH  28   7
BRANCH  30   8
ATOM      8  O   UNL     1      -9.975  -6.148   2.644  0.00  0.00    -0.495 OA
ATOM     34  C   UNL     1     -10.546  -6.224   1.339  0.00  0.00    +0.277 C 
ENDBRANCH  30   8
ENDBRANCH   2  27
ENDBRANCH  10   2
TORSDOF 4
ENDMDL
MODEL 4
REMARK VINA RESULT:      -7.0     30.627     33.993
REMARK  Name = 11866251
REMARK  9 active torsions:
REMARK  status: ('A' for Active; 'I' for Inactive)
REMARK    1  A    between atoms: S_2  and  N_10
REMARK    2  A    between atoms: S_2  and  C_27
REMARK    3  A    between atoms: O_7  and  C_28
REMARK    4  A    between atoms: O_7  and  C_33
REMARK    5  A    between atoms: O_8  and  C_30
REMARK    6  A    between atoms: O_8  and  C_34
REMARK    7  A    between atoms: C_12  and  C_20
REMARK    8  A    between atoms: C_17  and  C_24
REMARK    9  A    between atoms: C_19  and  C_25
REMARK                            x       y       z     vdW  Elec       q    Type
REMARK                         _______ _______ _______ _____ _____    ______ ____
ROOT
ATOM      1  S   UNL     1      19.732   9.507  21.758  0.00  0.00    -0.056 S 
ATOM      3  O   UNL     1      13.265   7.116  21.361  0.00  0.00    -0.461 OA
ATOM      4  O   UNL     1      11.109   6.338  21.553  0.00  0.00    -0.251 OA
ATOM      9  N   UNL     1      18.806   7.272  20.846  0.00  0.00    -0.228 NA
ATOM     10  N   UNL     1      21.229   7.320  20.933  0.00  0.00    -0.194 N 
ATOM     11  C   UNL     1      15.287   8.608  21.554  0.00  0.00    +0.045 C 
ATOM     12  C   UNL     1      15.690  10.131  21.329  0.00  0.00    -0.021 C 
ATOM     13  C   UNL     1      13.831   8.400  21.100  0.00  0.00    +0.184 C 
ATOM     14  C   UNL     1      12.902   9.312  21.877  0.00  0.00    +0.044 C 
ATOM     15  C   UNL     1      14.638  11.080  21.982  0.00  0.00    +0.008 C 
ATOM     16  C   UNL     1      13.187  10.772  21.588  0.00  0.00    +0.008 C 
ATOM     17  C   UNL     1      16.309   7.609  20.905  0.00  0.00    +0.043 C 
ATOM     18  C   UNL     1      17.071  10.397  22.002  0.00  0.00    +0.051 C 
ATOM     19  C   UNL     1      11.555   8.743  21.479  0.00  0.00    +0.101 C 
ATOM     20  C   UNL     1      15.792  10.493  19.823  0.00  0.00    +0.012 C 
ATOM     21  C   UNL     1      17.723   8.076  21.150  0.00  0.00    +0.057 A 
ATOM     22  C   UNL     1      18.043   9.330  21.632  0.00  0.00    +0.015 A 
ATOM     23  C   UNL     1      11.900   7.265  21.475  0.00  0.00    +0.311 C 
ATOM     24  C   UNL     1      16.127   6.172  21.412  0.00  0.00    +0.014 C 
ATOM     25  C   UNL     1      10.447   9.082  22.457  0.00  0.00    +0.019 C 
ATOM     26  C   UNL     1      19.915   7.919  21.134  0.00  0.00    +0.178 A 
ATOM     35  H   UNL     1      22.022   7.932  21.159  0.00  0.00    +0.176 HD
ENDROOT
BRANCH  10   2
ATOM      2  S   UNL     1      21.364   5.649  21.333  0.00  0.00    +0.077 S 
ATOM      5  O   UNL     1      20.760   4.853  20.283  0.00  0.00    -0.150 OA
ATOM      6  O   UNL     1      20.989   5.443  22.720  0.00  0.00    -0.150 OA
BRANCH   2  27
ATOM     27  C   UNL     1      23.117   5.421  21.239  0.00  0.00    +0.153 A 
ATOM     28  C   UNL     1      23.964   6.237  21.969  0.00  0.00    +0.147 A 
ATOM     29  C   UNL     1      23.607   4.415  20.423  0.00  0.00    +0.078 A 
ATOM     30  C   UNL     1      24.985   4.220  20.335  0.00  0.00    +0.122 A 
ATOM     31  C   UNL     1      25.342   6.043  21.880  0.00  0.00    +0.051 A 
ATOM     32  C   UNL     1      25.852   5.034  21.064  0.00  0.00    +0.049 A 
BRANCH  28   7
ATOM      7  O   UNL     1      23.487   7.229  22.772  0.00  0.00    -0.493 OA
ATOM     33  C   UNL     1      23.768   7.126  24.167  0.00  0.00    +0.277 C 
ENDBRANCH  28   7
BRANCH  30   8
ATOM      8  O   UNL     1      25.483   3.235  19.538  0.00  0.00    -0.495 OA
ATOM     34  C   UNL     1      26.631   3.555  18.753  0.00  0.00    +0.277 C 
ENDBRANCH  30   8
ENDBRANCH   2  27
ENDBRANCH  10   2
TORSDOF 4
ENDMDL
MODEL 5
REMARK VINA RESULT:      -6.9     17.402     21.913
REMARK  Name = 11866251
REMARK  9 active torsions:
REMARK  status: ('A' for Active; 'I' for Inactive)
REMARK    1  A    between atoms: S_2  and  N_10
REMARK    2  A    between atoms: S_2  and  C_27
REMARK    3  A    between atoms: O_7  and  C_28
REMARK    4  A    between atoms: O_7  and  C_33
REMARK    5  A    between atoms: O_8  and  C_30
REMARK    6  A    between atoms: O_8  and  C_34
REMARK    7  A    between atoms: C_12  and  C_20
REMARK    8  A    between atoms: C_17  and  C_24
REMARK    9  A    between atoms: C_19  and  C_25
REMARK                            x       y       z     vdW  Elec       q    Type
REMARK                         _______ _______ _______ _____ _____    ______ ____
ROOT
ATOM      1  S   UNL     1      -1.163   9.006  36.680  0.00  0.00    -0.056 S 
ATOM      3  O   UNL     1      -5.183   6.959  41.910  0.00  0.00    -0.461 OA
ATOM      4  O   UNL     1      -6.622   6.043  43.452  0.00  0.00    -0.251 OA
ATOM      9  N   UNL     1      -3.094  10.214  37.905  0.00  0.00    -0.228 NA
ATOM     10  N   UNL     1      -2.309  11.429  35.959  0.00  0.00    -0.194 N 
ATOM     11  C   UNL     1      -3.298   7.195  40.254  0.00  0.00    +0.045 C 
ATOM     12  C   UNL     1      -1.752   6.838  40.125  0.00  0.00    -0.021 C 
ATOM     13  C   UNL     1      -3.782   6.830  41.668  0.00  0.00    +0.184 C 
ATOM     14  C   UNL     1      -3.556   5.355  41.938  0.00  0.00    +0.044 C 
ATOM     15  C   UNL     1      -1.489   5.366  40.569  0.00  0.00    +0.008 C 
ATOM     16  C   UNL     1      -2.080   5.010  41.939  0.00  0.00    +0.008 C 
ATOM     17  C   UNL     1      -3.616   8.673  39.830  0.00  0.00    +0.043 C 
ATOM     18  C   UNL     1      -1.319   6.984  38.634  0.00  0.00    +0.051 C 
ATOM     19  C   UNL     1      -4.343   5.182  43.222  0.00  0.00    +0.101 C 
ATOM     20  C   UNL     1      -0.863   7.767  40.995  0.00  0.00    +0.012 C 
ATOM     21  C   UNL     1      -2.843   9.036  38.586  0.00  0.00    +0.057 A 
ATOM     22  C   UNL     1      -1.813   8.273  38.073  0.00  0.00    +0.015 A 
ATOM     23  C   UNL     1      -5.528   6.078  42.910  0.00  0.00    +0.311 C 
ATOM     24  C   UNL     1      -5.117   8.911  39.613  0.00  0.00    +0.014 C 
ATOM     25  C   UNL     1      -4.750   3.745  43.488  0.00  0.00    +0.019 C 
ATOM     26  C   UNL     1      -2.276  10.298  36.878  0.00  0.00    +0.178 A 
ATOM     35  H   UNL     1      -1.601  11.405  35.216  0.00  0.00    +0.176 HD
ENDROOT
BRANCH  10   2
ATOM      2  S   UNL     1      -3.876  12.023  35.554  0.00  0.00    +0.077 S 
ATOM      5  O   UNL     1      -4.289  13.002  36.540  0.00  0.00    -0.150 OA
ATOM      6  O   UNL     1      -4.748  10.916  35.207  0.00  0.00    -0.150 OA
BRANCH   2  27
ATOM     27  C   UNL     1      -3.529  12.890  34.050  0.00  0.00    +0.153 A 
ATOM     28  C   UNL     1      -2.346  13.597  33.913  0.00  0.00    +0.147 A 
ATOM     29  C   UNL     1      -4.464  12.838  33.029  0.00  0.00    +0.078 A 
ATOM     30  C   UNL     1      -4.207  13.515  31.837  0.00  0.00    +0.122 A 
ATOM     31  C   UNL     1      -2.091  14.274  32.721  0.00  0.00    +0.051 A 
ATOM     32  C   UNL     1      -3.022  14.233  31.683  0.00  0.00    +0.049 A 
BRANCH  28   7
ATOM      7  O   UNL     1      -1.424  13.651  34.915  0.00  0.00    -0.493 OA
ATOM     33  C   UNL     1      -0.076  13.929  34.541  0.00  0.00    +0.277 C 
ENDBRANCH  28   7
BRANCH  30   8
ATOM      8  O   UNL     1      -5.115  13.474  30.823  0.00  0.00    -0.495 OA
ATOM     34  C   UNL     1      -5.592  14.726  30.329  0.00  0.00    +0.277 C 
ENDBRANCH  30   8
ENDBRANCH   2  27
ENDBRANCH  10   2
TORSDOF 4
ENDMDL
MODEL 6
REMARK VINA RESULT:      -6.8     28.612     32.685
REMARK  Name = 11866251
REMARK  9 active torsions:
REMARK  status: ('A' for Active; 'I' for Inactive)
REMARK    1  A    between atoms: S_2  and  N_10
REMARK    2  A    between atoms: S_2  and  C_27
REMARK    3  A    between atoms: O_7  and  C_28
REMARK    4  A    between atoms: O_7  and  C_33
REMARK    5  A    between atoms: O_8  and  C_30
REMARK    6  A    between atoms: O_8  and  C_34
REMARK    7  A    between atoms: C_12  and  C_20
REMARK    8  A    between atoms: C_17  and  C_24
REMARK    9  A    between atoms: C_19  and  C_25
REMARK                            x       y       z     vdW  Elec       q    Type
REMARK                         _______ _______ _______ _____ _____    ______ ____
ROOT
ATOM      1  S   UNL     1      13.784   7.464   4.054  0.00  0.00    -0.056 S 
ATOM      3  O   UNL     1      10.911   3.675  -0.955  0.00  0.00    -0.461 OA
ATOM      4  O   UNL     1       9.945   2.689  -2.795  0.00  0.00    -0.251 OA
ATOM      9  N   UNL     1      11.566   6.137   3.996  0.00  0.00    -0.228 NA
ATOM     10  N   UNL     1      11.806   7.478   6.001  0.00  0.00    -0.194 N 
ATOM     11  C   UNL     1      12.543   4.941   0.490  0.00  0.00    +0.045 C 
ATOM     12  C   UNL     1      14.107   5.004   0.774  0.00  0.00    -0.021 C 
ATOM     13  C   UNL     1      12.255   3.787  -0.487  0.00  0.00    +0.184 C 
ATOM     14  C   UNL     1      13.018   3.991  -1.781  0.00  0.00    +0.044 C 
ATOM     15  C   UNL     1      14.908   5.039  -0.565  0.00  0.00    +0.008 C 
ATOM     16  C   UNL     1      14.516   3.936  -1.557  0.00  0.00    +0.008 C 
ATOM     17  C   UNL     1      11.690   4.892   1.808  0.00  0.00    +0.043 C 
ATOM     18  C   UNL     1      14.428   6.307   1.568  0.00  0.00    +0.051 C 
ATOM     19  C   UNL     1      12.376   2.930  -2.654  0.00  0.00    +0.101 C 
ATOM     20  C   UNL     1      14.603   3.785   1.597  0.00  0.00    +0.012 C 
ATOM     21  C   UNL     1      12.249   5.853   2.827  0.00  0.00    +0.057 A 
ATOM     22  C   UNL     1      13.480   6.469   2.707  0.00  0.00    +0.015 A 
ATOM     23  C   UNL     1      10.937   3.063  -2.189  0.00  0.00    +0.311 C 
ATOM     24  C   UNL     1      10.205   5.186   1.556  0.00  0.00    +0.014 C 
ATOM     25  C   UNL     1      12.538   3.195  -4.138  0.00  0.00    +0.019 C 
ATOM     26  C   UNL     1      12.275   6.981   4.714  0.00  0.00    +0.178 A 
ATOM     35  H   UNL     1      12.459   8.103   6.488  0.00  0.00    +0.176 HD
ENDROOT
BRANCH  10   2
ATOM      2  S   UNL     1      10.124   7.840   6.100  0.00  0.00    +0.077 S 
ATOM      5  O   UNL     1       9.478   6.887   6.981  0.00  0.00    -0.150 OA
ATOM      6  O   UNL     1       9.594   8.090   4.773  0.00  0.00    -0.150 OA
BRANCH   2  27
ATOM     27  C   UNL     1      10.165   9.400   6.936  0.00  0.00    +0.153 A 
ATOM     28  C   UNL     1      10.893  10.452   6.407  0.00  0.00    +0.147 A 
ATOM     29  C   UNL     1       9.455   9.533   8.118  0.00  0.00    +0.078 A 
ATOM     30  C   UNL     1       9.475  10.755   8.790  0.00  0.00    +0.122 A 
ATOM     31  C   UNL     1      10.913  11.673   7.081  0.00  0.00    +0.051 A 
ATOM     32  C   UNL     1      10.204  11.824   8.272  0.00  0.00    +0.049 A 
BRANCH  28   7
ATOM      7  O   UNL     1      11.593  10.326   5.245  0.00  0.00    -0.493 OA
ATOM     33  C   UNL     1      12.789  11.095   5.122  0.00  0.00    +0.277 C 
ENDBRANCH  28   7
BRANCH  30   8
ATOM      8  O   UNL     1       8.783  10.902   9.953  0.00  0.00    -0.495 OA
ATOM     34  C   UNL     1       8.409  12.229  10.322  0.00  0.00    +0.277 C 
ENDBRANCH  30   8
ENDBRANCH   2  27
ENDBRANCH  10   2
TORSDOF 4
ENDMDL
MODEL 7
REMARK VINA RESULT:      -6.7     18.125     21.817
REMARK  Name = 11866251
REMARK  9 active torsions:
REMARK  status: ('A' for Active; 'I' for Inactive)
REMARK    1  A    between atoms: S_2  and  N_10
REMARK    2  A    between atoms: S_2  and  C_27
REMARK    3  A    between atoms: O_7  and  C_28
REMARK    4  A    between atoms: O_7  and  C_33
REMARK    5  A    between atoms: O_8  and  C_30
REMARK    6  A    between atoms: O_8  and  C_34
REMARK    7  A    between atoms: C_12  and  C_20
REMARK    8  A    between atoms: C_17  and  C_24
REMARK    9  A    between atoms: C_19  and  C_25
REMARK                            x       y       z     vdW  Elec       q    Type
REMARK                         _______ _______ _______ _____ _____    ______ ____
ROOT
ATOM      1  S   UNL     1      -9.047  -8.683  16.320  0.00  0.00    -0.056 S 
ATOM      3  O   UNL     1     -11.073 -13.198  21.137  0.00  0.00    -0.461 OA
ATOM      4  O   UNL     1     -11.653 -14.479  22.958  0.00  0.00    -0.251 OA
ATOM      9  N   UNL     1      -8.212 -11.070  16.862  0.00  0.00    -0.228 NA
ATOM     10  N   UNL     1      -6.840  -9.948  15.207  0.00  0.00    -0.194 N 
ATOM     11  C   UNL     1     -10.973 -11.277  19.509  0.00  0.00    +0.045 C 
ATOM     12  C   UNL     1     -11.960 -10.303  18.729  0.00  0.00    -0.021 C 
ATOM     13  C   UNL     1     -11.801 -12.326  20.272  0.00  0.00    +0.184 C 
ATOM     14  C   UNL     1     -12.747 -11.646  21.242  0.00  0.00    +0.044 C 
ATOM     15  C   UNL     1     -13.046  -9.733  19.693  0.00  0.00    +0.008 C 
ATOM     16  C   UNL     1     -13.776 -10.803  20.516  0.00  0.00    +0.008 C 
ATOM     17  C   UNL     1      -9.865 -11.889  18.579  0.00  0.00    +0.043 C 
ATOM     18  C   UNL     1     -11.143  -9.106  18.152  0.00  0.00    +0.051 C 
ATOM     19  C   UNL     1     -13.224 -12.837  22.049  0.00  0.00    +0.101 C 
ATOM     20  C   UNL     1     -12.687 -11.020  17.559  0.00  0.00    +0.012 C 
ATOM     21  C   UNL     1      -9.327 -10.833  17.646  0.00  0.00    +0.057 A 
ATOM     22  C   UNL     1      -9.918  -9.598  17.461  0.00  0.00    +0.015 A 
ATOM     23  C   UNL     1     -11.923 -13.614  22.139  0.00  0.00    +0.311 C 
ATOM     24  C   UNL     1      -8.720 -12.530  19.375  0.00  0.00    +0.014 C 
ATOM     25  C   UNL     1     -13.774 -12.459  23.411  0.00  0.00    +0.019 C 
ATOM     26  C   UNL     1      -7.967 -10.004  16.131  0.00  0.00    +0.178 A 
ATOM     35  H   UNL     1      -6.769  -9.079  14.664  0.00  0.00    +0.176 HD
ENDROOT
BRANCH  10   2
ATOM      2  S   UNL     1      -5.376 -10.670  15.762  0.00  0.00    +0.077 S 
ATOM      5  O   UNL     1      -5.611 -12.071  16.050  0.00  0.00    -0.150 OA
ATOM      6  O   UNL     1      -4.746  -9.811  16.748  0.00  0.00    -0.150 OA
BRANCH   2  27
ATOM     27  C   UNL     1      -4.383 -10.582  14.299  0.00  0.00    +0.153 A 
ATOM     28  C   UNL     1      -3.034 -10.886  14.356  0.00  0.00    +0.147 A 
ATOM     29  C   UNL     1      -4.991 -10.206  13.112  0.00  0.00    +0.078 A 
ATOM     30  C   UNL     1      -4.225 -10.131  11.950  0.00  0.00    +0.122 A 
ATOM     31  C   UNL     1      -2.268 -10.810  13.193  0.00  0.00    +0.051 A 
ATOM     32  C   UNL     1      -2.864 -10.433  11.990  0.00  0.00    +0.049 A 
BRANCH  28   7
ATOM      7  O   UNL     1      -2.431 -11.255  15.521  0.00  0.00    -0.493 OA
ATOM     33  C   UNL     1      -1.295 -10.497  15.933  0.00  0.00    +0.277 C 
ENDBRANCH  28   7
BRANCH  30   8
ATOM      8  O   UNL     1      -4.806  -9.764  10.775  0.00  0.00    -0.495 OA
ATOM     34  C   UNL     1      -5.759  -8.702  10.827  0.00  0.00    +0.277 C 
ENDBRANCH  30   8
ENDBRANCH   2  27
ENDBRANCH  10   2
TORSDOF 4
ENDMDL
MODEL 8
REMARK VINA RESULT:      -6.7     17.461     21.883
REMARK  Name = 11866251
REMARK  9 active torsions:
REMARK  status: ('A' for Active; 'I' for Inactive)
REMARK    1  A    between atoms: S_2  and  N_10
REMARK    2  A    between atoms: S_2  and  C_27
REMARK    3  A    between atoms: O_7  and  C_28
REMARK    4  A    between atoms: O_7  and  C_33
REMARK    5  A    between atoms: O_8  and  C_30
REMARK    6  A    between atoms: O_8  and  C_34
REMARK    7  A    between atoms: C_12  and  C_20
REMARK    8  A    between atoms: C_17  and  C_24
REMARK    9  A    between atoms: C_19  and  C_25
REMARK                            x       y       z     vdW  Elec       q    Type
REMARK                         _______ _______ _______ _____ _____    ______ ____
ROOT
ATOM      1  S   UNL     1      -0.963   9.140  36.738  0.00  0.00    -0.056 S 
ATOM      3  O   UNL     1      -5.214   7.052  41.765  0.00  0.00    -0.461 OA
ATOM      4  O   UNL     1      -6.719   6.120  43.234  0.00  0.00    -0.251 OA
ATOM      9  N   UNL     1      -2.961  10.330  37.870  0.00  0.00    -0.228 NA
ATOM     10  N   UNL     1      -2.093  11.555  35.966  0.00  0.00    -0.194 N 
ATOM     11  C   UNL     1      -3.253   7.305  40.202  0.00  0.00    +0.045 C 
ATOM     12  C   UNL     1      -1.700   6.962  40.148  0.00  0.00    -0.021 C 
ATOM     13  C   UNL     1      -3.802   6.934  41.591  0.00  0.00    +0.184 C 
ATOM     14  C   UNL     1      -3.578   5.460  41.869  0.00  0.00    +0.044 C 
ATOM     15  C   UNL     1      -1.447   5.491  40.601  0.00  0.00    +0.008 C 
ATOM     16  C   UNL     1      -2.101   5.127  41.941  0.00  0.00    +0.008 C 
ATOM     17  C   UNL     1      -3.563   8.782  39.765  0.00  0.00    +0.043 C 
ATOM     18  C   UNL     1      -1.197   7.114  38.680  0.00  0.00    +0.051 C 
ATOM     19  C   UNL     1      -4.425   5.279  43.113  0.00  0.00    +0.101 C 
ATOM     20  C   UNL     1      -0.862   7.896  41.061  0.00  0.00    +0.012 C 
ATOM     21  C   UNL     1      -2.733   9.153  38.561  0.00  0.00    +0.057 A 
ATOM     22  C   UNL     1      -1.673   8.400  38.097  0.00  0.00    +0.015 A 
ATOM     23  C   UNL     1      -5.600   6.165  42.746  0.00  0.00    +0.311 C 
ATOM     24  C   UNL     1      -5.053   9.008  39.476  0.00  0.00    +0.014 C 
ATOM     25  C   UNL     1      -4.832   3.838  43.358  0.00  0.00    +0.019 C 
ATOM     26  C   UNL     1      -2.094  10.423  36.884  0.00  0.00    +0.178 A 
ATOM     35  H   UNL     1      -1.349  11.538  35.258  0.00  0.00    +0.176 HD
ENDROOT
BRANCH  10   2
ATOM      2  S   UNL     1      -3.643  12.137  35.486  0.00  0.00    +0.077 S 
ATOM      5  O   UNL     1      -4.117  13.099  36.461  0.00  0.00    -0.150 OA
ATOM      6  O   UNL     1      -4.483  11.025  35.081  0.00  0.00    -0.150 OA
BRANCH   2  27
ATOM     27  C   UNL     1      -3.227  13.026  34.014  0.00  0.00    +0.153 A 
ATOM     28  C   UNL     1      -4.212  13.348  33.095  0.00  0.00    +0.147 A 
ATOM     29  C   UNL     1      -1.904  13.385  33.812  0.00  0.00    +0.078 A 
ATOM     30  C   UNL     1      -1.558  14.085  32.657  0.00  0.00    +0.122 A 
ATOM     31  C   UNL     1      -3.864  14.048  31.940  0.00  0.00    +0.051 A 
ATOM     32  C   UNL     1      -2.537  14.417  31.722  0.00  0.00    +0.049 A 
BRANCH  28   7
ATOM      7  O   UNL     1      -5.514  12.997  33.288  0.00  0.00    -0.493 OA
ATOM     33  C   UNL     1      -6.251  12.580  32.140  0.00  0.00    +0.277 C 
ENDBRANCH  28   7
BRANCH  30   8
ATOM      8  O   UNL     1      -0.262  14.445  32.444  0.00  0.00    -0.495 OA
ATOM     34  C   UNL     1       0.745  13.536  32.887  0.00  0.00    +0.277 C 
ENDBRANCH  30   8
ENDBRANCH   2  27
ENDBRANCH  10   2
TORSDOF 4
ENDMDL
MODEL 9
REMARK VINA RESULT:      -6.5      1.872      2.705
REMARK  Name = 11866251
REMARK  9 active torsions:
REMARK  status: ('A' for Active; 'I' for Inactive)
REMARK    1  A    between atoms: S_2  and  N_10
REMARK    2  A    between atoms: S_2  and  C_27
REMARK    3  A    between atoms: O_7  and  C_28
REMARK    4  A    between atoms: O_7  and  C_33
REMARK    5  A    between atoms: O_8  and  C_30
REMARK    6  A    between atoms: O_8  and  C_34
REMARK    7  A    between atoms: C_12  and  C_20
REMARK    8  A    between atoms: C_17  and  C_24
REMARK    9  A    between atoms: C_19  and  C_25
REMARK                            x       y       z     vdW  Elec       q    Type
REMARK                         _______ _______ _______ _____ _____    ______ ____
ROOT
ATOM      1  S   UNL     1     -15.740   8.919  23.219  0.00  0.00    -0.056 S 
ATOM      3  O   UNL     1     -11.418   9.432  17.856  0.00  0.00    -0.461 OA
ATOM      4  O   UNL     1     -10.242   9.678  15.895  0.00  0.00    -0.251 OA
ATOM      9  N   UNL     1     -14.217   7.156  22.097  0.00  0.00    -0.228 NA
ATOM     10  N   UNL     1     -15.691   6.198  23.767  0.00  0.00    -0.194 N 
ATOM     11  C   UNL     1     -12.909   9.947  19.822  0.00  0.00    +0.045 C 
ATOM     12  C   UNL     1     -13.130  11.095  20.902  0.00  0.00    -0.021 C 
ATOM     13  C   UNL     1     -11.678  10.292  18.966  0.00  0.00    +0.184 C 
ATOM     14  C   UNL     1     -11.873  11.631  18.281  0.00  0.00    +0.044 C 
ATOM     15  C   UNL     1     -13.158  12.496  20.217  0.00  0.00    +0.008 C 
ATOM     16  C   UNL     1     -11.967  12.761  19.286  0.00  0.00    +0.008 C 
ATOM     17  C   UNL     1     -12.861   8.514  20.463  0.00  0.00    +0.043 C 
ATOM     18  C   UNL     1     -14.502  10.870  21.610  0.00  0.00    +0.051 C 
ATOM     19  C   UNL     1     -10.709  11.619  17.309  0.00  0.00    +0.101 C 
ATOM     20  C   UNL     1     -12.011  11.110  21.978  0.00  0.00    +0.012 C 
ATOM     21  C   UNL     1     -13.928   8.380  21.521  0.00  0.00    +0.057 A 
ATOM     22  C   UNL     1     -14.644   9.447  22.028  0.00  0.00    +0.015 A 
ATOM     23  C   UNL     1     -10.739  10.157  16.902  0.00  0.00    +0.311 C 
ATOM     24  C   UNL     1     -13.005   7.399  19.417  0.00  0.00    +0.014 C 
ATOM     25  C   UNL     1     -10.899  12.558  16.133  0.00  0.00    +0.019 C 
ATOM     26  C   UNL     1     -15.163   7.318  22.997  0.00  0.00    +0.178 A 
ATOM     35  H   UNL     1     -16.400   6.449  24.466  0.00  0.00    +0.176 HD
ENDROOT
BRANCH  10   2
ATOM      2  S   UNL     1     -15.905   4.723  22.901  0.00  0.00    +0.077 S 
ATOM      5  O   UNL     1     -14.631   4.298  22.354  0.00  0.00    -0.150 OA
ATOM      6  O   UNL     1     -17.076   4.818  22.049  0.00  0.00    -0.150 OA
BRANCH   2  27
ATOM     27  C   UNL     1     -16.320   3.617  24.218  0.00  0.00    +0.153 A 
ATOM     28  C   UNL     1     -16.788   2.345  23.936  0.00  0.00    +0.147 A 
ATOM     29  C   UNL     1     -16.163   4.057  25.522  0.00  0.00    +0.078 A 
ATOM     30  C   UNL     1     -16.485   3.199  26.573  0.00  0.00    +0.122 A 
ATOM     31  C   UNL     1     -17.110   1.488  24.987  0.00  0.00    +0.051 A 
ATOM     32  C   UNL     1     -16.958   1.915  26.306  0.00  0.00    +0.049 A 
BRANCH  28   7
ATOM      7  O   UNL     1     -16.945   1.907  22.655  0.00  0.00    -0.493 OA
ATOM     33  C   UNL     1     -18.248   1.470  22.274  0.00  0.00    +0.277 C 
ENDBRANCH  28   7
BRANCH  30   8
ATOM      8  O   UNL     1     -16.336   3.616  27.861  0.00  0.00    -0.495 OA
ATOM     34  C   UNL     1     -15.517   2.815  28.712  0.00  0.00    +0.277 C 
ENDBRANCH  30   8
ENDBRANCH   2  27
ENDBRANCH  10   2
TORSDOF 4
ENDMDL
MODEL 10
REMARK VINA RESULT:      -6.4     19.371     22.631
REMARK  Name = 11866251
REMARK  9 active torsions:
REMARK  status: ('A' for Active; 'I' for Inactive)
REMARK    1  A    between atoms: S_2  and  N_10
REMARK    2  A    between atoms: S_2  and  C_27
REMARK    3  A    between atoms: O_7  and  C_28
REMARK    4  A    between atoms: O_7  and  C_33
REMARK    5  A    between atoms: O_8  and  C_30
REMARK    6  A    between atoms: O_8  and  C_34
REMARK    7  A    between atoms: C_12  and  C_20
REMARK    8  A    between atoms: C_17  and  C_24
REMARK    9  A    between atoms: C_19  and  C_25
REMARK                            x       y       z     vdW  Elec       q    Type
REMARK                         _______ _______ _______ _____ _____    ______ ____
ROOT
ATOM      1  S   UNL     1      -5.144 -13.746  16.895  0.00  0.00    -0.056 S 
ATOM      3  O   UNL     1      -9.827  -9.264  14.512  0.00  0.00    -0.461 OA
ATOM      4  O   UNL     1     -11.591  -8.023  13.714  0.00  0.00    -0.251 OA
ATOM      9  N   UNL     1      -5.189 -12.337  14.727  0.00  0.00    -0.228 NA
ATOM     10  N   UNL     1      -3.355 -13.922  14.780  0.00  0.00    -0.194 N 
ATOM     11  C   UNL     1      -8.442 -10.759  15.995  0.00  0.00    +0.045 C 
ATOM     12  C   UNL     1      -8.061 -10.918  17.532  0.00  0.00    -0.021 C 
ATOM     13  C   UNL     1      -9.285  -9.484  15.814  0.00  0.00    +0.184 C 
ATOM     14  C   UNL     1     -10.538  -9.557  16.664  0.00  0.00    +0.044 C 
ATOM     15  C   UNL     1      -9.335 -10.820  18.427  0.00  0.00    +0.008 C 
ATOM     16  C   UNL     1     -10.206  -9.588  18.142  0.00  0.00    +0.008 C 
ATOM     17  C   UNL     1      -7.191 -10.839  15.049  0.00  0.00    +0.043 C 
ATOM     18  C   UNL     1      -7.415 -12.320  17.754  0.00  0.00    +0.051 C 
ATOM     19  C   UNL     1     -11.314  -8.374  16.120  0.00  0.00    +0.101 C 
ATOM     20  C   UNL     1      -7.060  -9.829  18.002  0.00  0.00    +0.012 C 
ATOM     21  C   UNL     1      -6.264 -11.939  15.503  0.00  0.00    +0.057 A 
ATOM     22  C   UNL     1      -6.374 -12.583  16.720  0.00  0.00    +0.015 A 
ATOM     23  C   UNL     1     -10.970  -8.507  14.647  0.00  0.00    +0.311 C 
ATOM     24  C   UNL     1      -7.579 -11.043  13.578  0.00  0.00    +0.014 C 
ATOM     25  C   UNL     1     -12.805  -8.461  16.382  0.00  0.00    +0.019 C 
ATOM     26  C   UNL     1      -4.535 -13.289  15.357  0.00  0.00    +0.178 A 
ATOM     35  H   UNL     1      -2.907 -14.627  15.376  0.00  0.00    +0.176 HD
ENDROOT
BRANCH  10   2
ATOM      2  S   UNL     1      -3.419 -14.228  13.085  0.00  0.00    +0.077 S 
ATOM      5  O   UNL     1      -4.781 -14.549  12.705  0.00  0.00    -0.150 OA
ATOM      6  O   UNL     1      -2.324 -15.099  12.700  0.00  0.00    -0.150 OA
BRANCH   2  27
ATOM     27  C   UNL     1      -3.046 -12.623  12.439  0.00  0.00    +0.153 A 
ATOM     28  C   UNL     1      -2.109 -11.821  13.068  0.00  0.00    +0.147 A 
ATOM     29  C   UNL     1      -3.712 -12.200  11.300  0.00  0.00    +0.078 A 
ATOM     30  C   UNL     1      -3.432 -10.939  10.776  0.00  0.00    +0.122 A 
ATOM     31  C   UNL     1      -1.830 -10.559  12.545  0.00  0.00    +0.051 A 
ATOM     32  C   UNL     1      -2.491 -10.118  11.398  0.00  0.00    +0.049 A 
BRANCH  28   7
ATOM      7  O   UNL     1      -1.452 -12.232  14.189  0.00  0.00    -0.493 OA
ATOM     33  C   UNL     1      -1.232 -11.256  15.205  0.00  0.00    +0.277 C 
ENDBRANCH  28   7
BRANCH  30   8
ATOM      8  O   UNL     1      -4.077 -10.508   9.657  0.00  0.00    -0.495 OA
ATOM     34  C   UNL     1      -4.020  -9.111   9.373  0.00  0.00    +0.277 C 
ENDBRANCH  30   8
ENDBRANCH   2  27
ENDBRANCH  10   2
TORSDOF 4
ENDMDL
