MODEL 1
REMARK VINA RESULT:      -6.6      0.000      0.000
REMARK  Name = 25390426
REMARK  12 active torsions:
REMARK  status: ('A' for Active; 'I' for Inactive)
REMARK    1  A    between atoms: O_2  and  C_9
REMARK    2  A    between atoms: O_3  and  C_10
REMARK    3  A    between atoms: O_6  and  C_25
REMARK    4  A    between atoms: O_6  and  C_26
REMARK    5  A    between atoms: N_7  and  C_14
REMARK    6  A    between atoms: N_8  and  C_16
REMARK    7  A    between atoms: C_11  and  C_13
REMARK    8  A    between atoms: C_12  and  C_14
REMARK    9  A    between atoms: C_13  and  C_15
REMARK   10  A    between atoms: C_16  and  C_18
REMARK   11  A    between atoms: C_16  and  C_19
REMARK   12  A    between atoms: C_17  and  C_20
REMARK                            x       y       z     vdW  Elec       q    Type
REMARK                         _______ _______ _______ _____ _____    ______ ____
ROOT
ATOM      1  O   UNL     1      12.683   8.218  22.175  0.00  0.00    -0.366 OA
ATOM      9  C   UNL     1      11.074   6.742  21.232  0.00  0.00    +0.175 C 
ATOM     10  C   UNL     1      12.091   7.119  20.174  0.00  0.00    +0.176 C 
ATOM     11  C   UNL     1      11.297   7.821  22.286  0.00  0.00    +0.158 C 
ATOM     12  C   UNL     1      13.264   7.571  21.029  0.00  0.00    +0.167 C 
ENDROOT
BRANCH   9   2
ATOM      2  O   UNL     1      11.405   5.481  21.811  0.00  0.00    -0.387 OA
ATOM     27  H   UNL     1      11.061   4.791  21.218  0.00  0.00    +0.210 HD
ENDBRANCH   9   2
BRANCH  10   3
ATOM      3  O   UNL     1      12.437   6.047  19.324  0.00  0.00    -0.387 OA
ATOM     28  H   UNL     1      11.732   5.382  19.391  0.00  0.00    +0.210 HD
ENDBRANCH  10   3
BRANCH  11  13
ATOM     13  C   UNL     1      10.439   9.059  22.064  0.00  0.00    +0.130 C 
BRANCH  13  15
ATOM      4  O   UNL     1      11.058  10.682  23.747  0.00  0.00    -0.276 OA
ATOM      8  N   UNL     1      11.742  11.011  21.550  0.00  0.00    -0.313 N 
ATOM     15  C   UNL     1      11.101  10.326  22.572  0.00  0.00    +0.216 C 
ATOM     30  H   UNL     1      11.767  10.595  20.623  0.00  0.00    +0.149 HD
BRANCH   8  16
ATOM     16  C   UNL     1      12.451  12.252  21.756  0.00  0.00    +0.067 C 
ATOM     18  C   UNL     1      11.884  13.342  20.856  0.00  0.00    +0.027 C 
ATOM     19  C   UNL     1      13.943  12.061  21.517  0.00  0.00    +0.027 C 
ENDBRANCH   8  16
ENDBRANCH  13  15
ENDBRANCH  11  13
BRANCH  12  14
ATOM     14  C   UNL     1      14.192   8.537  20.314  0.00  0.00    +0.138 C 
BRANCH  14   7
ATOM      5  O   UNL     1      15.615   6.228  19.369  0.00  0.00    -0.270 OA
ATOM      7  N   UNL     1      15.567   8.216  20.565  0.00  0.00    -0.309 N 
ATOM     17  C   UNL     1      16.178   7.069  20.065  0.00  0.00    +0.244 C 
ATOM     29  H   UNL     1      16.107   8.897  21.089  0.00  0.00    +0.149 HD
BRANCH  17  20
ATOM     20  C   UNL     1      17.602   6.868  20.439  0.00  0.00    +0.037 A 
ATOM     21  C   UNL     1      18.225   7.757  21.315  0.00  0.00    +0.016 A 
ATOM     22  C   UNL     1      18.316   5.792  19.911  0.00  0.00    +0.016 A 
ATOM     23  C   UNL     1      19.562   7.570  21.663  0.00  0.00    +0.046 A 
ATOM     24  C   UNL     1      19.654   5.605  20.259  0.00  0.00    +0.046 A 
ATOM     25  C   UNL     1      20.277   6.495  21.136  0.00  0.00    +0.120 A 
BRANCH  25   6
ATOM      6  O   UNL     1      21.583   6.312  21.475  0.00  0.00    -0.495 OA
ATOM     26  C   UNL     1      21.941   5.041  22.015  0.00  0.00    +0.277 C 
ENDBRANCH  25   6
ENDBRANCH  17  20
ENDBRANCH  14   7
ENDBRANCH  12  14
TORSDOF 9
ENDMDL
MODEL 2
REMARK VINA RESULT:      -6.2      2.403      3.394
REMARK  Name = 25390426
REMARK  12 active torsions:
REMARK  status: ('A' for Active; 'I' for Inactive)
REMARK    1  A    between atoms: O_2  and  C_9
REMARK    2  A    between atoms: O_3  and  C_10
REMARK    3  A    between atoms: O_6  and  C_25
REMARK    4  A    between atoms: O_6  and  C_26
REMARK    5  A    between atoms: N_7  and  C_14
REMARK    6  A    between atoms: N_8  and  C_16
REMARK    7  A    between atoms: C_11  and  C_13
REMARK    8  A    between atoms: C_12  and  C_14
REMARK    9  A    between atoms: C_13  and  C_15
REMARK   10  A    between atoms: C_16  and  C_18
REMARK   11  A    between atoms: C_16  and  C_19
REMARK   12  A    between atoms: C_17  and  C_20
REMARK                            x       y       z     vdW  Elec       q    Type
REMARK                         _______ _______ _______ _____ _____    ______ ____
ROOT
ATOM      1  O   UNL     1      13.357   9.686  20.389  0.00  0.00    -0.366 OA
ATOM      9  C   UNL     1      12.681   7.682  19.301  0.00  0.00    +0.175 C 
ATOM     10  C   UNL     1      13.519   7.336  20.515  0.00  0.00    +0.176 C 
ATOM     11  C   UNL     1      13.022   9.152  19.087  0.00  0.00    +0.158 C 
ATOM     12  C   UNL     1      13.397   8.607  21.340  0.00  0.00    +0.167 C 
ENDROOT
BRANCH   9   2
ATOM      2  O   UNL     1      11.293   7.590  19.616  0.00  0.00    -0.387 OA
ATOM     27  H   UNL     1      11.083   6.647  19.731  0.00  0.00    +0.210 HD
ENDBRANCH   9   2
BRANCH  10   3
ATOM      3  O   UNL     1      13.051   6.203  21.214  0.00  0.00    -0.387 OA
ATOM     28  H   UNL     1      12.087   6.163  21.092  0.00  0.00    +0.210 HD
ENDBRANCH  10   3
BRANCH  11  13
ATOM     13  C   UNL     1      14.223   9.360  18.176  0.00  0.00    +0.130 C 
BRANCH  13  15
ATOM      4  O   UNL     1      14.138  11.534  17.119  0.00  0.00    -0.276 OA
ATOM      8  N   UNL     1      15.479  11.238  18.993  0.00  0.00    -0.313 N 
ATOM     15  C   UNL     1      14.587  10.824  18.015  0.00  0.00    +0.216 C 
ATOM     30  H   UNL     1      15.741  10.584  19.726  0.00  0.00    +0.149 HD
BRANCH   8  16
ATOM     16  C   UNL     1      15.993  12.586  19.073  0.00  0.00    +0.067 C 
ATOM     18  C   UNL     1      17.514  12.578  18.995  0.00  0.00    +0.027 C 
ATOM     19  C   UNL     1      15.510  13.267  20.347  0.00  0.00    +0.027 C 
ENDBRANCH   8  16
ENDBRANCH  13  15
ENDBRANCH  11  13
BRANCH  12  14
ATOM     14  C   UNL     1      14.554   8.814  22.301  0.00  0.00    +0.138 C 
BRANCH  14   7
ATOM      5  O   UNL     1      16.993   9.626  21.022  0.00  0.00    -0.270 OA
ATOM      7  N   UNL     1      15.664   7.973  21.964  0.00  0.00    -0.309 N 
ATOM     17  C   UNL     1      16.813   8.453  21.341  0.00  0.00    +0.244 C 
ATOM     29  H   UNL     1      15.605   7.001  22.250  0.00  0.00    +0.149 HD
BRANCH  17  20
ATOM     20  C   UNL     1      17.864   7.448  21.035  0.00  0.00    +0.037 A 
ATOM     21  C   UNL     1      17.621   6.453  20.087  0.00  0.00    +0.016 A 
ATOM     22  C   UNL     1      19.091   7.496  21.697  0.00  0.00    +0.016 A 
ATOM     23  C   UNL     1      18.606   5.507  19.802  0.00  0.00    +0.046 A 
ATOM     24  C   UNL     1      20.075   6.551  21.412  0.00  0.00    +0.046 A 
ATOM     25  C   UNL     1      19.832   5.556  20.464  0.00  0.00    +0.120 A 
BRANCH  25   6
ATOM      6  O   UNL     1      20.794   4.633  20.186  0.00  0.00    -0.495 OA
ATOM     26  C   UNL     1      21.534   4.114  21.289  0.00  0.00    +0.277 C 
ENDBRANCH  25   6
ENDBRANCH  17  20
ENDBRANCH  14   7
ENDBRANCH  12  14
TORSDOF 9
ENDMDL
MODEL 3
REMARK VINA RESULT:      -6.2     25.812     28.775
REMARK  Name = 25390426
REMARK  12 active torsions:
REMARK  status: ('A' for Active; 'I' for Inactive)
REMARK    1  A    between atoms: O_2  and  C_9
REMARK    2  A    between atoms: O_3  and  C_10
REMARK    3  A    between atoms: O_6  and  C_25
REMARK    4  A    between atoms: O_6  and  C_26
REMARK    5  A    between atoms: N_7  and  C_14
REMARK    6  A    between atoms: N_8  and  C_16
REMARK    7  A    between atoms: C_11  and  C_13
REMARK    8  A    between atoms: C_12  and  C_14
REMARK    9  A    between atoms: C_13  and  C_15
REMARK   10  A    between atoms: C_16  and  C_18
REMARK   11  A    between atoms: C_16  and  C_19
REMARK   12  A    between atoms: C_17  and  C_20
REMARK                            x       y       z     vdW  Elec       q    Type
REMARK                         _______ _______ _______ _____ _____    ______ ____
ROOT
ATOM      1  O   UNL     1      -6.405 -11.573  17.143  0.00  0.00    -0.366 OA
ATOM      9  C   UNL     1      -6.657 -12.069  19.455  0.00  0.00    +0.175 C 
ATOM     10  C   UNL     1      -7.397 -10.787  19.133  0.00  0.00    +0.176 C 
ATOM     11  C   UNL     1      -5.733 -12.214  18.252  0.00  0.00    +0.158 C 
ATOM     12  C   UNL     1      -7.588 -10.917  17.630  0.00  0.00    +0.167 C 
ENDROOT
BRANCH   9   2
ATOM      2  O   UNL     1      -7.559 -13.174  19.458  0.00  0.00    -0.387 OA
ATOM     27  H   UNL     1      -7.025 -13.984  19.528  0.00  0.00    +0.210 HD
ENDBRANCH   9   2
BRANCH  10   3
ATOM      3  O   UNL     1      -8.626 -10.664  19.815  0.00  0.00    -0.387 OA
ATOM     28  H   UNL     1      -8.711 -11.432  20.404  0.00  0.00    +0.210 HD
ENDBRANCH  10   3
BRANCH  11  13
ATOM     13  C   UNL     1      -4.389 -11.524  18.444  0.00  0.00    +0.130 C 
BRANCH  13  15
ATOM      4  O   UNL     1      -4.329  -9.776  16.774  0.00  0.00    -0.276 OA
ATOM      8  N   UNL     1      -2.907 -11.600  16.555  0.00  0.00    -0.313 N 
ATOM     15  C   UNL     1      -3.893 -10.850  17.178  0.00  0.00    +0.216 C 
ATOM     30  H   UNL     1      -2.577 -12.448  17.007  0.00  0.00    +0.149 HD
BRANCH   8  16
ATOM     16  C   UNL     1      -2.263 -11.192  15.328  0.00  0.00    +0.067 C 
ATOM     18  C   UNL     1      -1.954 -12.406  14.462  0.00  0.00    +0.027 C 
ATOM     19  C   UNL     1      -1.000 -10.393  15.628  0.00  0.00    +0.027 C 
ENDBRANCH   8  16
ENDBRANCH  13  15
ENDBRANCH  11  13
BRANCH  12  14
ATOM     14  C   UNL     1      -7.759  -9.582  16.927  0.00  0.00    +0.138 C 
BRANCH  14   7
ATOM      5  O   UNL     1      -8.587 -10.235  14.257  0.00  0.00    -0.270 OA
ATOM      7  N   UNL     1      -6.956  -9.515  15.742  0.00  0.00    -0.309 N 
ATOM     17  C   UNL     1      -7.441  -9.853  14.481  0.00  0.00    +0.244 C 
ATOM     29  H   UNL     1      -6.014  -9.153  15.847  0.00  0.00    +0.149 HD
BRANCH  17  20
ATOM     20  C   UNL     1      -6.474  -9.754  13.357  0.00  0.00    +0.037 A 
ATOM     21  C   UNL     1      -6.808  -9.029  12.212  0.00  0.00    +0.016 A 
ATOM     22  C   UNL     1      -5.235 -10.388  13.445  0.00  0.00    +0.016 A 
ATOM     23  C   UNL     1      -5.902  -8.939  11.156  0.00  0.00    +0.046 A 
ATOM     24  C   UNL     1      -4.329 -10.298  12.389  0.00  0.00    +0.046 A 
ATOM     25  C   UNL     1      -4.663  -9.573  11.244  0.00  0.00    +0.120 A 
BRANCH  25   6
ATOM      6  O   UNL     1      -3.778  -9.486  10.212  0.00  0.00    -0.495 OA
ATOM     26  C   UNL     1      -4.313  -9.203   8.920  0.00  0.00    +0.277 C 
ENDBRANCH  25   6
ENDBRANCH  17  20
ENDBRANCH  14   7
ENDBRANCH  12  14
TORSDOF 9
ENDMDL
MODEL 4
REMARK VINA RESULT:      -6.2     17.052     18.397
REMARK  Name = 25390426
REMARK  12 active torsions:
REMARK  status: ('A' for Active; 'I' for Inactive)
REMARK    1  A    between atoms: O_2  and  C_9
REMARK    2  A    between atoms: O_3  and  C_10
REMARK    3  A    between atoms: O_6  and  C_25
REMARK    4  A    between atoms: O_6  and  C_26
REMARK    5  A    between atoms: N_7  and  C_14
REMARK    6  A    between atoms: N_8  and  C_16
REMARK    7  A    between atoms: C_11  and  C_13
REMARK    8  A    between atoms: C_12  and  C_14
REMARK    9  A    between atoms: C_13  and  C_15
REMARK   10  A    between atoms: C_16  and  C_18
REMARK   11  A    between atoms: C_16  and  C_19
REMARK   12  A    between atoms: C_17  and  C_20
REMARK                            x       y       z     vdW  Elec       q    Type
REMARK                         _______ _______ _______ _____ _____    ______ ____
ROOT
ATOM      1  O   UNL     1      10.494   6.841   5.861  0.00  0.00    -0.366 OA
ATOM      9  C   UNL     1       9.819   5.309   7.550  0.00  0.00    +0.175 C 
ATOM     10  C   UNL     1       9.734   4.634   6.197  0.00  0.00    +0.176 C 
ATOM     11  C   UNL     1       9.876   6.783   7.168  0.00  0.00    +0.158 C 
ATOM     12  C   UNL     1      10.666   5.502   5.366  0.00  0.00    +0.167 C 
ENDROOT
BRANCH   9   2
ATOM      2  O   UNL     1      11.045   4.970   8.196  0.00  0.00    -0.387 OA
ATOM     27  H   UNL     1      11.686   5.673   7.990  0.00  0.00    +0.210 HD
ENDBRANCH   9   2
BRANCH  10   3
ATOM      3  O   UNL     1      10.146   3.284   6.217  0.00  0.00    -0.387 OA
ATOM     28  H   UNL     1       9.462   2.777   6.686  0.00  0.00    +0.210 HD
ENDBRANCH  10   3
BRANCH  11  13
ATOM     13  C   UNL     1       8.500   7.425   7.061  0.00  0.00    +0.130 C 
BRANCH  13  15
ATOM      4  O   UNL     1       8.908   9.731   6.454  0.00  0.00    -0.276 OA
ATOM      8  N   UNL     1       7.941   8.304   4.896  0.00  0.00    -0.313 N 
ATOM     15  C   UNL     1       8.486   8.624   6.130  0.00  0.00    +0.216 C 
ATOM     30  H   UNL     1       7.678   7.339   4.712  0.00  0.00    +0.149 HD
BRANCH   8  16
ATOM     16  C   UNL     1       7.805   9.261   3.822  0.00  0.00    +0.067 C 
ATOM     18  C   UNL     1       6.388   9.819   3.787  0.00  0.00    +0.027 C 
ATOM     19  C   UNL     1       8.180   8.624   2.489  0.00  0.00    +0.027 C 
ENDBRANCH   8  16
ENDBRANCH  13  15
ENDBRANCH  11  13
BRANCH  12  14
ATOM     14  C   UNL     1      10.359   5.463   3.880  0.00  0.00    +0.138 C 
BRANCH  14   7
ATOM      5  O   UNL     1      10.578   3.947   1.451  0.00  0.00    -0.270 OA
ATOM      7  N   UNL     1      11.549   5.247   3.110  0.00  0.00    -0.309 N 
ATOM     17  C   UNL     1      11.564   4.494   1.939  0.00  0.00    +0.244 C 
ATOM     29  H   UNL     1      12.390   5.717   3.427  0.00  0.00    +0.149 HD
BRANCH  17  20
ATOM     20  C   UNL     1      12.884   4.342   1.273  0.00  0.00    +0.037 A 
ATOM     21  C   UNL     1      13.088   4.879   0.001  0.00  0.00    +0.016 A 
ATOM     22  C   UNL     1      13.917   3.662   1.917  0.00  0.00    +0.016 A 
ATOM     23  C   UNL     1      14.325   4.735  -0.626  0.00  0.00    +0.046 A 
ATOM     24  C   UNL     1      15.154   3.517   1.291  0.00  0.00    +0.046 A 
ATOM     25  C   UNL     1      15.358   4.054   0.019  0.00  0.00    +0.120 A 
BRANCH  25   6
ATOM      6  O   UNL     1      16.567   3.913  -0.593  0.00  0.00    -0.495 OA
ATOM     26  C   UNL     1      16.855   4.800  -1.672  0.00  0.00    +0.277 C 
ENDBRANCH  25   6
ENDBRANCH  17  20
ENDBRANCH  14   7
ENDBRANCH  12  14
TORSDOF 9
ENDMDL
MODEL 5
REMARK VINA RESULT:      -6.2     26.464     28.479
REMARK  Name = 25390426
REMARK  12 active torsions:
REMARK  status: ('A' for Active; 'I' for Inactive)
REMARK    1  A    between atoms: O_2  and  C_9
REMARK    2  A    between atoms: O_3  and  C_10
REMARK    3  A    between atoms: O_6  and  C_25
REMARK    4  A    between atoms: O_6  and  C_26
REMARK    5  A    between atoms: N_7  and  C_14
REMARK    6  A    between atoms: N_8  and  C_16
REMARK    7  A    between atoms: C_11  and  C_13
REMARK    8  A    between atoms: C_12  and  C_14
REMARK    9  A    between atoms: C_13  and  C_15
REMARK   10  A    between atoms: C_16  and  C_18
REMARK   11  A    between atoms: C_16  and  C_19
REMARK   12  A    between atoms: C_17  and  C_20
REMARK                            x       y       z     vdW  Elec       q    Type
REMARK                         _______ _______ _______ _____ _____    ______ ____
ROOT
ATOM      1  O   UNL     1      -3.505 -10.136  16.640  0.00  0.00    -0.366 OA
ATOM      9  C   UNL     1      -4.907 -12.054  16.752  0.00  0.00    +0.175 C 
ATOM     10  C   UNL     1      -3.954 -12.195  15.583  0.00  0.00    +0.176 C 
ATOM     11  C   UNL     1      -4.825 -10.561  17.050  0.00  0.00    +0.158 C 
ATOM     12  C   UNL     1      -2.849 -11.228  15.973  0.00  0.00    +0.167 C 
ENDROOT
BRANCH   9   2
ATOM      2  O   UNL     1      -4.406 -12.761  17.886  0.00  0.00    -0.387 OA
ATOM     27  H   UNL     1      -3.528 -12.397  18.090  0.00  0.00    +0.210 HD
ENDBRANCH   9   2
BRANCH  10   3
ATOM      3  O   UNL     1      -3.472 -13.510  15.410  0.00  0.00    -0.387 OA
ATOM     28  H   UNL     1      -4.186 -14.119  15.660  0.00  0.00    +0.210 HD
ENDBRANCH  10   3
BRANCH  11  13
ATOM     13  C   UNL     1      -5.842  -9.740  16.270  0.00  0.00    +0.130 C 
BRANCH  13  15
ATOM      4  O   UNL     1      -7.261  -9.814  18.227  0.00  0.00    -0.276 OA
ATOM      8  N   UNL     1      -8.111  -8.952  16.243  0.00  0.00    -0.313 N 
ATOM     15  C   UNL     1      -7.129  -9.518  17.042  0.00  0.00    +0.216 C 
ATOM     30  H   UNL     1      -7.876  -8.690  15.290  0.00  0.00    +0.149 HD
BRANCH   8  16
ATOM     16  C   UNL     1      -9.436  -8.636  16.726  0.00  0.00    +0.067 C 
ATOM     18  C   UNL     1     -10.390  -9.789  16.443  0.00  0.00    +0.027 C 
ATOM     19  C   UNL     1      -9.937  -7.340  16.102  0.00  0.00    +0.027 C 
ENDBRANCH   8  16
ENDBRANCH  13  15
ENDBRANCH  11  13
BRANCH  12  14
ATOM     14  C   UNL     1      -2.061 -10.703  14.786  0.00  0.00    +0.138 C 
BRANCH  14   7
ATOM      5  O   UNL     1      -1.730 -11.079  11.958  0.00  0.00    -0.270 OA
ATOM      7  N   UNL     1      -2.935 -10.233  13.752  0.00  0.00    -0.309 N 
ATOM     17  C   UNL     1      -2.696 -10.461  12.399  0.00  0.00    +0.244 C 
ATOM     29  H   UNL     1      -3.783  -9.762  14.049  0.00  0.00    +0.149 HD
BRANCH  17  20
ATOM     20  C   UNL     1      -3.684  -9.885  11.451  0.00  0.00    +0.037 A 
ATOM     21  C   UNL     1      -5.024  -9.769  11.825  0.00  0.00    +0.016 A 
ATOM     22  C   UNL     1      -3.273  -9.461  10.187  0.00  0.00    +0.016 A 
ATOM     23  C   UNL     1      -5.952  -9.231  10.934  0.00  0.00    +0.046 A 
ATOM     24  C   UNL     1      -4.201  -8.923   9.296  0.00  0.00    +0.046 A 
ATOM     25  C   UNL     1      -5.541  -8.808   9.670  0.00  0.00    +0.120 A 
BRANCH  25   6
ATOM      6  O   UNL     1      -6.447  -8.282   8.799  0.00  0.00    -0.495 OA
ATOM     26  C   UNL     1      -7.807  -8.235   9.228  0.00  0.00    +0.277 C 
ENDBRANCH  25   6
ENDBRANCH  17  20
ENDBRANCH  14   7
ENDBRANCH  12  14
TORSDOF 9
ENDMDL
MODEL 6
REMARK VINA RESULT:      -6.1      3.031      3.990
REMARK  Name = 25390426
REMARK  12 active torsions:
REMARK  status: ('A' for Active; 'I' for Inactive)
REMARK    1  A    between atoms: O_2  and  C_9
REMARK    2  A    between atoms: O_3  and  C_10
REMARK    3  A    between atoms: O_6  and  C_25
REMARK    4  A    between atoms: O_6  and  C_26
REMARK    5  A    between atoms: N_7  and  C_14
REMARK    6  A    between atoms: N_8  and  C_16
REMARK    7  A    between atoms: C_11  and  C_13
REMARK    8  A    between atoms: C_12  and  C_14
REMARK    9  A    between atoms: C_13  and  C_15
REMARK   10  A    between atoms: C_16  and  C_18
REMARK   11  A    between atoms: C_16  and  C_19
REMARK   12  A    between atoms: C_17  and  C_20
REMARK                            x       y       z     vdW  Elec       q    Type
REMARK                         _______ _______ _______ _____ _____    ______ ____
ROOT
ATOM      1  O   UNL     1      12.694   9.924  19.159  0.00  0.00    -0.366 OA
ATOM      9  C   UNL     1      11.639   7.851  19.655  0.00  0.00    +0.175 C 
ATOM     10  C   UNL     1      12.773   8.084  20.632  0.00  0.00    +0.176 C 
ATOM     11  C   UNL     1      11.973   8.834  18.539  0.00  0.00    +0.158 C 
ATOM     12  C   UNL     1      12.954   9.590  20.534  0.00  0.00    +0.167 C 
ENDROOT
BRANCH   9   2
ATOM      2  O   UNL     1      10.397   8.245  20.235  0.00  0.00    -0.387 OA
ATOM     27  H   UNL     1      10.145   9.094  19.834  0.00  0.00    +0.210 HD
ENDBRANCH   9   2
BRANCH  10   3
ATOM      3  O   UNL     1      12.472   7.671  21.947  0.00  0.00    -0.387 OA
ATOM     28  H   UNL     1      13.018   8.200  22.552  0.00  0.00    +0.210 HD
ENDBRANCH  10   3
BRANCH  11  13
ATOM     13  C   UNL     1      12.870   8.235  17.464  0.00  0.00    +0.130 C 
BRANCH  13  15
ATOM      4  O   UNL     1      12.589   9.048  15.204  0.00  0.00    -0.276 OA
ATOM      8  N   UNL     1      13.981  10.207  16.659  0.00  0.00    -0.313 N 
ATOM     15  C   UNL     1      13.110   9.187  16.307  0.00  0.00    +0.216 C 
ATOM     30  H   UNL     1      14.308  10.262  17.620  0.00  0.00    +0.149 HD
BRANCH   8  16
ATOM     16  C   UNL     1      14.384  11.251  15.745  0.00  0.00    +0.067 C 
ATOM     18  C   UNL     1      15.450  10.733  14.787  0.00  0.00    +0.027 C 
ATOM     19  C   UNL     1      14.877  12.471  16.511  0.00  0.00    +0.027 C 
ENDBRANCH   8  16
ENDBRANCH  13  15
ENDBRANCH  11  13
BRANCH  12  14
ATOM     14  C   UNL     1      14.346  10.056  20.918  0.00  0.00    +0.138 C 
BRANCH  14   7
ATOM      5  O   UNL     1      17.012   9.966  21.982  0.00  0.00    -0.270 OA
ATOM      7  N   UNL     1      15.314   9.017  20.717  0.00  0.00    -0.309 N 
ATOM     17  C   UNL     1      16.590   9.056  21.273  0.00  0.00    +0.244 C 
ATOM     29  H   UNL     1      15.012   8.207  20.186  0.00  0.00    +0.149 HD
BRANCH  17  20
ATOM     20  C   UNL     1      17.484   7.914  20.948  0.00  0.00    +0.037 A 
ATOM     21  C   UNL     1      18.698   7.766  21.619  0.00  0.00    +0.016 A 
ATOM     22  C   UNL     1      17.110   6.992  19.970  0.00  0.00    +0.016 A 
ATOM     23  C   UNL     1      19.538   6.696  21.312  0.00  0.00    +0.046 A 
ATOM     24  C   UNL     1      17.950   5.923  19.662  0.00  0.00    +0.046 A 
ATOM     25  C   UNL     1      19.164   5.775  20.334  0.00  0.00    +0.120 A 
BRANCH  25   6
ATOM      6  O   UNL     1      19.984   4.730  20.033  0.00  0.00    -0.495 OA
ATOM     26  C   UNL     1      21.176   4.597  20.807  0.00  0.00    +0.277 C 
ENDBRANCH  25   6
ENDBRANCH  17  20
ENDBRANCH  14   7
ENDBRANCH  12  14
TORSDOF 9
ENDMDL
MODEL 7
REMARK VINA RESULT:      -6.0     16.564     18.106
REMARK  Name = 25390426
REMARK  12 active torsions:
REMARK  status: ('A' for Active; 'I' for Inactive)
REMARK    1  A    between atoms: O_2  and  C_9
REMARK    2  A    between atoms: O_3  and  C_10
REMARK    3  A    between atoms: O_6  and  C_25
REMARK    4  A    between atoms: O_6  and  C_26
REMARK    5  A    between atoms: N_7  and  C_14
REMARK    6  A    between atoms: N_8  and  C_16
REMARK    7  A    between atoms: C_11  and  C_13
REMARK    8  A    between atoms: C_12  and  C_14
REMARK    9  A    between atoms: C_13  and  C_15
REMARK   10  A    between atoms: C_16  and  C_18
REMARK   11  A    between atoms: C_16  and  C_19
REMARK   12  A    between atoms: C_17  and  C_20
REMARK                            x       y       z     vdW  Elec       q    Type
REMARK                         _______ _______ _______ _____ _____    ______ ____
ROOT
ATOM      1  O   UNL     1      11.128   6.921   7.272  0.00  0.00    -0.366 OA
ATOM      9  C   UNL     1       9.669   5.055   7.485  0.00  0.00    +0.175 C 
ATOM     10  C   UNL     1      10.027   5.248   6.026  0.00  0.00    +0.176 C 
ATOM     11  C   UNL     1      10.053   6.401   8.088  0.00  0.00    +0.158 C 
ATOM     12  C   UNL     1      11.308   6.060   6.133  0.00  0.00    +0.167 C 
ENDROOT
BRANCH   9   2
ATOM      2  O   UNL     1      10.499   4.053   8.070  0.00  0.00    -0.387 OA
ATOM     27  H   UNL     1      11.423   4.318   7.920  0.00  0.00    +0.210 HD
ENDBRANCH   9   2
BRANCH  10   3
ATOM      3  O   UNL     1      10.226   4.035   5.333  0.00  0.00    -0.387 OA
ATOM     28  H   UNL     1       9.925   3.315   5.912  0.00  0.00    +0.210 HD
ENDBRANCH  10   3
BRANCH  11  13
ATOM     13  C   UNL     1       8.917   7.414   8.061  0.00  0.00    +0.130 C 
BRANCH  13  15
ATOM      4  O   UNL     1       9.873   9.598   8.468  0.00  0.00    -0.276 OA
ATOM      8  N   UNL     1       9.182   9.047   6.319  0.00  0.00    -0.313 N 
ATOM     15  C   UNL     1       9.384   8.804   7.669  0.00  0.00    +0.216 C 
ATOM     30  H   UNL     1       8.825   8.296   5.734  0.00  0.00    +0.149 HD
BRANCH   8  16
ATOM     16  C   UNL     1       9.534  10.294   5.681  0.00  0.00    +0.067 C 
ATOM     18  C   UNL     1       8.369  11.273   5.751  0.00  0.00    +0.027 C 
ATOM     19  C   UNL     1       9.966  10.054   4.239  0.00  0.00    +0.027 C 
ENDBRANCH   8  16
ENDBRANCH  13  15
ENDBRANCH  11  13
BRANCH  12  14
ATOM     14  C   UNL     1      11.594   6.899   4.900  0.00  0.00    +0.138 C 
BRANCH  14   7
ATOM      5  O   UNL     1      10.039   6.628   2.502  0.00  0.00    -0.270 OA
ATOM      7  N   UNL     1      11.900   6.071   3.770  0.00  0.00    -0.309 N 
ATOM     17  C   UNL     1      11.085   6.000   2.644  0.00  0.00    +0.244 C 
ATOM     29  H   UNL     1      12.780   5.566   3.798  0.00  0.00    +0.149 HD
BRANCH  17  20
ATOM     20  C   UNL     1      11.528   5.074   1.569  0.00  0.00    +0.037 A 
ATOM     21  C   UNL     1      12.516   4.124   1.832  0.00  0.00    +0.016 A 
ATOM     22  C   UNL     1      10.959   5.156   0.298  0.00  0.00    +0.016 A 
ATOM     23  C   UNL     1      12.934   3.257   0.823  0.00  0.00    +0.046 A 
ATOM     24  C   UNL     1      11.378   4.290  -0.711  0.00  0.00    +0.046 A 
ATOM     25  C   UNL     1      12.366   3.339  -0.448  0.00  0.00    +0.120 A 
BRANCH  25   6
ATOM      6  O   UNL     1      12.774   2.493  -1.433  0.00  0.00    -0.495 OA
ATOM     26  C   UNL     1      11.812   2.140  -2.426  0.00  0.00    +0.277 C 
ENDBRANCH  25   6
ENDBRANCH  17  20
ENDBRANCH  14   7
ENDBRANCH  12  14
TORSDOF 9
ENDMDL
MODEL 8
REMARK VINA RESULT:      -5.8     26.593     28.499
REMARK  Name = 25390426
REMARK  12 active torsions:
REMARK  status: ('A' for Active; 'I' for Inactive)
REMARK    1  A    between atoms: O_2  and  C_9
REMARK    2  A    between atoms: O_3  and  C_10
REMARK    3  A    between atoms: O_6  and  C_25
REMARK    4  A    between atoms: O_6  and  C_26
REMARK    5  A    between atoms: N_7  and  C_14
REMARK    6  A    between atoms: N_8  and  C_16
REMARK    7  A    between atoms: C_11  and  C_13
REMARK    8  A    between atoms: C_12  and  C_14
REMARK    9  A    between atoms: C_13  and  C_15
REMARK   10  A    between atoms: C_16  and  C_18
REMARK   11  A    between atoms: C_16  and  C_19
REMARK   12  A    between atoms: C_17  and  C_20
REMARK                            x       y       z     vdW  Elec       q    Type
REMARK                         _______ _______ _______ _____ _____    ______ ____
ROOT
ATOM      1  O   UNL     1      -4.773 -10.493  18.021  0.00  0.00    -0.366 OA
ATOM      9  C   UNL     1      -6.167 -12.219  17.162  0.00  0.00    +0.175 C 
ATOM     10  C   UNL     1      -4.842 -12.231  16.427  0.00  0.00    +0.176 C 
ATOM     11  C   UNL     1      -6.162 -10.837  17.804  0.00  0.00    +0.158 C 
ATOM     12  C   UNL     1      -3.944 -11.498  17.410  0.00  0.00    +0.167 C 
ENDROOT
BRANCH   9   2
ATOM      2  O   UNL     1      -6.164 -13.193  18.204  0.00  0.00    -0.387 OA
ATOM     27  H   UNL     1      -6.299 -14.062  17.789  0.00  0.00    +0.210 HD
ENDBRANCH   9   2
BRANCH  10   3
ATOM      3  O   UNL     1      -4.370 -13.531  16.147  0.00  0.00    -0.387 OA
ATOM     28  H   UNL     1      -4.972 -13.926  15.495  0.00  0.00    +0.210 HD
ENDBRANCH  10   3
BRANCH  11  13
ATOM     13  C   UNL     1      -6.774  -9.763  16.916  0.00  0.00    +0.130 C 
BRANCH  13  15
ATOM      4  O   UNL     1      -8.744 -10.443  15.689  0.00  0.00    -0.276 OA
ATOM      8  N   UNL     1      -8.992  -9.513  17.804  0.00  0.00    -0.313 N 
ATOM     15  C   UNL     1      -8.265  -9.956  16.710  0.00  0.00    +0.216 C 
ATOM     30  H   UNL     1      -8.490  -9.181  18.624  0.00  0.00    +0.149 HD
BRANCH   8  16
ATOM     16  C   UNL     1     -10.434  -9.577  17.871  0.00  0.00    +0.067 C 
ATOM     18  C   UNL     1     -11.044  -8.259  17.411  0.00  0.00    +0.027 C 
ATOM     19  C   UNL     1     -10.887  -9.931  19.282  0.00  0.00    +0.027 C 
ENDBRANCH   8  16
ENDBRANCH  13  15
ENDBRANCH  11  13
BRANCH  12  14
ATOM     14  C   UNL     1      -2.744 -10.839  16.753  0.00  0.00    +0.138 C 
BRANCH  14   7
ATOM      5  O   UNL     1      -1.487 -11.835  14.371  0.00  0.00    -0.270 OA
ATOM      7  N   UNL     1      -3.039 -10.453  15.404  0.00  0.00    -0.309 N 
ATOM     17  C   UNL     1      -2.376 -10.990  14.304  0.00  0.00    +0.244 C 
ATOM     29  H   UNL     1      -3.803  -9.798  15.272  0.00  0.00    +0.149 HD
BRANCH  17  20
ATOM     20  C   UNL     1      -2.781 -10.466  12.973  0.00  0.00    +0.037 A 
ATOM     21  C   UNL     1      -1.808 -10.066  12.056  0.00  0.00    +0.016 A 
ATOM     22  C   UNL     1      -4.132 -10.371  12.642  0.00  0.00    +0.016 A 
ATOM     23  C   UNL     1      -2.187  -9.571  10.809  0.00  0.00    +0.046 A 
ATOM     24  C   UNL     1      -4.512  -9.876  11.395  0.00  0.00    +0.046 A 
ATOM     25  C   UNL     1      -3.539  -9.476  10.478  0.00  0.00    +0.120 A 
BRANCH  25   6
ATOM      6  O   UNL     1      -3.910  -8.993   9.260  0.00  0.00    -0.495 OA
ATOM     26  C   UNL     1      -4.837  -9.773   8.508  0.00  0.00    +0.277 C 
ENDBRANCH  25   6
ENDBRANCH  17  20
ENDBRANCH  14   7
ENDBRANCH  12  14
TORSDOF 9
ENDMDL
MODEL 9
REMARK VINA RESULT:      -5.8     25.858     30.001
REMARK  Name = 25390426
REMARK  12 active torsions:
REMARK  status: ('A' for Active; 'I' for Inactive)
REMARK    1  A    between atoms: O_2  and  C_9
REMARK    2  A    between atoms: O_3  and  C_10
REMARK    3  A    between atoms: O_6  and  C_25
REMARK    4  A    between atoms: O_6  and  C_26
REMARK    5  A    between atoms: N_7  and  C_14
REMARK    6  A    between atoms: N_8  and  C_16
REMARK    7  A    between atoms: C_11  and  C_13
REMARK    8  A    between atoms: C_12  and  C_14
REMARK    9  A    between atoms: C_13  and  C_15
REMARK   10  A    between atoms: C_16  and  C_18
REMARK   11  A    between atoms: C_16  and  C_19
REMARK   12  A    between atoms: C_17  and  C_20
REMARK                            x       y       z     vdW  Elec       q    Type
REMARK                         _______ _______ _______ _____ _____    ______ ____
ROOT
ATOM      1  O   UNL     1      -6.193 -12.693  17.655  0.00  0.00    -0.366 OA
ATOM      9  C   UNL     1      -4.769 -11.156  18.780  0.00  0.00    +0.175 C 
ATOM     10  C   UNL     1      -6.068 -11.290  19.547  0.00  0.00    +0.176 C 
ATOM     11  C   UNL     1      -5.143 -11.727  17.417  0.00  0.00    +0.158 C 
ATOM     12  C   UNL     1      -6.584 -12.626  19.038  0.00  0.00    +0.167 C 
ENDROOT
BRANCH   9   2
ATOM      2  O   UNL     1      -3.767 -11.994  19.353  0.00  0.00    -0.387 OA
ATOM     27  H   UNL     1      -4.224 -12.707  19.832  0.00  0.00    +0.210 HD
ENDBRANCH   9   2
BRANCH  10   3
ATOM      3  O   UNL     1      -5.894 -11.289  20.948  0.00  0.00    -0.387 OA
ATOM     28  H   UNL     1      -6.049 -10.381  21.260  0.00  0.00    +0.210 HD
ENDBRANCH  10   3
BRANCH  11  13
ATOM     13  C   UNL     1      -5.686 -10.676  16.459  0.00  0.00    +0.130 C 
BRANCH  13  15
ATOM      4  O   UNL     1      -5.210 -10.180  14.139  0.00  0.00    -0.276 OA
ATOM      8  N   UNL     1      -3.448 -10.630  15.585  0.00  0.00    -0.313 N 
ATOM     15  C   UNL     1      -4.785 -10.463  15.256  0.00  0.00    +0.216 C 
ATOM     30  H   UNL     1      -3.200 -10.804  16.556  0.00  0.00    +0.149 HD
BRANCH   8  16
ATOM     16  C   UNL     1      -2.376 -10.487  14.628  0.00  0.00    +0.067 C 
ATOM     18  C   UNL     1      -2.077 -11.825  13.964  0.00  0.00    +0.027 C 
ATOM     19  C   UNL     1      -1.133  -9.915  15.298  0.00  0.00    +0.027 C 
ENDBRANCH   8  16
ENDBRANCH  13  15
ENDBRANCH  11  13
BRANCH  12  14
ATOM     14  C   UNL     1      -8.091 -12.772  19.150  0.00  0.00    +0.138 C 
BRANCH  14   7
ATOM      5  O   UNL     1      -9.730 -10.707  20.286  0.00  0.00    -0.270 OA
ATOM      7  N   UNL     1      -8.767 -11.728  18.438  0.00  0.00    -0.309 N 
ATOM     17  C   UNL     1      -9.545 -10.763  19.073  0.00  0.00    +0.244 C 
ATOM     29  H   UNL     1      -8.612 -11.682  17.437  0.00  0.00    +0.149 HD
BRANCH  17  20
ATOM     20  C   UNL     1     -10.201  -9.763  18.191  0.00  0.00    +0.037 A 
ATOM     21  C   UNL     1     -11.593  -9.724  18.096  0.00  0.00    +0.016 A 
ATOM     22  C   UNL     1      -9.426  -8.866  17.455  0.00  0.00    +0.016 A 
ATOM     23  C   UNL     1     -12.209  -8.788  17.265  0.00  0.00    +0.046 A 
ATOM     24  C   UNL     1     -10.042  -7.930  16.625  0.00  0.00    +0.046 A 
ATOM     25  C   UNL     1     -11.434  -7.891  16.530  0.00  0.00    +0.120 A 
BRANCH  25   6
ATOM      6  O   UNL     1     -12.034  -6.977  15.719  0.00  0.00    -0.495 OA
ATOM     26  C   UNL     1     -11.289  -5.803  15.401  0.00  0.00    +0.277 C 
ENDBRANCH  25   6
ENDBRANCH  17  20
ENDBRANCH  14   7
ENDBRANCH  12  14
TORSDOF 9
ENDMDL
MODEL 10
REMARK VINA RESULT:      -5.6     18.432     20.571
REMARK  Name = 25390426
REMARK  12 active torsions:
REMARK  status: ('A' for Active; 'I' for Inactive)
REMARK    1  A    between atoms: O_2  and  C_9
REMARK    2  A    between atoms: O_3  and  C_10
REMARK    3  A    between atoms: O_6  and  C_25
REMARK    4  A    between atoms: O_6  and  C_26
REMARK    5  A    between atoms: N_7  and  C_14
REMARK    6  A    between atoms: N_8  and  C_16
REMARK    7  A    between atoms: C_11  and  C_13
REMARK    8  A    between atoms: C_12  and  C_14
REMARK    9  A    between atoms: C_13  and  C_15
REMARK   10  A    between atoms: C_16  and  C_18
REMARK   11  A    between atoms: C_16  and  C_19
REMARK   12  A    between atoms: C_17  and  C_20
REMARK                            x       y       z     vdW  Elec       q    Type
REMARK                         _______ _______ _______ _____ _____    ______ ____
ROOT
ATOM      1  O   UNL     1      13.574   4.606  -0.459  0.00  0.00    -0.366 OA
ATOM      9  C   UNL     1      15.561   5.157   0.725  0.00  0.00    +0.175 C 
ATOM     10  C   UNL     1      14.717   4.224   1.568  0.00  0.00    +0.176 C 
ATOM     11  C   UNL     1      14.553   5.659  -0.302  0.00  0.00    +0.158 C 
ATOM     12  C   UNL     1      13.833   3.579   0.514  0.00  0.00    +0.167 C 
ENDROOT
BRANCH   9   2
ATOM      2  O   UNL     1      16.570   4.422   0.034  0.00  0.00    -0.387 OA
ATOM     27  H   UNL     1      16.491   3.493   0.308  0.00  0.00    +0.210 HD
ENDBRANCH   9   2
BRANCH  10   3
ATOM      3  O   UNL     1      15.476   3.271   2.279  0.00  0.00    -0.387 OA
ATOM     28  H   UNL     1      15.904   2.692   1.626  0.00  0.00    +0.210 HD
ENDBRANCH  10   3
BRANCH  11  13
ATOM     13  C   UNL     1      13.818   6.915   0.147  0.00  0.00    +0.130 C 
BRANCH  13  15
ATOM      4  O   UNL     1      12.893   8.159  -1.708  0.00  0.00    -0.276 OA
ATOM      8  N   UNL     1      11.538   6.658  -0.564  0.00  0.00    -0.313 N 
ATOM     15  C   UNL     1      12.725   7.328  -0.820  0.00  0.00    +0.216 C 
ATOM     30  H   UNL     1      11.525   5.944   0.160  0.00  0.00    +0.149 HD
BRANCH   8  16
ATOM     16  C   UNL     1      10.334   6.864  -1.334  0.00  0.00    +0.067 C 
ATOM     18  C   UNL     1       9.368   7.767  -0.577  0.00  0.00    +0.027 C 
ATOM     19  C   UNL     1       9.684   5.529  -1.679  0.00  0.00    +0.027 C 
ENDBRANCH   8  16
ENDBRANCH  13  15
ENDBRANCH  11  13
BRANCH  12  14
ATOM     14  C   UNL     1      12.519   3.056   1.067  0.00  0.00    +0.138 C 
BRANCH  14   7
ATOM      5  O   UNL     1      10.308   4.806   1.609  0.00  0.00    -0.270 OA
ATOM      7  N   UNL     1      12.204   3.673   2.322  0.00  0.00    -0.309 N 
ATOM     17  C   UNL     1      11.106   4.513   2.495  0.00  0.00    +0.244 C 
ATOM     29  H   UNL     1      12.791   3.429   3.113  0.00  0.00    +0.149 HD
BRANCH  17  20
ATOM     20  C   UNL     1      10.932   5.094   3.852  0.00  0.00    +0.037 A 
ATOM     21  C   UNL     1      10.061   4.492   4.762  0.00  0.00    +0.016 A 
ATOM     22  C   UNL     1      11.636   6.242   4.215  0.00  0.00    +0.016 A 
ATOM     23  C   UNL     1       9.895   5.039   6.033  0.00  0.00    +0.046 A 
ATOM     24  C   UNL     1      11.470   6.789   5.487  0.00  0.00    +0.046 A 
ATOM     25  C   UNL     1      10.599   6.187   6.397  0.00  0.00    +0.120 A 
BRANCH  25   6
ATOM      6  O   UNL     1      10.437   6.721   7.638  0.00  0.00    -0.495 OA
ATOM     26  C   UNL     1       9.498   6.083   8.502  0.00  0.00    +0.277 C 
ENDBRANCH  25   6
ENDBRANCH  17  20
ENDBRANCH  14   7
ENDBRANCH  12  14
TORSDOF 9
ENDMDL
