MODEL 1
REMARK VINA RESULT:      -7.0      0.000      0.000
REMARK  Name = 75536681
REMARK  8 active torsions:
REMARK  status: ('A' for Active; 'I' for Inactive)
REMARK    1  A    between atoms: S_1  and  N_7
REMARK    2  A    between atoms: S_1  and  C_16
REMARK    3  A    between atoms: O_3  and  C_10
REMARK    4  A    between atoms: N_6  and  C_9
REMARK    5  A    between atoms: N_6  and  C_14
REMARK    6  A    between atoms: N_7  and  C_13
REMARK    7  A    between atoms: C_11  and  C_13
REMARK    8  A    between atoms: C_14  and  C_15
REMARK                            x       y       z     vdW  Elec       q    Type
REMARK                         _______ _______ _______ _____ _____    ______ ____
ROOT
ATOM      2  O   UNL     1      10.911   8.487  19.406  0.00  0.00    -0.371 OA
ATOM      9  C   UNL     1      12.759   7.008  19.209  0.00  0.00    +0.111 C 
ATOM     10  C   UNL     1      12.526   7.316  20.677  0.00  0.00    +0.164 C 
ATOM     11  C   UNL     1      11.079   7.790  20.652  0.00  0.00    +0.164 C 
ATOM     12  C   UNL     1      12.008   8.147  18.540  0.00  0.00    +0.181 C 
ENDROOT
BRANCH  10   3
ATOM      3  O   UNL     1      12.696   6.184  21.508  0.00  0.00    -0.388 OA
ATOM     28  H   UNL     1      12.198   5.444  21.122  0.00  0.00    +0.210 HD
ENDBRANCH  10   3
BRANCH   9   6
ATOM      6  N   UNL     1      14.164   6.961  18.839  0.00  0.00    -0.303 NA
ATOM     26  H   UNL     1      14.260   7.220  17.858  0.00  0.00    +0.123 HD
BRANCH   6  14
ATOM     14  C   UNL     1      14.950   7.883  19.650  0.00  0.00    +0.137 C 
BRANCH  14  15
ATOM      8  N   UNL     1      16.726   6.278  19.209  0.00  0.00    -0.259 NA
ATOM     15  C   UNL     1      16.324   7.340  19.944  0.00  0.00    +0.055 A 
ATOM     17  C   UNL     1      17.094   7.939  20.927  0.00  0.00    +0.024 A 
ATOM     20  C   UNL     1      18.358   7.415  21.173  0.00  0.00    +0.003 A 
ATOM     23  C   UNL     1      17.959   5.796  19.477  0.00  0.00    +0.111 A 
ATOM     24  C   UNL     1      18.806   6.323  20.438  0.00  0.00    +0.020 A 
ENDBRANCH  14  15
ENDBRANCH   6  14
ENDBRANCH   9   6
BRANCH  11  13
ATOM     13  C   UNL     1      10.728   8.709  21.807  0.00  0.00    +0.140 C 
BRANCH  13   7
ATOM      7  N   UNL     1      11.950   9.035  22.569  0.00  0.00    -0.187 NA
ATOM     27  H   UNL     1      12.022   8.608  23.501  0.00  0.00    +0.148 HD
BRANCH   7   1
ATOM      1  S   UNL     1      12.767  10.499  22.285  0.00  0.00    +0.058 S 
ATOM      4  O   UNL     1      12.668  10.839  20.878  0.00  0.00    -0.153 OA
ATOM      5  O   UNL     1      14.064  10.450  22.933  0.00  0.00    -0.153 OA
BRANCH   1  16
ATOM     16  C   UNL     1      11.778  11.648  23.193  0.00  0.00    +0.105 A 
ATOM     18  C   UNL     1      11.630  11.502  24.572  0.00  0.00    +0.028 A 
ATOM     19  C   UNL     1      11.143  12.698  22.531  0.00  0.00    +0.028 A 
ATOM     21  C   UNL     1      10.846  12.407  25.290  0.00  0.00    +0.002 A 
ATOM     22  C   UNL     1      10.359  13.603  23.247  0.00  0.00    +0.002 A 
ATOM     25  C   UNL     1      10.211  13.457  24.626  0.00  0.00    +0.000 A 
ENDBRANCH   1  16
ENDBRANCH   7   1
ENDBRANCH  13   7
ENDBRANCH  11  13
TORSDOF 8
ENDMDL
MODEL 2
REMARK VINA RESULT:      -6.6      1.641      2.281
REMARK  Name = 75536681
REMARK  8 active torsions:
REMARK  status: ('A' for Active; 'I' for Inactive)
REMARK    1  A    between atoms: S_1  and  N_7
REMARK    2  A    between atoms: S_1  and  C_16
REMARK    3  A    between atoms: O_3  and  C_10
REMARK    4  A    between atoms: N_6  and  C_9
REMARK    5  A    between atoms: N_6  and  C_14
REMARK    6  A    between atoms: N_7  and  C_13
REMARK    7  A    between atoms: C_11  and  C_13
REMARK    8  A    between atoms: C_14  and  C_15
REMARK                            x       y       z     vdW  Elec       q    Type
REMARK                         _______ _______ _______ _____ _____    ______ ____
ROOT
ATOM      2  O   UNL     1      11.732   9.708  20.572  0.00  0.00    -0.371 OA
ATOM      9  C   UNL     1      12.419   7.465  20.196  0.00  0.00    +0.111 C 
ATOM     10  C   UNL     1      11.778   7.563  21.569  0.00  0.00    +0.164 C 
ATOM     11  C   UNL     1      10.962   8.841  21.421  0.00  0.00    +0.164 C 
ATOM     12  C   UNL     1      12.740   8.923  19.910  0.00  0.00    +0.181 C 
ENDROOT
BRANCH  10   3
ATOM      3  O   UNL     1      10.962   6.448  21.872  0.00  0.00    -0.388 OA
ATOM     28  H   UNL     1      10.034   6.741  21.879  0.00  0.00    +0.210 HD
ENDBRANCH  10   3
BRANCH   9   6
ATOM      6  N   UNL     1      13.594   6.610  20.162  0.00  0.00    -0.303 NA
ATOM     26  H   UNL     1      13.931   6.543  19.202  0.00  0.00    +0.123 HD
BRANCH   6  14
ATOM     14  C   UNL     1      14.660   7.150  20.999  0.00  0.00    +0.137 C 
BRANCH  14  15
ATOM      8  N   UNL     1      17.023   6.779  21.446  0.00  0.00    -0.259 NA
ATOM     15  C   UNL     1      16.019   6.684  20.546  0.00  0.00    +0.055 A 
ATOM     17  C   UNL     1      16.173   6.191  19.261  0.00  0.00    +0.024 A 
ATOM     20  C   UNL     1      17.439   5.768  18.873  0.00  0.00    +0.003 A 
ATOM     23  C   UNL     1      18.240   6.358  21.034  0.00  0.00    +0.111 A 
ATOM     24  C   UNL     1      18.498   5.850  19.772  0.00  0.00    +0.020 A 
ENDBRANCH  14  15
ENDBRANCH   6  14
ENDBRANCH   9   6
BRANCH  11  13
ATOM     13  C   UNL     1      10.683   9.531  22.744  0.00  0.00    +0.140 C 
BRANCH  13   7
ATOM      7  N   UNL     1      11.896  10.239  23.198  0.00  0.00    -0.187 NA
ATOM     27  H   UNL     1      12.770   9.701  23.151  0.00  0.00    +0.148 HD
BRANCH   7   1
ATOM      1  S   UNL     1      11.775  11.486  24.348  0.00  0.00    +0.058 S 
ATOM      4  O   UNL     1      13.104  11.962  24.683  0.00  0.00    -0.153 OA
ATOM      5  O   UNL     1      10.862  11.074  25.397  0.00  0.00    -0.153 OA
BRANCH   1  16
ATOM     16  C   UNL     1      10.961  12.753  23.423  0.00  0.00    +0.105 A 
ATOM     18  C   UNL     1      11.246  12.918  22.067  0.00  0.00    +0.028 A 
ATOM     19  C   UNL     1      10.037  13.589  24.048  0.00  0.00    +0.028 A 
ATOM     21  C   UNL     1      10.606  13.920  21.337  0.00  0.00    +0.002 A 
ATOM     22  C   UNL     1       9.397  14.592  23.318  0.00  0.00    +0.002 A 
ATOM     25  C   UNL     1       9.682  14.757  21.963  0.00  0.00    +0.000 A 
ENDBRANCH   1  16
ENDBRANCH   7   1
ENDBRANCH  13   7
ENDBRANCH  11  13
TORSDOF 8
ENDMDL
MODEL 3
REMARK VINA RESULT:      -6.3     27.254     29.898
REMARK  Name = 75536681
REMARK  8 active torsions:
REMARK  status: ('A' for Active; 'I' for Inactive)
REMARK    1  A    between atoms: S_1  and  N_7
REMARK    2  A    between atoms: S_1  and  C_16
REMARK    3  A    between atoms: O_3  and  C_10
REMARK    4  A    between atoms: N_6  and  C_9
REMARK    5  A    between atoms: N_6  and  C_14
REMARK    6  A    between atoms: N_7  and  C_13
REMARK    7  A    between atoms: C_11  and  C_13
REMARK    8  A    between atoms: C_14  and  C_15
REMARK                            x       y       z     vdW  Elec       q    Type
REMARK                         _______ _______ _______ _____ _____    ______ ____
ROOT
ATOM      2  O   UNL     1     -16.352   2.108  24.496  0.00  0.00    -0.371 OA
ATOM      9  C   UNL     1     -17.428   2.736  26.519  0.00  0.00    +0.111 C 
ATOM     10  C   UNL     1     -16.383   3.780  26.169  0.00  0.00    +0.164 C 
ATOM     11  C   UNL     1     -16.202   3.526  24.678  0.00  0.00    +0.164 C 
ATOM     12  C   UNL     1     -16.971   1.559  25.673  0.00  0.00    +0.181 C 
ENDROOT
BRANCH  10   3
ATOM      3  O   UNL     1     -16.820   5.099  26.430  0.00  0.00    -0.388 OA
ATOM     28  H   UNL     1     -17.755   5.169  26.172  0.00  0.00    +0.210 HD
ENDBRANCH  10   3
BRANCH   9   6
ATOM      6  N   UNL     1     -17.487   2.424  27.938  0.00  0.00    -0.303 NA
ATOM     26  H   UNL     1     -18.456   2.486  28.253  0.00  0.00    +0.123 HD
BRANCH   6  14
ATOM     14  C   UNL     1     -16.991   1.078  28.200  0.00  0.00    +0.137 C 
BRANCH  14  15
ATOM      8  N   UNL     1     -15.895   0.004  30.089  0.00  0.00    -0.259 NA
ATOM     15  C   UNL     1     -15.921   1.073  29.260  0.00  0.00    +0.055 A 
ATOM     17  C   UNL     1     -15.035   2.134  29.336  0.00  0.00    +0.024 A 
ATOM     20  C   UNL     1     -14.058   2.099  30.325  0.00  0.00    +0.003 A 
ATOM     23  C   UNL     1     -14.933   0.004  31.038  0.00  0.00    +0.111 A 
ATOM     24  C   UNL     1     -14.000   1.016  31.197  0.00  0.00    +0.020 A 
ENDBRANCH  14  15
ENDBRANCH   6  14
ENDBRANCH   9   6
BRANCH  11  13
ATOM     13  C   UNL     1     -14.848   3.971  24.154  0.00  0.00    +0.140 C 
BRANCH  13   7
ATOM      7  N   UNL     1     -14.862   5.430  23.925  0.00  0.00    -0.187 NA
ATOM     27  H   UNL     1     -14.922   6.013  24.769  0.00  0.00    +0.148 HD
BRANCH   7   1
ATOM      1  S   UNL     1     -15.462   6.058  22.463  0.00  0.00    +0.058 S 
ATOM      4  O   UNL     1     -16.408   7.120  22.749  0.00  0.00    -0.153 OA
ATOM      5  O   UNL     1     -15.841   4.958  21.597  0.00  0.00    -0.153 OA
BRANCH   1  16
ATOM     16  C   UNL     1     -14.015   6.793  21.764  0.00  0.00    +0.105 A 
ATOM     18  C   UNL     1     -12.912   5.998  21.451  0.00  0.00    +0.028 A 
ATOM     19  C   UNL     1     -13.974   8.166  21.527  0.00  0.00    +0.028 A 
ATOM     21  C   UNL     1     -11.767   6.578  20.902  0.00  0.00    +0.002 A 
ATOM     22  C   UNL     1     -12.831   8.746  20.978  0.00  0.00    +0.002 A 
ATOM     25  C   UNL     1     -11.727   7.952  20.666  0.00  0.00    +0.000 A 
ENDBRANCH   1  16
ENDBRANCH   7   1
ENDBRANCH  13   7
ENDBRANCH  11  13
TORSDOF 8
ENDMDL
MODEL 4
REMARK VINA RESULT:      -6.2     27.595     29.732
REMARK  Name = 75536681
REMARK  8 active torsions:
REMARK  status: ('A' for Active; 'I' for Inactive)
REMARK    1  A    between atoms: S_1  and  N_7
REMARK    2  A    between atoms: S_1  and  C_16
REMARK    3  A    between atoms: O_3  and  C_10
REMARK    4  A    between atoms: N_6  and  C_9
REMARK    5  A    between atoms: N_6  and  C_14
REMARK    6  A    between atoms: N_7  and  C_13
REMARK    7  A    between atoms: C_11  and  C_13
REMARK    8  A    between atoms: C_14  and  C_15
REMARK                            x       y       z     vdW  Elec       q    Type
REMARK                         _______ _______ _______ _____ _____    ______ ____
ROOT
ATOM      2  O   UNL     1     -12.325  -7.864  16.677  0.00  0.00    -0.371 OA
ATOM      9  C   UNL     1      -9.958  -7.676  16.747  0.00  0.00    +0.111 C 
ATOM     10  C   UNL     1     -10.481  -6.906  15.548  0.00  0.00    +0.164 C 
ATOM     11  C   UNL     1     -11.934  -6.688  15.949  0.00  0.00    +0.164 C 
ATOM     12  C   UNL     1     -11.138  -8.581  17.060  0.00  0.00    +0.181 C 
ENDROOT
BRANCH  10   3
ATOM      3  O   UNL     1      -9.801  -5.683  15.344  0.00  0.00    -0.388 OA
ATOM     28  H   UNL     1      -9.158  -5.566  16.066  0.00  0.00    +0.210 HD
ENDBRANCH  10   3
BRANCH   9   6
ATOM      6  N   UNL     1      -8.734  -8.413  16.477  0.00  0.00    -0.303 NA
ATOM     26  H   UNL     1      -7.960  -7.755  16.392  0.00  0.00    +0.123 HD
BRANCH   6  14
ATOM     14  C   UNL     1      -8.440  -9.352  17.554  0.00  0.00    +0.137 C 
BRANCH  14  15
ATOM      8  N   UNL     1      -6.313  -9.532  16.385  0.00  0.00    -0.259 NA
ATOM     15  C   UNL     1      -7.016  -9.839  17.498  0.00  0.00    +0.055 A 
ATOM     17  C   UNL     1      -6.504 -10.561  18.564  0.00  0.00    +0.024 A 
ATOM     20  C   UNL     1      -5.186 -10.996  18.483  0.00  0.00    +0.003 A 
ATOM     23  C   UNL     1      -5.036  -9.971  16.342  0.00  0.00    +0.111 A 
ATOM     24  C   UNL     1      -4.431 -10.699  17.353  0.00  0.00    +0.020 A 
ENDBRANCH  14  15
ENDBRANCH   6  14
ENDBRANCH   9   6
BRANCH  11  13
ATOM     13  C   UNL     1     -12.860  -6.485  14.764  0.00  0.00    +0.140 C 
BRANCH  13   7
ATOM      7  N   UNL     1     -12.346  -5.390  13.916  0.00  0.00    -0.187 NA
ATOM     27  H   UNL     1     -11.573  -4.844  14.314  0.00  0.00    +0.148 HD
BRANCH   7   1
ATOM      1  S   UNL     1     -13.367  -4.641  12.781  0.00  0.00    +0.058 S 
ATOM      4  O   UNL     1     -13.576  -3.257  13.163  0.00  0.00    -0.153 OA
ATOM      5  O   UNL     1     -14.503  -5.506  12.524  0.00  0.00    -0.153 OA
BRANCH   1  16
ATOM     16  C   UNL     1     -12.364  -4.658  11.326  0.00  0.00    +0.105 A 
ATOM     18  C   UNL     1     -11.942  -3.457  10.757  0.00  0.00    +0.028 A 
ATOM     19  C   UNL     1     -11.998  -5.871  10.745  0.00  0.00    +0.028 A 
ATOM     21  C   UNL     1     -11.152  -3.469   9.606  0.00  0.00    +0.002 A 
ATOM     22  C   UNL     1     -11.209  -5.884   9.594  0.00  0.00    +0.002 A 
ATOM     25  C   UNL     1     -10.787  -4.683   9.025  0.00  0.00    +0.000 A 
ENDBRANCH   1  16
ENDBRANCH   7   1
ENDBRANCH  13   7
ENDBRANCH  11  13
TORSDOF 8
ENDMDL
MODEL 5
REMARK VINA RESULT:      -6.2      2.035      2.847
REMARK  Name = 75536681
REMARK  8 active torsions:
REMARK  status: ('A' for Active; 'I' for Inactive)
REMARK    1  A    between atoms: S_1  and  N_7
REMARK    2  A    between atoms: S_1  and  C_16
REMARK    3  A    between atoms: O_3  and  C_10
REMARK    4  A    between atoms: N_6  and  C_9
REMARK    5  A    between atoms: N_6  and  C_14
REMARK    6  A    between atoms: N_7  and  C_13
REMARK    7  A    between atoms: C_11  and  C_13
REMARK    8  A    between atoms: C_14  and  C_15
REMARK                            x       y       z     vdW  Elec       q    Type
REMARK                         _______ _______ _______ _____ _____    ______ ____
ROOT
ATOM      2  O   UNL     1      11.365   6.919  20.584  0.00  0.00    -0.371 OA
ATOM      9  C   UNL     1      13.723   7.058  20.338  0.00  0.00    +0.111 C 
ATOM     10  C   UNL     1      13.262   8.134  21.304  0.00  0.00    +0.164 C 
ATOM     11  C   UNL     1      11.911   7.580  21.738  0.00  0.00    +0.164 C 
ATOM     12  C   UNL     1      12.423   6.711  19.632  0.00  0.00    +0.181 C 
ENDROOT
BRANCH  10   3
ATOM      3  O   UNL     1      14.141   8.299  22.400  0.00  0.00    -0.388 OA
ATOM     28  H   UNL     1      14.219   7.445  22.860  0.00  0.00    +0.210 HD
ENDBRANCH  10   3
BRANCH   9   6
ATOM      6  N   UNL     1      14.763   7.503  19.424  0.00  0.00    -0.303 NA
ATOM     26  H   UNL     1      15.162   8.375  19.771  0.00  0.00    +0.123 HD
BRANCH   6  14
ATOM     14  C   UNL     1      15.823   6.509  19.313  0.00  0.00    +0.137 C 
BRANCH  14  15
ATOM      8  N   UNL     1      16.959   8.038  20.828  0.00  0.00    -0.259 NA
ATOM     15  C   UNL     1      17.053   6.912  20.085  0.00  0.00    +0.055 A 
ATOM     17  C   UNL     1      18.194   6.132  20.000  0.00  0.00    +0.024 A 
ATOM     20  C   UNL     1      19.311   6.531  20.725  0.00  0.00    +0.003 A 
ATOM     23  C   UNL     1      18.064   8.394  21.519  0.00  0.00    +0.111 A 
ATOM     24  C   UNL     1      19.253   7.683  21.501  0.00  0.00    +0.020 A 
ENDBRANCH  14  15
ENDBRANCH   6  14
ENDBRANCH   9   6
BRANCH  11  13
ATOM     13  C   UNL     1      10.950   8.651  22.220  0.00  0.00    +0.140 C 
BRANCH  13   7
ATOM      7  N   UNL     1      11.349   9.960  21.664  0.00  0.00    -0.187 NA
ATOM     27  H   UNL     1      11.996   9.928  20.866  0.00  0.00    +0.148 HD
BRANCH   7   1
ATOM      1  S   UNL     1      11.358  11.341  22.658  0.00  0.00    +0.058 S 
ATOM      4  O   UNL     1      10.768  11.012  23.942  0.00  0.00    -0.153 OA
ATOM      5  O   UNL     1      10.865  12.473  21.897  0.00  0.00    -0.153 OA
BRANCH   1  16
ATOM     16  C   UNL     1      13.089  11.598  22.905  0.00  0.00    +0.105 A 
ATOM     18  C   UNL     1      13.928  11.790  21.807  0.00  0.00    +0.028 A 
ATOM     19  C   UNL     1      13.616  11.605  24.195  0.00  0.00    +0.028 A 
ATOM     21  C   UNL     1      15.296  11.989  22.001  0.00  0.00    +0.002 A 
ATOM     22  C   UNL     1      14.983  11.804  24.390  0.00  0.00    +0.002 A 
ATOM     25  C   UNL     1      15.822  11.996  23.293  0.00  0.00    +0.000 A 
ENDBRANCH   1  16
ENDBRANCH   7   1
ENDBRANCH  13   7
ENDBRANCH  11  13
TORSDOF 8
ENDMDL
MODEL 6
REMARK VINA RESULT:      -6.1     27.115     29.516
REMARK  Name = 75536681
REMARK  8 active torsions:
REMARK  status: ('A' for Active; 'I' for Inactive)
REMARK    1  A    between atoms: S_1  and  N_7
REMARK    2  A    between atoms: S_1  and  C_16
REMARK    3  A    between atoms: O_3  and  C_10
REMARK    4  A    between atoms: N_6  and  C_9
REMARK    5  A    between atoms: N_6  and  C_14
REMARK    6  A    between atoms: N_7  and  C_13
REMARK    7  A    between atoms: C_11  and  C_13
REMARK    8  A    between atoms: C_14  and  C_15
REMARK                            x       y       z     vdW  Elec       q    Type
REMARK                         _______ _______ _______ _____ _____    ______ ____
ROOT
ATOM      2  O   UNL     1     -17.182   5.407  24.983  0.00  0.00    -0.371 OA
ATOM      9  C   UNL     1     -16.052   4.152  23.313  0.00  0.00    +0.111 C 
ATOM     10  C   UNL     1     -15.748   3.552  24.674  0.00  0.00    +0.164 C 
ATOM     11  C   UNL     1     -16.907   4.094  25.500  0.00  0.00    +0.164 C 
ATOM     12  C   UNL     1     -16.548   5.536  23.699  0.00  0.00    +0.181 C 
ENDROOT
BRANCH  10   3
ATOM      3  O   UNL     1     -15.729   2.137  24.656  0.00  0.00    -0.388 OA
ATOM     28  H   UNL     1     -16.648   1.819  24.671  0.00  0.00    +0.210 HD
ENDBRANCH  10   3
BRANCH   9   6
ATOM      6  N   UNL     1     -14.904   4.189  22.423  0.00  0.00    -0.303 NA
ATOM     26  H   UNL     1     -15.222   4.394  21.475  0.00  0.00    +0.123 HD
BRANCH   6  14
ATOM     14  C   UNL     1     -13.955   5.217  22.834  0.00  0.00    +0.137 C 
BRANCH  14  15
ATOM      8  N   UNL     1     -12.194   6.125  21.421  0.00  0.00    -0.259 NA
ATOM     15  C   UNL     1     -13.521   6.075  21.675  0.00  0.00    +0.055 A 
ATOM     17  C   UNL     1     -14.477   6.756  20.940  0.00  0.00    +0.024 A 
ATOM     20  C   UNL     1     -14.045   7.539  19.875  0.00  0.00    +0.003 A 
ATOM     23  C   UNL     1     -11.811   6.896  20.379  0.00  0.00    +0.111 A 
ATOM     24  C   UNL     1     -12.687   7.615  19.583  0.00  0.00    +0.020 A 
ENDBRANCH  14  15
ENDBRANCH   6  14
ENDBRANCH   9   6
BRANCH  11  13
ATOM     13  C   UNL     1     -16.598   4.179  26.983  0.00  0.00    +0.140 C 
BRANCH  13   7
ATOM      7  N   UNL     1     -15.774   3.021  27.384  0.00  0.00    -0.187 NA
ATOM     27  H   UNL     1     -15.247   2.565  26.629  0.00  0.00    +0.148 HD
BRANCH   7   1
ATOM      1  S   UNL     1     -16.213   2.091  28.740  0.00  0.00    +0.058 S 
ATOM      4  O   UNL     1     -15.732   0.733  28.567  0.00  0.00    -0.153 OA
ATOM      5  O   UNL     1     -17.609   2.336  29.049  0.00  0.00    -0.153 OA
BRANCH   1  16
ATOM     16  C   UNL     1     -15.259   2.847  30.021  0.00  0.00    +0.105 A 
ATOM     18  C   UNL     1     -15.771   3.941  30.718  0.00  0.00    +0.028 A 
ATOM     19  C   UNL     1     -13.994   2.351  30.334  0.00  0.00    +0.028 A 
ATOM     21  C   UNL     1     -15.018   4.541  31.727  0.00  0.00    +0.002 A 
ATOM     22  C   UNL     1     -13.239   2.951  31.343  0.00  0.00    +0.002 A 
ATOM     25  C   UNL     1     -13.751   4.045  32.039  0.00  0.00    +0.000 A 
ENDBRANCH   1  16
ENDBRANCH   7   1
ENDBRANCH  13   7
ENDBRANCH  11  13
TORSDOF 8
ENDMDL
MODEL 7
REMARK VINA RESULT:      -6.0      2.288      3.426
REMARK  Name = 75536681
REMARK  8 active torsions:
REMARK  status: ('A' for Active; 'I' for Inactive)
REMARK    1  A    between atoms: S_1  and  N_7
REMARK    2  A    between atoms: S_1  and  C_16
REMARK    3  A    between atoms: O_3  and  C_10
REMARK    4  A    between atoms: N_6  and  C_9
REMARK    5  A    between atoms: N_6  and  C_14
REMARK    6  A    between atoms: N_7  and  C_13
REMARK    7  A    between atoms: C_11  and  C_13
REMARK    8  A    between atoms: C_14  and  C_15
REMARK                            x       y       z     vdW  Elec       q    Type
REMARK                         _______ _______ _______ _____ _____    ______ ____
ROOT
ATOM      2  O   UNL     1      11.298   7.061  20.700  0.00  0.00    -0.371 OA
ATOM      9  C   UNL     1      13.656   7.252  20.493  0.00  0.00    +0.111 C 
ATOM     10  C   UNL     1      13.152   8.332  21.433  0.00  0.00    +0.164 C 
ATOM     11  C   UNL     1      11.807   7.753  21.852  0.00  0.00    +0.164 C 
ATOM     12  C   UNL     1      12.377   6.863  19.770  0.00  0.00    +0.181 C 
ENDROOT
BRANCH  10   3
ATOM      3  O   UNL     1      14.007   8.535  22.542  0.00  0.00    -0.388 OA
ATOM     28  H   UNL     1      14.097   7.690  23.017  0.00  0.00    +0.210 HD
ENDBRANCH  10   3
BRANCH   9   6
ATOM      6  N   UNL     1      14.701   7.707  19.590  0.00  0.00    -0.303 NA
ATOM     26  H   UNL     1      14.550   7.294  18.670  0.00  0.00    +0.123 HD
BRANCH   6  14
ATOM     14  C   UNL     1      14.689   9.159  19.464  0.00  0.00    +0.137 C 
BRANCH  14  15
ATOM      8  N   UNL     1      14.183   8.618  17.146  0.00  0.00    -0.259 NA
ATOM     15  C   UNL     1      14.434   9.596  18.045  0.00  0.00    +0.055 A 
ATOM     17  C   UNL     1      14.465  10.946  17.735  0.00  0.00    +0.024 A 
ATOM     20  C   UNL     1      14.225  11.317  16.417  0.00  0.00    +0.003 A 
ATOM     23  C   UNL     1      13.954   9.017  15.875  0.00  0.00    +0.111 A 
ATOM     24  C   UNL     1      13.963  10.339  15.463  0.00  0.00    +0.020 A 
ENDBRANCH  14  15
ENDBRANCH   6  14
ENDBRANCH   9   6
BRANCH  11  13
ATOM     13  C   UNL     1      10.813   8.809  22.299  0.00  0.00    +0.140 C 
BRANCH  13   7
ATOM      7  N   UNL     1      11.386  10.152  22.083  0.00  0.00    -0.187 NA
ATOM     27  H   UNL     1      11.934  10.270  21.222  0.00  0.00    +0.148 HD
BRANCH   7   1
ATOM      1  S   UNL     1      11.745  11.150  23.413  0.00  0.00    +0.058 S 
ATOM      4  O   UNL     1      13.177  11.383  23.466  0.00  0.00    -0.153 OA
ATOM      5  O   UNL     1      11.045  10.650  24.581  0.00  0.00    -0.153 OA
BRANCH   1  16
ATOM     16  C   UNL     1      10.964  12.666  22.950  0.00  0.00    +0.105 A 
ATOM     18  C   UNL     1      10.231  13.388  23.892  0.00  0.00    +0.028 A 
ATOM     19  C   UNL     1      11.077  13.138  21.643  0.00  0.00    +0.028 A 
ATOM     21  C   UNL     1       9.611  14.583  23.527  0.00  0.00    +0.002 A 
ATOM     22  C   UNL     1      10.457  14.333  21.277  0.00  0.00    +0.002 A 
ATOM     25  C   UNL     1       9.724  15.055  22.219  0.00  0.00    +0.000 A 
ENDBRANCH   1  16
ENDBRANCH   7   1
ENDBRANCH  13   7
ENDBRANCH  11  13
TORSDOF 8
ENDMDL
MODEL 8
REMARK VINA RESULT:      -6.0      4.399      6.537
REMARK  Name = 75536681
REMARK  8 active torsions:
REMARK  status: ('A' for Active; 'I' for Inactive)
REMARK    1  A    between atoms: S_1  and  N_7
REMARK    2  A    between atoms: S_1  and  C_16
REMARK    3  A    between atoms: O_3  and  C_10
REMARK    4  A    between atoms: N_6  and  C_9
REMARK    5  A    between atoms: N_6  and  C_14
REMARK    6  A    between atoms: N_7  and  C_13
REMARK    7  A    between atoms: C_11  and  C_13
REMARK    8  A    between atoms: C_14  and  C_15
REMARK                            x       y       z     vdW  Elec       q    Type
REMARK                         _______ _______ _______ _____ _____    ______ ____
ROOT
ATOM      2  O   UNL     1      12.214   7.910  17.092  0.00  0.00    -0.371 OA
ATOM      9  C   UNL     1      13.083   8.688  19.162  0.00  0.00    +0.111 C 
ATOM     10  C   UNL     1      13.719   9.476  18.031  0.00  0.00    +0.164 C 
ATOM     11  C   UNL     1      12.712   9.247  16.911  0.00  0.00    +0.164 C 
ATOM     12  C   UNL     1      12.553   7.472  18.420  0.00  0.00    +0.181 C 
ENDROOT
BRANCH  10   3
ATOM      3  O   UNL     1      13.865  10.849  18.336  0.00  0.00    -0.388 OA
ATOM     28  H   UNL     1      14.754  11.131  18.060  0.00  0.00    +0.210 HD
ENDBRANCH  10   3
BRANCH   9   6
ATOM      6  N   UNL     1      14.012   8.342  20.225  0.00  0.00    -0.303 NA
ATOM     26  H   UNL     1      13.611   8.617  21.122  0.00  0.00    +0.123 HD
BRANCH   6  14
ATOM     14  C   UNL     1      14.275   6.908  20.245  0.00  0.00    +0.137 C 
BRANCH  14  15
ATOM      8  N   UNL     1      16.188   6.022  19.029  0.00  0.00    -0.259 NA
ATOM     15  C   UNL     1      15.748   6.606  20.167  0.00  0.00    +0.055 A 
ATOM     17  C   UNL     1      16.566   6.934  21.235  0.00  0.00    +0.024 A 
ATOM     20  C   UNL     1      17.922   6.644  21.132  0.00  0.00    +0.003 A 
ATOM     23  C   UNL     1      17.511   5.755  18.964  0.00  0.00    +0.111 A 
ATOM     24  C   UNL     1      18.411   6.043  19.977  0.00  0.00    +0.020 A 
ENDBRANCH  14  15
ENDBRANCH   6  14
ENDBRANCH   9   6
BRANCH  11  13
ATOM     13  C   UNL     1      13.314   9.388  15.525  0.00  0.00    +0.140 C 
BRANCH  13   7
ATOM      7  N   UNL     1      14.613  10.084  15.618  0.00  0.00    -0.187 NA
ATOM     27  H   UNL     1      15.212   9.806  16.406  0.00  0.00    +0.148 HD
BRANCH   7   1
ATOM      1  S   UNL     1      14.789  11.651  14.981  0.00  0.00    +0.058 S 
ATOM      4  O   UNL     1      13.928  12.565  15.709  0.00  0.00    -0.153 OA
ATOM      5  O   UNL     1      14.722  11.582  13.534  0.00  0.00    -0.153 OA
BRANCH   1  16
ATOM     16  C   UNL     1      16.463  12.028  15.404  0.00  0.00    +0.105 A 
ATOM     18  C   UNL     1      16.749  12.679  16.604  0.00  0.00    +0.028 A 
ATOM     19  C   UNL     1      17.498  11.677  14.538  0.00  0.00    +0.028 A 
ATOM     21  C   UNL     1      18.070  12.980  16.937  0.00  0.00    +0.002 A 
ATOM     22  C   UNL     1      18.819  11.978  14.870  0.00  0.00    +0.002 A 
ATOM     25  C   UNL     1      19.104  12.630  16.070  0.00  0.00    +0.000 A 
ENDBRANCH   1  16
ENDBRANCH   7   1
ENDBRANCH  13   7
ENDBRANCH  11  13
TORSDOF 8
ENDMDL
MODEL 9
REMARK VINA RESULT:      -5.9     26.513     28.134
REMARK  Name = 75536681
REMARK  8 active torsions:
REMARK  status: ('A' for Active; 'I' for Inactive)
REMARK    1  A    between atoms: S_1  and  N_7
REMARK    2  A    between atoms: S_1  and  C_16
REMARK    3  A    between atoms: O_3  and  C_10
REMARK    4  A    between atoms: N_6  and  C_9
REMARK    5  A    between atoms: N_6  and  C_14
REMARK    6  A    between atoms: N_7  and  C_13
REMARK    7  A    between atoms: C_11  and  C_13
REMARK    8  A    between atoms: C_14  and  C_15
REMARK                            x       y       z     vdW  Elec       q    Type
REMARK                         _______ _______ _______ _____ _____    ______ ____
ROOT
ATOM      2  O   UNL     1      -5.048 -11.784  15.600  0.00  0.00    -0.371 OA
ATOM      9  C   UNL     1      -2.968 -11.268  14.574  0.00  0.00    +0.111 C 
ATOM     10  C   UNL     1      -2.924 -10.836  16.029  0.00  0.00    +0.164 C 
ATOM     11  C   UNL     1      -4.041 -11.684  16.622  0.00  0.00    +0.164 C 
ATOM     12  C   UNL     1      -4.466 -11.393  14.344  0.00  0.00    +0.181 C 
ENDROOT
BRANCH  10   3
ATOM      3  O   UNL     1      -1.677 -11.105  16.641  0.00  0.00    -0.388 OA
ATOM     28  H   UNL     1      -1.392 -10.306  17.118  0.00  0.00    +0.210 HD
ENDBRANCH  10   3
BRANCH   9   6
ATOM      6  N   UNL     1      -2.333 -10.326  13.667  0.00  0.00    -0.303 NA
ATOM     26  H   UNL     1      -1.545  -9.885  14.142  0.00  0.00    +0.123 HD
BRANCH   6  14
ATOM     14  C   UNL     1      -1.844 -11.001  12.471  0.00  0.00    +0.137 C 
BRANCH  14  15
ATOM      8  N   UNL     1      -3.396 -11.770  10.761  0.00  0.00    -0.259 NA
ATOM     15  C   UNL     1      -2.715 -10.720  11.274  0.00  0.00    +0.055 A 
ATOM     17  C   UNL     1      -2.778  -9.432  10.768  0.00  0.00    +0.024 A 
ATOM     20  C   UNL     1      -3.592  -9.206   9.664  0.00  0.00    +0.003 A 
ATOM     23  C   UNL     1      -4.177 -11.511   9.688  0.00  0.00    +0.111 A 
ATOM     24  C   UNL     1      -4.308 -10.261   9.108  0.00  0.00    +0.020 A 
ENDBRANCH  14  15
ENDBRANCH   6  14
ENDBRANCH   9   6
BRANCH  11  13
ATOM     13  C   UNL     1      -4.644 -11.088  17.881  0.00  0.00    +0.140 C 
BRANCH  13   7
ATOM      7  N   UNL     1      -5.926 -11.757  18.181  0.00  0.00    -0.187 NA
ATOM     27  H   UNL     1      -6.370 -12.244  17.392  0.00  0.00    +0.148 HD
BRANCH   7   1
ATOM      1  S   UNL     1      -6.917 -11.176  19.435  0.00  0.00    +0.058 S 
ATOM      4  O   UNL     1      -6.187 -10.187  20.206  0.00  0.00    -0.153 OA
ATOM      5  O   UNL     1      -7.544 -12.302  20.101  0.00  0.00    -0.153 OA
BRANCH   1  16
ATOM     16  C   UNL     1      -8.185 -10.336  18.535  0.00  0.00    +0.105 A 
ATOM     18  C   UNL     1      -7.844  -9.430  17.531  0.00  0.00    +0.028 A 
ATOM     19  C   UNL     1      -9.526 -10.576  18.830  0.00  0.00    +0.028 A 
ATOM     21  C   UNL     1      -8.844  -8.764  16.822  0.00  0.00    +0.002 A 
ATOM     22  C   UNL     1     -10.527  -9.910  18.122  0.00  0.00    +0.002 A 
ATOM     25  C   UNL     1     -10.186  -9.004  17.118  0.00  0.00    +0.000 A 
ENDBRANCH   1  16
ENDBRANCH   7   1
ENDBRANCH  13   7
ENDBRANCH  11  13
TORSDOF 8
ENDMDL
MODEL 10
REMARK VINA RESULT:      -5.8      4.548      7.084
REMARK  Name = 75536681
REMARK  8 active torsions:
REMARK  status: ('A' for Active; 'I' for Inactive)
REMARK    1  A    between atoms: S_1  and  N_7
REMARK    2  A    between atoms: S_1  and  C_16
REMARK    3  A    between atoms: O_3  and  C_10
REMARK    4  A    between atoms: N_6  and  C_9
REMARK    5  A    between atoms: N_6  and  C_14
REMARK    6  A    between atoms: N_7  and  C_13
REMARK    7  A    between atoms: C_11  and  C_13
REMARK    8  A    between atoms: C_14  and  C_15
REMARK                            x       y       z     vdW  Elec       q    Type
REMARK                         _______ _______ _______ _____ _____    ______ ____
ROOT
ATOM      2  O   UNL     1      13.771   9.501  18.369  0.00  0.00    -0.371 OA
ATOM      9  C   UNL     1      13.594  10.421  16.187  0.00  0.00    +0.111 C 
ATOM     10  C   UNL     1      12.525   9.358  16.364  0.00  0.00    +0.164 C 
ATOM     11  C   UNL     1      12.436   9.280  17.882  0.00  0.00    +0.164 C 
ATOM     12  C   UNL     1      14.558  10.068  17.307  0.00  0.00    +0.181 C 
ENDROOT
BRANCH  10   3
ATOM      3  O   UNL     1      11.289   9.722  15.781  0.00  0.00    -0.388 OA
ATOM     28  H   UNL     1      10.621   9.773  16.487  0.00  0.00    +0.210 HD
ENDBRANCH  10   3
BRANCH   9   6
ATOM      6  N   UNL     1      14.219  10.406  14.874  0.00  0.00    -0.303 NA
ATOM     26  H   UNL     1      13.575   9.990  14.202  0.00  0.00    +0.123 HD
BRANCH   6  14
ATOM     14  C   UNL     1      14.553  11.756  14.437  0.00  0.00    +0.137 C 
BRANCH  14  15
ATOM      8  N   UNL     1      12.380  11.632  13.346  0.00  0.00    -0.259 NA
ATOM     15  C   UNL     1      13.384  12.433  13.770  0.00  0.00    +0.055 A 
ATOM     17  C   UNL     1      13.391  13.810  13.625  0.00  0.00    +0.024 A 
ATOM     20  C   UNL     1      12.297  14.406  13.005  0.00  0.00    +0.003 A 
ATOM     23  C   UNL     1      11.335  12.245  12.749  0.00  0.00    +0.111 A 
ATOM     24  C   UNL     1      11.245  13.614  12.556  0.00  0.00    +0.020 A 
ENDBRANCH  14  15
ENDBRANCH   6  14
ENDBRANCH   9   6
BRANCH  11  13
ATOM     13  C   UNL     1      11.919   7.945  18.386  0.00  0.00    +0.140 C 
BRANCH  13   7
ATOM      7  N   UNL     1      11.113   8.155  19.605  0.00  0.00    -0.187 NA
ATOM     27  H   UNL     1      10.679   9.082  19.699  0.00  0.00    +0.148 HD
BRANCH   7   1
ATOM      1  S   UNL     1      11.463   7.278  21.020  0.00  0.00    +0.058 S 
ATOM      4  O   UNL     1      11.348   5.858  20.746  0.00  0.00    -0.153 OA
ATOM      5  O   UNL     1      10.741   7.867  22.131  0.00  0.00    -0.153 OA
BRANCH   1  16
ATOM     16  C   UNL     1      13.175   7.648  21.260  0.00  0.00    +0.105 A 
ATOM     18  C   UNL     1      14.150   6.762  20.803  0.00  0.00    +0.028 A 
ATOM     19  C   UNL     1      13.550   8.823  21.909  0.00  0.00    +0.028 A 
ATOM     21  C   UNL     1      15.501   7.051  20.995  0.00  0.00    +0.002 A 
ATOM     22  C   UNL     1      14.901   9.113  22.103  0.00  0.00    +0.002 A 
ATOM     25  C   UNL     1      15.876   8.227  21.645  0.00  0.00    +0.000 A 
ENDBRANCH   1  16
ENDBRANCH   7   1
ENDBRANCH  13   7
ENDBRANCH  11  13
TORSDOF 8
ENDMDL
