MODEL 1
REMARK VINA RESULT:      -7.7      0.000      0.000
REMARK  Name = 71693646
REMARK  7 active torsions:
REMARK  status: ('A' for Active; 'I' for Inactive)
REMARK    1  A    between atoms: O_2  and  C_10
REMARK    2  A    between atoms: N_5  and  C_13
REMARK    3  A    between atoms: N_6  and  C_18
REMARK    4  A    between atoms: C_7  and  C_10
REMARK    5  A    between atoms: C_8  and  C_9
REMARK    6  A    between atoms: C_19  and  C_20
REMARK    7  A    between atoms: C_21  and  C_24
REMARK                            x       y       z     vdW  Elec       q    Type
REMARK                         _______ _______ _______ _____ _____    ______ ____
ROOT
ATOM      9  C   UNL     1      15.833   7.402  19.702  0.00  0.00    -0.017 A 
ATOM     14  C   UNL     1      16.767   7.973  20.567  0.00  0.00    +0.008 A 
ATOM     15  C   UNL     1      16.166   6.262  18.970  0.00  0.00    +0.008 A 
ATOM     16  C   UNL     1      18.034   7.404  20.700  0.00  0.00    +0.023 A 
ATOM     17  C   UNL     1      17.432   5.693  19.103  0.00  0.00    +0.023 A 
ATOM     18  C   UNL     1      18.366   6.264  19.968  0.00  0.00    +0.034 A 
ENDROOT
BRANCH   9   8
ATOM      1  O   UNL     1      14.029   7.779  18.217  0.00  0.00    -0.361 OA
ATOM      3  O   UNL     1      10.573   8.603  18.475  0.00  0.00    -0.273 OA
ATOM      5  N   UNL     1      12.035   7.894  20.146  0.00  0.00    -0.295 N 
ATOM      7  C   UNL     1      13.397   7.430  20.508  0.00  0.00    +0.134 C 
ATOM      8  C   UNL     1      14.458   8.019  19.558  0.00  0.00    +0.171 C 
ATOM     11  C   UNL     1      12.881   8.535  17.916  0.00  0.00    +0.256 C 
ATOM     12  C   UNL     1      11.712   8.330  18.859  0.00  0.00    +0.242 C 
ATOM     13  C   UNL     1      10.953   7.659  21.097  0.00  0.00    +0.132 C 
BRANCH   7  10
ATOM     10  C   UNL     1      13.752   7.736  21.970  0.00  0.00    +0.181 C 
BRANCH  10   2
ATOM      2  O   UNL     1      13.837   9.139  22.119  0.00  0.00    -0.393 OA
ATOM     27  H   UNL     1      14.224   9.312  22.995  0.00  0.00    +0.209 HD
ENDBRANCH  10   2
ENDBRANCH   7  10
ENDBRANCH   9   8
BRANCH  18   6
ATOM      4  O   UNL     1      20.090   5.921  22.396  0.00  0.00    -0.270 OA
ATOM      6  N   UNL     1      19.633   5.696  20.101  0.00  0.00    -0.281 N 
ATOM     19  C   UNL     1      20.400   5.560  21.266  0.00  0.00    +0.249 C 
ATOM     28  H   UNL     1      20.038   5.331  19.240  0.00  0.00    +0.155 HD
BRANCH  19  20
ATOM     20  C   UNL     1      21.709   4.879  21.091  0.00  0.00    +0.040 A 
ATOM     21  C   UNL     1      22.853   5.594  20.735  0.00  0.00    -0.038 A 
ATOM     22  C   UNL     1      21.782   3.500  21.290  0.00  0.00    +0.013 A 
ATOM     23  C   UNL     1      24.069   4.931  20.577  0.00  0.00    +0.004 A 
ATOM     24  C   UNL     1      22.802   7.071  20.516  0.00  0.00    +0.044 C 
ATOM     25  C   UNL     1      23.000   2.837  21.133  0.00  0.00    +0.001 A 
ATOM     26  C   UNL     1      24.143   3.552  20.776  0.00  0.00    +0.000 A 
ENDBRANCH  19  20
ENDBRANCH  18   6
TORSDOF 5
ENDMDL
MODEL 2
REMARK VINA RESULT:      -6.9      1.247      2.232
REMARK  Name = 71693646
REMARK  7 active torsions:
REMARK  status: ('A' for Active; 'I' for Inactive)
REMARK    1  A    between atoms: O_2  and  C_10
REMARK    2  A    between atoms: N_5  and  C_13
REMARK    3  A    between atoms: N_6  and  C_18
REMARK    4  A    between atoms: C_7  and  C_10
REMARK    5  A    between atoms: C_8  and  C_9
REMARK    6  A    between atoms: C_19  and  C_20
REMARK    7  A    between atoms: C_21  and  C_24
REMARK                            x       y       z     vdW  Elec       q    Type
REMARK                         _______ _______ _______ _____ _____    ______ ____
ROOT
ATOM      9  C   UNL     1      15.988   6.802  19.916  0.00  0.00    -0.017 A 
ATOM     14  C   UNL     1      16.673   7.642  20.794  0.00  0.00    +0.008 A 
ATOM     15  C   UNL     1      16.686   5.851  19.174  0.00  0.00    +0.008 A 
ATOM     16  C   UNL     1      18.057   7.531  20.929  0.00  0.00    +0.023 A 
ATOM     17  C   UNL     1      18.070   5.738  19.310  0.00  0.00    +0.023 A 
ATOM     18  C   UNL     1      18.755   6.578  20.186  0.00  0.00    +0.034 A 
ENDROOT
BRANCH   9   8
ATOM      1  O   UNL     1      13.933   6.890  21.087  0.00  0.00    -0.361 OA
ATOM      3  O   UNL     1      10.608   7.989  20.433  0.00  0.00    -0.273 OA
ATOM      5  N   UNL     1      12.549   8.397  19.209  0.00  0.00    -0.295 N 
ATOM      7  C   UNL     1      14.019   8.228  19.094  0.00  0.00    +0.134 C 
ATOM      8  C   UNL     1      14.486   6.924  19.771  0.00  0.00    +0.171 C 
ATOM     11  C   UNL     1      12.535   6.739  21.039  0.00  0.00    +0.256 C 
ATOM     12  C   UNL     1      11.804   7.781  20.217  0.00  0.00    +0.242 C 
ATOM     13  C   UNL     1      11.909   9.424  18.393  0.00  0.00    +0.132 C 
BRANCH   7  10
ATOM     10  C   UNL     1      14.504   8.284  17.638  0.00  0.00    +0.181 C 
BRANCH  10   2
ATOM      2  O   UNL     1      13.777   7.327  16.894  0.00  0.00    -0.393 OA
ATOM     27  H   UNL     1      12.919   7.727  16.671  0.00  0.00    +0.209 HD
ENDBRANCH  10   2
ENDBRANCH   7  10
ENDBRANCH   9   8
BRANCH  18   6
ATOM      4  O   UNL     1      20.407   5.659  22.513  0.00  0.00    -0.270 OA
ATOM      6  N   UNL     1      20.139   6.466  20.321  0.00  0.00    -0.281 N 
ATOM     19  C   UNL     1      20.865   6.029  21.438  0.00  0.00    +0.249 C 
ATOM     28  H   UNL     1      20.678   6.730  19.499  0.00  0.00    +0.155 HD
BRANCH  19  20
ATOM     20  C   UNL     1      22.340   5.993  21.265  0.00  0.00    +0.040 A 
ATOM     21  C   UNL     1      23.138   7.070  21.648  0.00  0.00    -0.038 A 
ATOM     22  C   UNL     1      22.925   4.855  20.707  0.00  0.00    +0.013 A 
ATOM     23  C   UNL     1      24.521   7.011  21.474  0.00  0.00    +0.004 A 
ATOM     24  C   UNL     1      22.539   8.301  22.247  0.00  0.00    +0.044 C 
ATOM     25  C   UNL     1      24.308   4.796  20.534  0.00  0.00    +0.001 A 
ATOM     26  C   UNL     1      25.106   5.873  20.917  0.00  0.00    +0.000 A 
ENDBRANCH  19  20
ENDBRANCH  18   6
TORSDOF 5
ENDMDL
MODEL 3
REMARK VINA RESULT:      -6.8      1.936      9.312
REMARK  Name = 71693646
REMARK  7 active torsions:
REMARK  status: ('A' for Active; 'I' for Inactive)
REMARK    1  A    between atoms: O_2  and  C_10
REMARK    2  A    between atoms: N_5  and  C_13
REMARK    3  A    between atoms: N_6  and  C_18
REMARK    4  A    between atoms: C_7  and  C_10
REMARK    5  A    between atoms: C_8  and  C_9
REMARK    6  A    between atoms: C_19  and  C_20
REMARK    7  A    between atoms: C_21  and  C_24
REMARK                            x       y       z     vdW  Elec       q    Type
REMARK                         _______ _______ _______ _____ _____    ______ ____
ROOT
ATOM      9  C   UNL     1      19.289   5.890  20.658  0.00  0.00    -0.017 A 
ATOM     14  C   UNL     1      18.740   5.463  19.449  0.00  0.00    +0.008 A 
ATOM     15  C   UNL     1      18.548   6.709  21.510  0.00  0.00    +0.008 A 
ATOM     16  C   UNL     1      17.450   5.855  19.091  0.00  0.00    +0.023 A 
ATOM     17  C   UNL     1      17.258   7.100  21.153  0.00  0.00    +0.023 A 
ATOM     18  C   UNL     1      16.709   6.674  19.944  0.00  0.00    +0.034 A 
ENDROOT
BRANCH   9   8
ATOM      1  O   UNL     1      20.849   4.112  20.615  0.00  0.00    -0.361 OA
ATOM      3  O   UNL     1      24.378   3.734  20.932  0.00  0.00    -0.273 OA
ATOM      5  N   UNL     1      23.139   5.683  20.615  0.00  0.00    -0.295 N 
ATOM      7  C   UNL     1      21.808   6.303  20.398  0.00  0.00    +0.134 C 
ATOM      8  C   UNL     1      20.689   5.464  21.045  0.00  0.00    +0.171 C 
ATOM     11  C   UNL     1      22.020   3.550  21.158  0.00  0.00    +0.256 C 
ATOM     12  C   UNL     1      23.294   4.319  20.871  0.00  0.00    +0.242 C 
ATOM     13  C   UNL     1      24.325   6.477  20.313  0.00  0.00    +0.132 C 
BRANCH   7  10
ATOM     10  C   UNL     1      21.750   7.755  20.894  0.00  0.00    +0.181 C 
BRANCH  10   2
ATOM      2  O   UNL     1      21.817   7.743  22.306  0.00  0.00    -0.393 OA
ATOM     27  H   UNL     1      21.745   8.665  22.605  0.00  0.00    +0.209 HD
ENDBRANCH  10   2
ENDBRANCH   7  10
ENDBRANCH   9   8
BRANCH  18   6
ATOM      4  O   UNL     1      15.537   9.414  19.617  0.00  0.00    -0.270 OA
ATOM      6  N   UNL     1      15.419   7.066  19.587  0.00  0.00    -0.281 N 
ATOM     19  C   UNL     1      14.920   8.368  19.448  0.00  0.00    +0.249 C 
ATOM     28  H   UNL     1      14.770   6.304  19.398  0.00  0.00    +0.155 HD
BRANCH  19  20
ATOM     20  C   UNL     1      13.499   8.465  19.024  0.00  0.00    +0.040 A 
ATOM     21  C   UNL     1      12.465   8.477  19.960  0.00  0.00    -0.038 A 
ATOM     22  C   UNL     1      13.208   8.543  17.661  0.00  0.00    +0.013 A 
ATOM     23  C   UNL     1      11.140   8.567  19.534  0.00  0.00    +0.004 A 
ATOM     24  C   UNL     1      12.749   8.393  21.424  0.00  0.00    +0.044 C 
ATOM     25  C   UNL     1      11.882   8.635  17.236  0.00  0.00    +0.001 A 
ATOM     26  C   UNL     1      10.848   8.647  18.172  0.00  0.00    +0.000 A 
ENDBRANCH  19  20
ENDBRANCH  18   6
TORSDOF 5
ENDMDL
MODEL 4
REMARK VINA RESULT:      -6.8      1.501      2.227
REMARK  Name = 71693646
REMARK  7 active torsions:
REMARK  status: ('A' for Active; 'I' for Inactive)
REMARK    1  A    between atoms: O_2  and  C_10
REMARK    2  A    between atoms: N_5  and  C_13
REMARK    3  A    between atoms: N_6  and  C_18
REMARK    4  A    between atoms: C_7  and  C_10
REMARK    5  A    between atoms: C_8  and  C_9
REMARK    6  A    between atoms: C_19  and  C_20
REMARK    7  A    between atoms: C_21  and  C_24
REMARK                            x       y       z     vdW  Elec       q    Type
REMARK                         _______ _______ _______ _____ _____    ______ ____
ROOT
ATOM      9  C   UNL     1      15.863   7.667  20.437  0.00  0.00    -0.017 A 
ATOM     14  C   UNL     1      16.892   8.143  21.250  0.00  0.00    +0.008 A 
ATOM     15  C   UNL     1      16.087   6.578  19.595  0.00  0.00    +0.008 A 
ATOM     16  C   UNL     1      18.145   7.529  21.221  0.00  0.00    +0.023 A 
ATOM     17  C   UNL     1      17.339   5.963  19.567  0.00  0.00    +0.023 A 
ATOM     18  C   UNL     1      18.368   6.439  20.379  0.00  0.00    +0.034 A 
ENDROOT
BRANCH   9   8
ATOM      1  O   UNL     1      13.947   8.085  21.761  0.00  0.00    -0.361 OA
ATOM      3  O   UNL     1      11.237  10.398  21.764  0.00  0.00    -0.273 OA
ATOM      5  N   UNL     1      13.224  10.475  20.547  0.00  0.00    -0.295 N 
ATOM      7  C   UNL     1      14.542   9.859  20.255  0.00  0.00    +0.134 C 
ATOM      8  C   UNL     1      14.504   8.333  20.470  0.00  0.00    +0.171 C 
ATOM     11  C   UNL     1      12.586   8.443  21.795  0.00  0.00    +0.256 C 
ATOM     12  C   UNL     1      12.288   9.872  21.389  0.00  0.00    +0.242 C 
ATOM     13  C   UNL     1      13.004  11.857  20.133  0.00  0.00    +0.132 C 
BRANCH   7  10
ATOM     10  C   UNL     1      15.046  10.193  18.843  0.00  0.00    +0.181 C 
BRANCH  10   2
ATOM      2  O   UNL     1      14.293   9.438  17.915  0.00  0.00    -0.393 OA
ATOM     27  H   UNL     1      14.794   8.624  17.733  0.00  0.00    +0.209 HD
ENDBRANCH  10   2
ENDBRANCH   7  10
ENDBRANCH   9   8
BRANCH  18   6
ATOM      4  O   UNL     1      20.281   5.833  22.605  0.00  0.00    -0.270 OA
ATOM      6  N   UNL     1      19.620   5.826  20.349  0.00  0.00    -0.281 N 
ATOM     19  C   UNL     1      20.479   5.566  21.426  0.00  0.00    +0.249 C 
ATOM     28  H   UNL     1      19.936   5.528  19.428  0.00  0.00    +0.155 HD
BRANCH  19  20
ATOM     20  C   UNL     1      21.743   4.867  21.078  0.00  0.00    +0.040 A 
ATOM     21  C   UNL     1      22.858   5.573  20.627  0.00  0.00    -0.038 A 
ATOM     22  C   UNL     1      21.803   3.479  21.209  0.00  0.00    +0.013 A 
ATOM     23  C   UNL     1      24.032   4.892  20.307  0.00  0.00    +0.004 A 
ATOM     24  C   UNL     1      22.822   7.059  20.477  0.00  0.00    +0.044 C 
ATOM     25  C   UNL     1      22.978   2.798  20.889  0.00  0.00    +0.001 A 
ATOM     26  C   UNL     1      24.093   3.504  20.438  0.00  0.00    +0.000 A 
ENDBRANCH  19  20
ENDBRANCH  18   6
TORSDOF 5
ENDMDL
MODEL 5
REMARK VINA RESULT:      -6.5     28.270     31.845
REMARK  Name = 71693646
REMARK  7 active torsions:
REMARK  status: ('A' for Active; 'I' for Inactive)
REMARK    1  A    between atoms: O_2  and  C_10
REMARK    2  A    between atoms: N_5  and  C_13
REMARK    3  A    between atoms: N_6  and  C_18
REMARK    4  A    between atoms: C_7  and  C_10
REMARK    5  A    between atoms: C_8  and  C_9
REMARK    6  A    between atoms: C_19  and  C_20
REMARK    7  A    between atoms: C_21  and  C_24
REMARK                            x       y       z     vdW  Elec       q    Type
REMARK                         _______ _______ _______ _____ _____    ______ ____
ROOT
ATOM      9  C   UNL     1     -12.159   7.726  20.071  0.00  0.00    -0.017 A 
ATOM     14  C   UNL     1     -11.585   6.795  20.937  0.00  0.00    +0.008 A 
ATOM     15  C   UNL     1     -13.538   7.726  19.862  0.00  0.00    +0.008 A 
ATOM     16  C   UNL     1     -12.390   5.864  21.595  0.00  0.00    +0.023 A 
ATOM     17  C   UNL     1     -14.343   6.796  20.521  0.00  0.00    +0.023 A 
ATOM     18  C   UNL     1     -13.769   5.865  21.386  0.00  0.00    +0.034 A 
ENDROOT
BRANCH   9   8
ATOM      1  O   UNL     1     -11.197   8.324  17.994  0.00  0.00    -0.361 OA
ATOM      3  O   UNL     1      -9.814  11.253  16.511  0.00  0.00    -0.273 OA
ATOM      5  N   UNL     1     -11.068  11.057  18.466  0.00  0.00    -0.295 N 
ATOM      7  C   UNL     1     -11.831  10.176  19.385  0.00  0.00    +0.134 C 
ATOM      8  C   UNL     1     -11.284   8.736  19.358  0.00  0.00    +0.171 C 
ATOM     11  C   UNL     1     -10.201   9.052  17.315  0.00  0.00    +0.256 C 
ATOM     12  C   UNL     1     -10.356  10.558  17.373  0.00  0.00    +0.242 C 
ATOM     13  C   UNL     1     -11.268  12.499  18.571  0.00  0.00    +0.132 C 
BRANCH   7  10
ATOM     10  C   UNL     1     -11.863  10.715  20.822  0.00  0.00    +0.181 C 
BRANCH  10   2
ATOM      2  O   UNL     1     -13.207  10.996  21.158  0.00  0.00    -0.393 OA
ATOM     27  H   UNL     1     -13.264  11.011  22.129  0.00  0.00    +0.209 HD
ENDBRANCH  10   2
ENDBRANCH   7  10
ENDBRANCH   9   8
BRANCH  18   6
ATOM      4  O   UNL     1     -15.840   6.258  23.517  0.00  0.00    -0.270 OA
ATOM      6  N   UNL     1     -14.574   4.935  22.043  0.00  0.00    -0.281 N 
ATOM     19  C   UNL     1     -15.532   5.172  23.038  0.00  0.00    +0.249 C 
ATOM     28  H   UNL     1     -14.447   3.968  21.751  0.00  0.00    +0.155 HD
BRANCH  19  20
ATOM     20  C   UNL     1     -16.254   3.970  23.528  0.00  0.00    +0.040 A 
ATOM     21  C   UNL     1     -17.378   3.482  22.862  0.00  0.00    -0.038 A 
ATOM     22  C   UNL     1     -15.789   3.327  24.676  0.00  0.00    +0.013 A 
ATOM     23  C   UNL     1     -18.038   2.351  23.343  0.00  0.00    +0.004 A 
ATOM     24  C   UNL     1     -17.898   4.151  21.631  0.00  0.00    +0.044 C 
ATOM     25  C   UNL     1     -16.449   2.195  25.156  0.00  0.00    +0.001 A 
ATOM     26  C   UNL     1     -17.573   1.707  24.491  0.00  0.00    +0.000 A 
ENDBRANCH  19  20
ENDBRANCH  18   6
TORSDOF 5
ENDMDL
MODEL 6
REMARK VINA RESULT:      -6.4     17.663     21.093
REMARK  Name = 71693646
REMARK  7 active torsions:
REMARK  status: ('A' for Active; 'I' for Inactive)
REMARK    1  A    between atoms: O_2  and  C_10
REMARK    2  A    between atoms: N_5  and  C_13
REMARK    3  A    between atoms: N_6  and  C_18
REMARK    4  A    between atoms: C_7  and  C_10
REMARK    5  A    between atoms: C_8  and  C_9
REMARK    6  A    between atoms: C_19  and  C_20
REMARK    7  A    between atoms: C_21  and  C_24
REMARK                            x       y       z     vdW  Elec       q    Type
REMARK                         _______ _______ _______ _____ _____    ______ ____
ROOT
ATOM      9  C   UNL     1      11.414   3.987   0.072  0.00  0.00    -0.017 A 
ATOM     14  C   UNL     1      12.013   3.418   1.196  0.00  0.00    +0.008 A 
ATOM     15  C   UNL     1      10.421   4.954   0.226  0.00  0.00    +0.008 A 
ATOM     16  C   UNL     1      11.620   3.816   2.474  0.00  0.00    +0.023 A 
ATOM     17  C   UNL     1      10.028   5.353   1.504  0.00  0.00    +0.023 A 
ATOM     18  C   UNL     1      10.626   4.784   2.627  0.00  0.00    +0.034 A 
ENDROOT
BRANCH   9   8
ATOM      1  O   UNL     1      10.669   3.107  -1.994  0.00  0.00    -0.361 OA
ATOM      3  O   UNL     1      11.868   2.959  -5.346  0.00  0.00    -0.273 OA
ATOM      5  N   UNL     1      12.643   4.257  -3.572  0.00  0.00    -0.295 N 
ATOM      7  C   UNL     1      12.480   4.676  -2.158  0.00  0.00    +0.134 C 
ATOM      8  C   UNL     1      11.842   3.555  -1.314  0.00  0.00    +0.171 C 
ATOM     11  C   UNL     1      11.006   2.449  -3.192  0.00  0.00    +0.256 C 
ATOM     12  C   UNL     1      11.861   3.255  -4.149  0.00  0.00    +0.242 C 
ATOM     13  C   UNL     1      13.475   5.083  -4.442  0.00  0.00    +0.132 C 
BRANCH   7  10
ATOM     10  C   UNL     1      13.801   5.141  -1.528  0.00  0.00    +0.181 C 
BRANCH  10   2
ATOM      2  O   UNL     1      14.613   4.004  -1.315  0.00  0.00    -0.393 OA
ATOM     27  H   UNL     1      15.406   4.302  -0.837  0.00  0.00    +0.209 HD
ENDBRANCH  10   2
ENDBRANCH   7  10
ENDBRANCH   9   8
BRANCH  18   6
ATOM      4  O   UNL     1      11.877   6.746   4.517  0.00  0.00    -0.270 OA
ATOM      6  N   UNL     1      10.233   5.181   3.905  0.00  0.00    -0.281 N 
ATOM     19  C   UNL     1      10.857   6.108   4.751  0.00  0.00    +0.249 C 
ATOM     28  H   UNL     1       9.381   4.744   4.252  0.00  0.00    +0.155 HD
BRANCH  19  20
ATOM     20  C   UNL     1      10.176   6.343   6.051  0.00  0.00    +0.040 A 
ATOM     21  C   UNL     1       9.197   7.326   6.185  0.00  0.00    -0.038 A 
ATOM     22  C   UNL     1      10.534   5.560   7.149  0.00  0.00    +0.013 A 
ATOM     23  C   UNL     1       8.574   7.527   7.417  0.00  0.00    +0.004 A 
ATOM     24  C   UNL     1       8.795   8.180   5.026  0.00  0.00    +0.044 C 
ATOM     25  C   UNL     1       9.910   5.760   8.381  0.00  0.00    +0.001 A 
ATOM     26  C   UNL     1       8.930   6.744   8.515  0.00  0.00    +0.000 A 
ENDBRANCH  19  20
ENDBRANCH  18   6
TORSDOF 5
ENDMDL
MODEL 7
REMARK VINA RESULT:      -6.4     30.848     33.478
REMARK  Name = 71693646
REMARK  7 active torsions:
REMARK  status: ('A' for Active; 'I' for Inactive)
REMARK    1  A    between atoms: O_2  and  C_10
REMARK    2  A    between atoms: N_5  and  C_13
REMARK    3  A    between atoms: N_6  and  C_18
REMARK    4  A    between atoms: C_7  and  C_10
REMARK    5  A    between atoms: C_8  and  C_9
REMARK    6  A    between atoms: C_19  and  C_20
REMARK    7  A    between atoms: C_21  and  C_24
REMARK                            x       y       z     vdW  Elec       q    Type
REMARK                         _______ _______ _______ _____ _____    ______ ____
ROOT
ATOM      9  C   UNL     1      -8.282  -7.622   8.263  0.00  0.00    -0.017 A 
ATOM     14  C   UNL     1      -9.303  -8.268   8.962  0.00  0.00    +0.008 A 
ATOM     15  C   UNL     1      -8.367  -6.252   8.013  0.00  0.00    +0.008 A 
ATOM     16  C   UNL     1     -10.407  -7.544   9.411  0.00  0.00    +0.023 A 
ATOM     17  C   UNL     1      -9.470  -5.528   8.464  0.00  0.00    +0.023 A 
ATOM     18  C   UNL     1     -10.491  -6.174   9.162  0.00  0.00    +0.034 A 
ENDROOT
BRANCH   9   8
ATOM      1  O   UNL     1      -6.604  -9.170   8.884  0.00  0.00    -0.361 OA
ATOM      3  O   UNL     1      -4.398 -11.424   7.227  0.00  0.00    -0.273 OA
ATOM      5  N   UNL     1      -6.249 -10.296   6.371  0.00  0.00    -0.295 N 
ATOM      7  C   UNL     1      -7.395  -9.388   6.626  0.00  0.00    +0.134 C 
ATOM      8  C   UNL     1      -7.084  -8.408   7.775  0.00  0.00    +0.171 C 
ATOM     11  C   UNL     1      -5.345  -9.730   8.597  0.00  0.00    +0.256 C 
ATOM     12  C   UNL     1      -5.291 -10.583   7.346  0.00  0.00    +0.242 C 
ATOM     13  C   UNL     1      -6.264 -11.093   5.148  0.00  0.00    +0.132 C 
BRANCH   7  10
ATOM     10  C   UNL     1      -7.829  -8.623   5.367  0.00  0.00    +0.181 C 
BRANCH  10   2
ATOM      2  O   UNL     1      -6.830  -7.672   5.061  0.00  0.00    -0.393 OA
ATOM     27  H   UNL     1      -6.103  -7.805   5.694  0.00  0.00    +0.209 HD
ENDBRANCH  10   2
ENDBRANCH   7  10
ENDBRANCH   9   8
BRANCH  18   6
ATOM      4  O   UNL     1     -10.832  -3.226   9.588  0.00  0.00    -0.270 OA
ATOM      6  N   UNL     1     -11.595  -5.450   9.612  0.00  0.00    -0.281 N 
ATOM     19  C   UNL     1     -11.703  -4.064   9.795  0.00  0.00    +0.249 C 
ATOM     28  H   UNL     1     -12.422  -6.006   9.823  0.00  0.00    +0.155 HD
BRANCH  19  20
ATOM     20  C   UNL     1     -13.029  -3.584  10.262  0.00  0.00    +0.040 A 
ATOM     21  C   UNL     1     -13.342  -3.537  11.620  0.00  0.00    -0.038 A 
ATOM     22  C   UNL     1     -13.969  -3.177   9.315  0.00  0.00    +0.013 A 
ATOM     23  C   UNL     1     -14.594  -3.083  12.032  0.00  0.00    +0.004 A 
ATOM     24  C   UNL     1     -12.354  -3.968  12.656  0.00  0.00    +0.044 C 
ATOM     25  C   UNL     1     -15.222  -2.722   9.727  0.00  0.00    +0.001 A 
ATOM     26  C   UNL     1     -15.535  -2.675  11.085  0.00  0.00    +0.000 A 
ENDBRANCH  19  20
ENDBRANCH  18   6
TORSDOF 5
ENDMDL
MODEL 8
REMARK VINA RESULT:      -6.4     17.710     21.265
REMARK  Name = 71693646
REMARK  7 active torsions:
REMARK  status: ('A' for Active; 'I' for Inactive)
REMARK    1  A    between atoms: O_2  and  C_10
REMARK    2  A    between atoms: N_5  and  C_13
REMARK    3  A    between atoms: N_6  and  C_18
REMARK    4  A    between atoms: C_7  and  C_10
REMARK    5  A    between atoms: C_8  and  C_9
REMARK    6  A    between atoms: C_19  and  C_20
REMARK    7  A    between atoms: C_21  and  C_24
REMARK                            x       y       z     vdW  Elec       q    Type
REMARK                         _______ _______ _______ _____ _____    ______ ____
ROOT
ATOM      9  C   UNL     1      10.221   5.865   3.247  0.00  0.00    -0.017 A 
ATOM     14  C   UNL     1      10.539   4.581   2.802  0.00  0.00    +0.008 A 
ATOM     15  C   UNL     1       9.760   6.821   2.342  0.00  0.00    +0.008 A 
ATOM     16  C   UNL     1      10.396   4.254   1.454  0.00  0.00    +0.023 A 
ATOM     17  C   UNL     1       9.616   6.494   0.994  0.00  0.00    +0.023 A 
ATOM     18  C   UNL     1       9.934   5.211   0.550  0.00  0.00    +0.034 A 
ENDROOT
BRANCH   9   8
ATOM      1  O   UNL     1       9.699   5.210   5.460  0.00  0.00    -0.361 OA
ATOM      3  O   UNL     1      10.929   5.885   8.734  0.00  0.00    -0.273 OA
ATOM      5  N   UNL     1      11.908   6.372   6.676  0.00  0.00    -0.295 N 
ATOM      7  C   UNL     1      11.838   6.271   5.197  0.00  0.00    +0.134 C 
ATOM      8  C   UNL     1      10.377   6.219   4.710  0.00  0.00    +0.171 C 
ATOM     11  C   UNL     1       9.570   5.591   6.809  0.00  0.00    +0.256 C 
ATOM     12  C   UNL     1      10.870   5.941   7.504  0.00  0.00    +0.242 C 
ATOM     13  C   UNL     1      13.193   6.707   7.282  0.00  0.00    +0.132 C 
BRANCH   7  10
ATOM     10  C   UNL     1      12.602   7.402   4.495  0.00  0.00    +0.181 C 
BRANCH  10   2
ATOM      2  O   UNL     1      13.649   6.826   3.739  0.00  0.00    -0.393 OA
ATOM     27  H   UNL     1      14.359   7.488   3.681  0.00  0.00    +0.209 HD
ENDBRANCH  10   2
ENDBRANCH   7  10
ENDBRANCH   9   8
BRANCH  18   6
ATOM      4  O   UNL     1      11.966   5.141  -1.653  0.00  0.00    -0.270 OA
ATOM      6  N   UNL     1       9.791   4.884  -0.799  0.00  0.00    -0.281 N 
ATOM     19  C   UNL     1      10.779   4.867  -1.792  0.00  0.00    +0.249 C 
ATOM     28  H   UNL     1       8.850   4.618  -1.083  0.00  0.00    +0.155 HD
BRANCH  19  20
ATOM     20  C   UNL     1      10.320   4.444  -3.141  0.00  0.00    +0.040 A 
ATOM     21  C   UNL     1      10.410   3.114  -3.550  0.00  0.00    -0.038 A 
ATOM     22  C   UNL     1       9.791   5.405  -4.003  0.00  0.00    +0.013 A 
ATOM     23  C   UNL     1       9.973   2.743  -4.821  0.00  0.00    +0.004 A 
ATOM     24  C   UNL     1      10.973   2.065  -2.646  0.00  0.00    +0.044 C 
ATOM     25  C   UNL     1       9.353   5.034  -5.275  0.00  0.00    +0.001 A 
ATOM     26  C   UNL     1       9.443   3.704  -5.684  0.00  0.00    +0.000 A 
ENDBRANCH  19  20
ENDBRANCH  18   6
TORSDOF 5
ENDMDL
MODEL 9
REMARK VINA RESULT:      -6.3     26.141     29.255
REMARK  Name = 71693646
REMARK  7 active torsions:
REMARK  status: ('A' for Active; 'I' for Inactive)
REMARK    1  A    between atoms: O_2  and  C_10
REMARK    2  A    between atoms: N_5  and  C_13
REMARK    3  A    between atoms: N_6  and  C_18
REMARK    4  A    between atoms: C_7  and  C_10
REMARK    5  A    between atoms: C_8  and  C_9
REMARK    6  A    between atoms: C_19  and  C_20
REMARK    7  A    between atoms: C_21  and  C_24
REMARK                            x       y       z     vdW  Elec       q    Type
REMARK                         _______ _______ _______ _____ _____    ______ ____
ROOT
ATOM      9  C   UNL     1     -11.617   8.258  19.056  0.00  0.00    -0.017 A 
ATOM     14  C   UNL     1     -11.302   8.050  17.713  0.00  0.00    +0.008 A 
ATOM     15  C   UNL     1     -11.158   9.401  19.711  0.00  0.00    +0.008 A 
ATOM     16  C   UNL     1     -10.530   8.985  17.024  0.00  0.00    +0.023 A 
ATOM     17  C   UNL     1     -10.387  10.336  19.022  0.00  0.00    +0.023 A 
ATOM     18  C   UNL     1     -10.072  10.128  17.679  0.00  0.00    +0.034 A 
ENDROOT
BRANCH   9   8
ATOM      1  O   UNL     1     -11.749   6.913  20.999  0.00  0.00    -0.361 OA
ATOM      3  O   UNL     1     -14.294   5.209  22.819  0.00  0.00    -0.273 OA
ATOM      5  N   UNL     1     -14.520   6.808  21.138  0.00  0.00    -0.295 N 
ATOM      7  C   UNL     1     -13.855   7.749  20.203  0.00  0.00    +0.134 C 
ATOM      8  C   UNL     1     -12.456   7.242  19.803  0.00  0.00    +0.171 C 
ATOM     11  C   UNL     1     -12.323   5.792  21.627  0.00  0.00    +0.256 C 
ATOM     12  C   UNL     1     -13.801   5.918  21.939  0.00  0.00    +0.242 C 
ATOM     13  C   UNL     1     -15.944   6.990  21.399  0.00  0.00    +0.132 C 
BRANCH   7  10
ATOM     10  C   UNL     1     -14.704   8.034  18.956  0.00  0.00    +0.181 C 
BRANCH  10   2
ATOM      2  O   UNL     1     -14.960   9.423  18.904  0.00  0.00    -0.393 OA
ATOM     27  H   UNL     1     -14.283   9.819  18.330  0.00  0.00    +0.209 HD
ENDBRANCH  10   2
ENDBRANCH   7  10
ENDBRANCH   9   8
BRANCH  18   6
ATOM      4  O   UNL     1     -10.227  13.122  17.645  0.00  0.00    -0.270 OA
ATOM      6  N   UNL     1      -9.299  11.063  16.991  0.00  0.00    -0.281 N 
ATOM     19  C   UNL     1      -9.414  12.460  17.010  0.00  0.00    +0.249 C 
ATOM     28  H   UNL     1      -8.558  10.672  16.412  0.00  0.00    +0.155 HD
BRANCH  19  20
ATOM     20  C   UNL     1      -8.418  13.193  16.186  0.00  0.00    +0.040 A 
ATOM     21  C   UNL     1      -8.742  13.671  14.917  0.00  0.00    -0.038 A 
ATOM     22  C   UNL     1      -7.139  13.399  16.704  0.00  0.00    +0.013 A 
ATOM     23  C   UNL     1      -7.788  14.355  14.164  0.00  0.00    +0.004 A 
ATOM     24  C   UNL     1     -10.104  13.463  14.338  0.00  0.00    +0.044 C 
ATOM     25  C   UNL     1      -6.184  14.085  15.951  0.00  0.00    +0.001 A 
ATOM     26  C   UNL     1      -6.508  14.563  14.681  0.00  0.00    +0.000 A 
ENDBRANCH  19  20
ENDBRANCH  18   6
TORSDOF 5
ENDMDL
MODEL 10
REMARK VINA RESULT:      -6.3      2.368      9.269
REMARK  Name = 71693646
REMARK  7 active torsions:
REMARK  status: ('A' for Active; 'I' for Inactive)
REMARK    1  A    between atoms: O_2  and  C_10
REMARK    2  A    between atoms: N_5  and  C_13
REMARK    3  A    between atoms: N_6  and  C_18
REMARK    4  A    between atoms: C_7  and  C_10
REMARK    5  A    between atoms: C_8  and  C_9
REMARK    6  A    between atoms: C_19  and  C_20
REMARK    7  A    between atoms: C_21  and  C_24
REMARK                            x       y       z     vdW  Elec       q    Type
REMARK                         _______ _______ _______ _____ _____    ______ ____
ROOT
ATOM      9  C   UNL     1      19.910   7.292  20.865  0.00  0.00    -0.017 A 
ATOM     14  C   UNL     1      19.092   6.234  20.469  0.00  0.00    +0.008 A 
ATOM     15  C   UNL     1      19.352   8.411  21.484  0.00  0.00    +0.008 A 
ATOM     16  C   UNL     1      17.716   6.294  20.691  0.00  0.00    +0.023 A 
ATOM     17  C   UNL     1      17.977   8.471  21.708  0.00  0.00    +0.023 A 
ATOM     18  C   UNL     1      17.159   7.413  21.311  0.00  0.00    +0.034 A 
ENDROOT
BRANCH   9   8
ATOM      1  O   UNL     1      21.834   8.548  20.298  0.00  0.00    -0.361 OA
ATOM      3  O   UNL     1      25.365   8.181  20.598  0.00  0.00    -0.273 OA
ATOM      5  N   UNL     1      23.675   6.943  21.619  0.00  0.00    -0.295 N 
ATOM      7  C   UNL     1      22.220   6.746  21.838  0.00  0.00    +0.134 C 
ATOM      8  C   UNL     1      21.403   7.226  20.623  0.00  0.00    +0.171 C 
ATOM     11  C   UNL     1      23.153   8.538  19.808  0.00  0.00    +0.256 C 
ATOM     12  C   UNL     1      24.173   7.891  20.723  0.00  0.00    +0.242 C 
ATOM     13  C   UNL     1      24.603   6.296  22.541  0.00  0.00    +0.132 C 
BRANCH   7  10
ATOM     10  C   UNL     1      21.871   5.291  22.184  0.00  0.00    +0.181 C 
BRANCH  10   2
ATOM      2  O   UNL     1      21.293   5.270  23.473  0.00  0.00    -0.393 OA
ATOM     27  H   UNL     1      21.888   5.763  24.063  0.00  0.00    +0.209 HD
ENDBRANCH  10   2
ENDBRANCH   7  10
ENDBRANCH   9   8
BRANCH  18   6
ATOM      4  O   UNL     1      14.971   8.572  19.621  0.00  0.00    -0.270 OA
ATOM      6  N   UNL     1      15.783   7.474  21.534  0.00  0.00    -0.281 N 
ATOM     19  C   UNL     1      14.798   8.030  20.706  0.00  0.00    +0.249 C 
ATOM     28  H   UNL     1      15.465   7.051  22.404  0.00  0.00    +0.155 HD
BRANCH  19  20
ATOM     20  C   UNL     1      13.404   7.914  21.207  0.00  0.00    +0.040 A 
ATOM     21  C   UNL     1      12.816   8.939  21.949  0.00  0.00    -0.038 A 
ATOM     22  C   UNL     1      12.683   6.754  20.925  0.00  0.00    +0.013 A 
ATOM     23  C   UNL     1      11.506   8.804  22.407  0.00  0.00    +0.004 A 
ATOM     24  C   UNL     1      13.566  10.191  22.266  0.00  0.00    +0.044 C 
ATOM     25  C   UNL     1      11.371   6.620  21.384  0.00  0.00    +0.001 A 
ATOM     26  C   UNL     1      10.783   7.644  22.125  0.00  0.00    +0.000 A 
ENDBRANCH  19  20
ENDBRANCH  18   6
TORSDOF 5
ENDMDL
