MODEL 1
REMARK VINA RESULT:      -6.2      0.000      0.000
REMARK  Name = 75368545
REMARK  4 active torsions:
REMARK  status: ('A' for Active; 'I' for Inactive)
REMARK    1  A    between atoms: N_3  and  C_10
REMARK    2  A    between atoms: C_10  and  C_12
REMARK    3  A    between atoms: C_12  and  C_13
REMARK    4  A    between atoms: C_13  and  C_14
REMARK                            x       y       z     vdW  Elec       q    Type
REMARK                         _______ _______ _______ _____ _____    ______ ____
ROOT
ATOM      1  O   UNL     1      10.410   9.766  22.562  0.00  0.00    -0.253 OA
ATOM      2  N   UNL     1      12.209   8.448  21.809  0.00  0.00    -0.279 N 
ATOM      3  N   UNL     1      14.484   7.697  20.338  0.00  0.00    -0.299 NA
ATOM      4  N   UNL     1      10.193   7.486  22.053  0.00  0.00    -0.297 N 
ATOM      5  C   UNL     1      12.440   7.044  21.545  0.00  0.00    +0.109 C 
ATOM      6  C   UNL     1      13.259   6.873  20.266  0.00  0.00    +0.108 C 
ATOM      7  C   UNL     1      13.321   9.374  21.759  0.00  0.00    +0.125 C 
ATOM      8  C   UNL     1      14.148   9.127  20.494  0.00  0.00    +0.103 C 
ATOM      9  C   UNL     1      11.034   6.452  21.493  0.00  0.00    +0.129 C 
ATOM     11  C   UNL     1      10.887   8.703  22.190  0.00  0.00    +0.303 C 
ATOM     20  H   UNL     1       9.202   7.376  22.245  0.00  0.00    +0.150 HD
ENDROOT
BRANCH   3  10
ATOM     10  C   UNL     1      15.304   7.493  19.144  0.00  0.00    +0.085 C 
BRANCH  10  12
ATOM     12  C   UNL     1      16.502   6.602  19.470  0.00  0.00    +0.020 C 
BRANCH  12  13
ATOM     13  C   UNL     1      17.062   6.917  20.859  0.00  0.00    +0.036 C 
BRANCH  13  14
ATOM     14  C   UNL     1      18.512   6.522  20.979  0.00  0.00    -0.047 A 
ATOM     15  C   UNL     1      19.359   7.228  21.834  0.00  0.00    +0.003 A 
ATOM     16  C   UNL     1      19.006   5.451  20.235  0.00  0.00    +0.003 A 
ATOM     17  C   UNL     1      20.701   6.862  21.944  0.00  0.00    +0.000 A 
ATOM     18  C   UNL     1      20.348   5.085  20.346  0.00  0.00    +0.000 A 
ATOM     19  C   UNL     1      21.195   5.790  21.200  0.00  0.00    +0.000 A 
ENDBRANCH  13  14
ENDBRANCH  12  13
ENDBRANCH  10  12
ENDBRANCH   3  10
TORSDOF 4
ENDMDL
MODEL 2
REMARK VINA RESULT:      -5.9      2.120      2.873
REMARK  Name = 75368545
REMARK  4 active torsions:
REMARK  status: ('A' for Active; 'I' for Inactive)
REMARK    1  A    between atoms: N_3  and  C_10
REMARK    2  A    between atoms: C_10  and  C_12
REMARK    3  A    between atoms: C_12  and  C_13
REMARK    4  A    between atoms: C_13  and  C_14
REMARK                            x       y       z     vdW  Elec       q    Type
REMARK                         _______ _______ _______ _____ _____    ______ ____
ROOT
ATOM      1  O   UNL     1      11.369  13.013  22.865  0.00  0.00    -0.253 OA
ATOM      2  N   UNL     1      12.120  11.038  21.828  0.00  0.00    -0.279 N 
ATOM      3  N   UNL     1      12.988   9.302  19.793  0.00  0.00    -0.299 NA
ATOM      4  N   UNL     1      10.413  10.911  23.282  0.00  0.00    -0.297 N 
ATOM      5  C   UNL     1      11.853   9.621  21.954  0.00  0.00    +0.109 C 
ATOM      6  C   UNL     1      11.777   8.971  20.573  0.00  0.00    +0.108 C 
ATOM      7  C   UNL     1      13.196  11.485  20.967  0.00  0.00    +0.125 C 
ATOM      8  C   UNL     1      13.119  10.764  19.619  0.00  0.00    +0.103 C 
ATOM      9  C   UNL     1      10.557   9.571  22.760  0.00  0.00    +0.129 C 
ATOM     11  C   UNL     1      11.317  11.805  22.678  0.00  0.00    +0.303 C 
ATOM     20  H   UNL     1       9.692  11.194  23.939  0.00  0.00    +0.150 HD
ENDROOT
BRANCH   3  10
ATOM     10  C   UNL     1      12.954   8.635  18.492  0.00  0.00    +0.085 C 
BRANCH  10  12
ATOM     12  C   UNL     1      14.091   7.620  18.387  0.00  0.00    +0.020 C 
BRANCH  12  13
ATOM     13  C   UNL     1      14.340   6.930  19.731  0.00  0.00    +0.036 C 
BRANCH  13  14
ATOM     14  C   UNL     1      15.800   6.617  19.935  0.00  0.00    -0.047 A 
ATOM     15  C   UNL     1      16.409   6.894  21.160  0.00  0.00    +0.003 A 
ATOM     16  C   UNL     1      16.543   6.049  18.900  0.00  0.00    +0.003 A 
ATOM     17  C   UNL     1      17.760   6.604  21.348  0.00  0.00    +0.000 A 
ATOM     18  C   UNL     1      17.895   5.760  19.089  0.00  0.00    +0.000 A 
ATOM     19  C   UNL     1      18.503   6.037  20.313  0.00  0.00    +0.000 A 
ENDBRANCH  13  14
ENDBRANCH  12  13
ENDBRANCH  10  12
ENDBRANCH   3  10
TORSDOF 4
ENDMDL
MODEL 3
REMARK VINA RESULT:      -5.6      4.139      8.197
REMARK  Name = 75368545
REMARK  4 active torsions:
REMARK  status: ('A' for Active; 'I' for Inactive)
REMARK    1  A    between atoms: N_3  and  C_10
REMARK    2  A    between atoms: C_10  and  C_12
REMARK    3  A    between atoms: C_12  and  C_13
REMARK    4  A    between atoms: C_13  and  C_14
REMARK                            x       y       z     vdW  Elec       q    Type
REMARK                         _______ _______ _______ _____ _____    ______ ____
ROOT
ATOM      1  O   UNL     1      10.779   5.821  21.459  0.00  0.00    -0.253 OA
ATOM      2  N   UNL     1      11.938   7.811  21.942  0.00  0.00    -0.279 N 
ATOM      3  N   UNL     1      12.456  10.566  22.165  0.00  0.00    -0.299 NA
ATOM      4  N   UNL     1      13.025   6.162  20.870  0.00  0.00    -0.297 N 
ATOM      5  C   UNL     1      13.305   8.278  21.842  0.00  0.00    +0.109 C 
ATOM      6  C   UNL     1      13.337   9.719  21.334  0.00  0.00    +0.108 C 
ATOM      7  C   UNL     1      10.953   8.635  22.609  0.00  0.00    +0.125 C 
ATOM      8  C   UNL     1      11.061  10.081  22.116  0.00  0.00    +0.103 C 
ATOM      9  C   UNL     1      13.967   7.257  20.921  0.00  0.00    +0.129 C 
ATOM     11  C   UNL     1      11.784   6.516  21.435  0.00  0.00    +0.303 C 
ATOM     20  H   UNL     1      13.202   5.275  20.409  0.00  0.00    +0.150 HD
ENDROOT
BRANCH   3  10
ATOM     10  C   UNL     1      12.526  11.959  21.724  0.00  0.00    +0.085 C 
BRANCH  10  12
ATOM     12  C   UNL     1      11.128  12.575  21.690  0.00  0.00    +0.020 C 
BRANCH  12  13
ATOM     13  C   UNL     1      11.166  14.050  22.095  0.00  0.00    +0.036 C 
BRANCH  13  14
ATOM     14  C   UNL     1      11.096  14.220  23.591  0.00  0.00    -0.047 A 
ATOM     15  C   UNL     1      10.591  13.191  24.387  0.00  0.00    +0.003 A 
ATOM     16  C   UNL     1      11.537  15.405  24.180  0.00  0.00    +0.003 A 
ATOM     17  C   UNL     1      10.526  13.349  25.772  0.00  0.00    +0.000 A 
ATOM     18  C   UNL     1      11.472  15.561  25.565  0.00  0.00    +0.000 A 
ATOM     19  C   UNL     1      10.967  14.534  26.360  0.00  0.00    +0.000 A 
ENDBRANCH  13  14
ENDBRANCH  12  13
ENDBRANCH  10  12
ENDBRANCH   3  10
TORSDOF 4
ENDMDL
MODEL 4
REMARK VINA RESULT:      -5.5     26.145     28.097
REMARK  Name = 75368545
REMARK  4 active torsions:
REMARK  status: ('A' for Active; 'I' for Inactive)
REMARK    1  A    between atoms: N_3  and  C_10
REMARK    2  A    between atoms: C_10  and  C_12
REMARK    3  A    between atoms: C_12  and  C_13
REMARK    4  A    between atoms: C_13  and  C_14
REMARK                            x       y       z     vdW  Elec       q    Type
REMARK                         _______ _______ _______ _____ _____    ______ ____
ROOT
ATOM      1  O   UNL     1      -4.165 -12.806  10.192  0.00  0.00    -0.253 OA
ATOM      2  N   UNL     1      -2.710 -11.946  11.829  0.00  0.00    -0.279 N 
ATOM      3  N   UNL     1      -1.639 -11.402  14.371  0.00  0.00    -0.299 NA
ATOM      4  N   UNL     1      -3.375 -10.597  10.161  0.00  0.00    -0.297 N 
ATOM      5  C   UNL     1      -1.960 -10.724  12.027  0.00  0.00    +0.109 C 
ATOM      6  C   UNL     1      -2.037 -10.286  13.489  0.00  0.00    +0.108 C 
ATOM      7  C   UNL     1      -2.506 -13.059  12.733  0.00  0.00    +0.125 C 
ATOM      8  C   UNL     1      -2.529 -12.566  14.182  0.00  0.00    +0.103 C 
ATOM      9  C   UNL     1      -2.588  -9.753  11.031  0.00  0.00    +0.129 C 
ATOM     11  C   UNL     1      -3.495 -11.903  10.672  0.00  0.00    +0.303 C 
ATOM     20  H   UNL     1      -3.856 -10.270   9.328  0.00  0.00    +0.150 HD
ENDROOT
BRANCH   3  10
ATOM     10  C   UNL     1      -1.651 -10.975  15.770  0.00  0.00    +0.085 C 
BRANCH  10  12
ATOM     12  C   UNL     1      -3.081 -10.689  16.225  0.00  0.00    +0.020 C 
BRANCH  12  13
ATOM     13  C   UNL     1      -3.375 -11.355  17.571  0.00  0.00    +0.036 C 
BRANCH  13  14
ATOM     14  C   UNL     1      -4.786 -11.087  18.030  0.00  0.00    -0.047 A 
ATOM     15  C   UNL     1      -5.228 -11.586  19.256  0.00  0.00    +0.003 A 
ATOM     16  C   UNL     1      -5.649 -10.338  17.230  0.00  0.00    +0.003 A 
ATOM     17  C   UNL     1      -6.533 -11.339  19.680  0.00  0.00    +0.000 A 
ATOM     18  C   UNL     1      -6.954 -10.090  17.655  0.00  0.00    +0.000 A 
ATOM     19  C   UNL     1      -7.396 -10.590  18.880  0.00  0.00    +0.000 A 
ENDBRANCH  13  14
ENDBRANCH  12  13
ENDBRANCH  10  12
ENDBRANCH   3  10
TORSDOF 4
ENDMDL
MODEL 5
REMARK VINA RESULT:      -5.5     30.202     31.928
REMARK  Name = 75368545
REMARK  4 active torsions:
REMARK  status: ('A' for Active; 'I' for Inactive)
REMARK    1  A    between atoms: N_3  and  C_10
REMARK    2  A    between atoms: C_10  and  C_12
REMARK    3  A    between atoms: C_12  and  C_13
REMARK    4  A    between atoms: C_13  and  C_14
REMARK                            x       y       z     vdW  Elec       q    Type
REMARK                         _______ _______ _______ _____ _____    ______ ____
ROOT
ATOM      1  O   UNL     1     -16.372   0.619  28.259  0.00  0.00    -0.253 OA
ATOM      2  N   UNL     1     -15.607   1.592  30.260  0.00  0.00    -0.279 N 
ATOM      3  N   UNL     1     -14.547   3.522  32.009  0.00  0.00    -0.299 NA
ATOM      4  N   UNL     1     -14.954  -0.498  29.759  0.00  0.00    -0.297 N 
ATOM      5  C   UNL     1     -14.864   1.152  31.423  0.00  0.00    +0.109 C 
ATOM      6  C   UNL     1     -13.860   2.224  31.846  0.00  0.00    +0.108 C 
ATOM      7  C   UNL     1     -16.199   2.913  30.253  0.00  0.00    +0.125 C 
ATOM      8  C   UNL     1     -15.180   3.945  30.742  0.00  0.00    +0.103 C 
ATOM      9  C   UNL     1     -14.244  -0.168  30.973  0.00  0.00    +0.129 C 
ATOM     11  C   UNL     1     -15.730   0.583  29.299  0.00  0.00    +0.303 C 
ATOM     20  H   UNL     1     -14.843  -1.370  29.250  0.00  0.00    +0.150 HD
ENDROOT
BRANCH   3  10
ATOM     10  C   UNL     1     -13.606   4.541  32.473  0.00  0.00    +0.085 C 
BRANCH  10  12
ATOM     12  C   UNL     1     -14.188   5.296  33.667  0.00  0.00    +0.020 C 
BRANCH  12  13
ATOM     13  C   UNL     1     -14.566   6.728  33.281  0.00  0.00    +0.036 C 
BRANCH  13  14
ATOM     14  C   UNL     1     -13.413   7.680  33.471  0.00  0.00    -0.047 A 
ATOM     15  C   UNL     1     -12.711   8.157  32.363  0.00  0.00    +0.003 A 
ATOM     16  C   UNL     1     -13.048   8.085  34.755  0.00  0.00    +0.003 A 
ATOM     17  C   UNL     1     -11.643   9.037  32.540  0.00  0.00    +0.000 A 
ATOM     18  C   UNL     1     -11.980   8.966  34.931  0.00  0.00    +0.000 A 
ATOM     19  C   UNL     1     -11.278   9.442  33.824  0.00  0.00    +0.000 A 
ENDBRANCH  13  14
ENDBRANCH  12  13
ENDBRANCH  10  12
ENDBRANCH   3  10
TORSDOF 4
ENDMDL
MODEL 6
REMARK VINA RESULT:      -5.4     26.461     27.945
REMARK  Name = 75368545
REMARK  4 active torsions:
REMARK  status: ('A' for Active; 'I' for Inactive)
REMARK    1  A    between atoms: N_3  and  C_10
REMARK    2  A    between atoms: C_10  and  C_12
REMARK    3  A    between atoms: C_12  and  C_13
REMARK    4  A    between atoms: C_13  and  C_14
REMARK                            x       y       z     vdW  Elec       q    Type
REMARK                         _______ _______ _______ _____ _____    ______ ____
ROOT
ATOM      1  O   UNL     1      -8.501 -10.575  16.685  0.00  0.00    -0.253 OA
ATOM      2  N   UNL     1      -6.174 -10.310  16.448  0.00  0.00    -0.279 N 
ATOM      3  N   UNL     1      -3.600 -10.540  15.340  0.00  0.00    -0.299 NA
ATOM      4  N   UNL     1      -6.997 -10.870  18.462  0.00  0.00    -0.297 N 
ATOM      5  C   UNL     1      -5.026 -10.288  17.330  0.00  0.00    +0.109 C 
ATOM      6  C   UNL     1      -3.861 -11.050  16.702  0.00  0.00    +0.108 C 
ATOM      7  C   UNL     1      -6.003  -9.970  15.051  0.00  0.00    +0.125 C 
ATOM      8  C   UNL     1      -4.790 -10.707  14.479  0.00  0.00    +0.103 C 
ATOM      9  C   UNL     1      -5.561 -10.886  18.628  0.00  0.00    +0.129 C 
ATOM     11  C   UNL     1      -7.363 -10.578  17.134  0.00  0.00    +0.303 C 
ATOM     20  H   UNL     1      -7.660 -11.122  19.188  0.00  0.00    +0.150 HD
ENDROOT
BRANCH   3  10
ATOM     10  C   UNL     1      -2.447 -11.222  14.753  0.00  0.00    +0.085 C 
BRANCH  10  12
ATOM     12  C   UNL     1      -1.978 -10.486  13.499  0.00  0.00    +0.020 C 
BRANCH  12  13
ATOM     13  C   UNL     1      -1.928 -11.428  12.293  0.00  0.00    +0.036 C 
BRANCH  13  14
ATOM     14  C   UNL     1      -2.780 -10.924  11.156  0.00  0.00    -0.047 A 
ATOM     15  C   UNL     1      -3.598 -11.809  10.452  0.00  0.00    +0.003 A 
ATOM     16  C   UNL     1      -2.750  -9.574  10.808  0.00  0.00    +0.003 A 
ATOM     17  C   UNL     1      -4.385 -11.343   9.399  0.00  0.00    +0.000 A 
ATOM     18  C   UNL     1      -3.539  -9.108   9.755  0.00  0.00    +0.000 A 
ATOM     19  C   UNL     1      -4.356  -9.992   9.051  0.00  0.00    +0.000 A 
ENDBRANCH  13  14
ENDBRANCH  12  13
ENDBRANCH  10  12
ENDBRANCH   3  10
TORSDOF 4
ENDMDL
MODEL 7
REMARK VINA RESULT:      -5.4     33.502     34.861
REMARK  Name = 75368545
REMARK  4 active torsions:
REMARK  status: ('A' for Active; 'I' for Inactive)
REMARK    1  A    between atoms: N_3  and  C_10
REMARK    2  A    between atoms: C_10  and  C_12
REMARK    3  A    between atoms: C_12  and  C_13
REMARK    4  A    between atoms: C_13  and  C_14
REMARK                            x       y       z     vdW  Elec       q    Type
REMARK                         _______ _______ _______ _____ _____    ______ ____
ROOT
ATOM      1  O   UNL     1       1.078 -12.261  -8.385  0.00  0.00    -0.253 OA
ATOM      2  N   UNL     1       1.412 -12.653  -6.089  0.00  0.00    -0.279 N 
ATOM      3  N   UNL     1       2.353 -13.877  -3.739  0.00  0.00    -0.299 NA
ATOM      4  N   UNL     1      -0.664 -12.194  -6.814  0.00  0.00    -0.297 N 
ATOM      5  C   UNL     1       0.615 -12.561  -4.883  0.00  0.00    +0.109 C 
ATOM      6  C   UNL     1       0.898 -13.753  -3.969  0.00  0.00    +0.108 C 
ATOM      7  C   UNL     1       2.831 -12.922  -5.984  0.00  0.00    +0.125 C 
ATOM      8  C   UNL     1       3.072 -14.080  -5.013  0.00  0.00    +0.103 C 
ATOM      9  C   UNL     1      -0.816 -12.476  -5.405  0.00  0.00    +0.129 C 
ATOM     11  C   UNL     1       0.669 -12.356  -7.236  0.00  0.00    +0.303 C 
ATOM     20  H   UNL     1      -1.434 -11.988  -7.443  0.00  0.00    +0.150 HD
ENDROOT
BRANCH   3  10
ATOM     10  C   UNL     1       2.629 -14.978  -2.817  0.00  0.00    +0.085 C 
BRANCH  10  12
ATOM     12  C   UNL     1       4.073 -14.904  -2.321  0.00  0.00    +0.020 C 
BRANCH  12  13
ATOM     13  C   UNL     1       4.184 -14.017  -1.078  0.00  0.00    +0.036 C 
BRANCH  13  14
ATOM     14  C   UNL     1       4.231 -14.835   0.188  0.00  0.00    -0.047 A 
ATOM     15  C   UNL     1       5.396 -15.523   0.531  0.00  0.00    +0.003 A 
ATOM     16  C   UNL     1       3.111 -14.902   1.016  0.00  0.00    +0.003 A 
ATOM     17  C   UNL     1       5.439 -16.280   1.702  0.00  0.00    +0.000 A 
ATOM     18  C   UNL     1       3.156 -15.659   2.188  0.00  0.00    +0.000 A 
ATOM     19  C   UNL     1       4.319 -16.347   2.530  0.00  0.00    +0.000 A 
ENDBRANCH  13  14
ENDBRANCH  12  13
ENDBRANCH  10  12
ENDBRANCH   3  10
TORSDOF 4
ENDMDL
MODEL 8
REMARK VINA RESULT:      -5.4      3.398      6.446
REMARK  Name = 75368545
REMARK  4 active torsions:
REMARK  status: ('A' for Active; 'I' for Inactive)
REMARK    1  A    between atoms: N_3  and  C_10
REMARK    2  A    between atoms: C_10  and  C_12
REMARK    3  A    between atoms: C_12  and  C_13
REMARK    4  A    between atoms: C_13  and  C_14
REMARK                            x       y       z     vdW  Elec       q    Type
REMARK                         _______ _______ _______ _____ _____    ______ ____
ROOT
ATOM      1  O   UNL     1      18.193   9.133  21.123  0.00  0.00    -0.253 OA
ATOM      2  N   UNL     1      16.039   8.197  21.268  0.00  0.00    -0.279 N 
ATOM      3  N   UNL     1      13.632   6.996  20.449  0.00  0.00    -0.299 NA
ATOM      4  N   UNL     1      16.463  10.105  22.375  0.00  0.00    -0.297 N 
ATOM      5  C   UNL     1      14.832   8.456  22.026  0.00  0.00    +0.109 C 
ATOM      6  C   UNL     1      13.603   8.306  21.131  0.00  0.00    +0.108 C 
ATOM      7  C   UNL     1      16.119   7.010  20.443  0.00  0.00    +0.125 C 
ATOM      8  C   UNL     1      14.842   6.866  19.610  0.00  0.00    +0.103 C 
ATOM      9  C   UNL     1      15.055   9.858  22.585  0.00  0.00    +0.129 C 
ATOM     11  C   UNL     1      17.042   9.135  21.535  0.00  0.00    +0.303 C 
ATOM     20  H   UNL     1      16.958  10.923  22.718  0.00  0.00    +0.150 HD
ENDROOT
BRANCH   3  10
ATOM     10  C   UNL     1      12.429   6.818  19.637  0.00  0.00    +0.085 C 
BRANCH  10  12
ATOM     12  C   UNL     1      12.697   7.240  18.193  0.00  0.00    +0.020 C 
BRANCH  12  13
ATOM     13  C   UNL     1      11.866   8.469  17.814  0.00  0.00    +0.036 C 
BRANCH  13  14
ATOM     14  C   UNL     1      12.731   9.583  17.282  0.00  0.00    -0.047 A 
ATOM     15  C   UNL     1      12.995   9.669  15.914  0.00  0.00    +0.003 A 
ATOM     16  C   UNL     1      13.266  10.530  18.156  0.00  0.00    +0.003 A 
ATOM     17  C   UNL     1      13.796  10.700  15.422  0.00  0.00    +0.000 A 
ATOM     18  C   UNL     1      14.066  11.560  17.662  0.00  0.00    +0.000 A 
ATOM     19  C   UNL     1      14.331  11.646  16.296  0.00  0.00    +0.000 A 
ENDBRANCH  13  14
ENDBRANCH  12  13
ENDBRANCH  10  12
ENDBRANCH   3  10
TORSDOF 4
ENDMDL
MODEL 9
REMARK VINA RESULT:      -5.3      3.528      5.841
REMARK  Name = 75368545
REMARK  4 active torsions:
REMARK  status: ('A' for Active; 'I' for Inactive)
REMARK    1  A    between atoms: N_3  and  C_10
REMARK    2  A    between atoms: C_10  and  C_12
REMARK    3  A    between atoms: C_12  and  C_13
REMARK    4  A    between atoms: C_13  and  C_14
REMARK                            x       y       z     vdW  Elec       q    Type
REMARK                         _______ _______ _______ _____ _____    ______ ____
ROOT
ATOM      1  O   UNL     1      11.288   6.105  20.855  0.00  0.00    -0.253 OA
ATOM      2  N   UNL     1      12.406   8.012  21.662  0.00  0.00    -0.279 N 
ATOM      3  N   UNL     1      13.043  10.725  22.037  0.00  0.00    -0.299 NA
ATOM      4  N   UNL     1      13.628   6.268  20.946  0.00  0.00    -0.297 N 
ATOM      5  C   UNL     1      13.774   8.375  21.966  0.00  0.00    +0.109 C 
ATOM      6  C   UNL     1      14.061   9.801  21.495  0.00  0.00    +0.108 C 
ATOM      7  C   UNL     1      11.334   8.919  22.017  0.00  0.00    +0.125 C 
ATOM      8  C   UNL     1      11.690  10.343  21.583  0.00  0.00    +0.103 C 
ATOM      9  C   UNL     1      14.595   7.291  21.273  0.00  0.00    +0.129 C 
ATOM     11  C   UNL     1      12.308   6.723  21.127  0.00  0.00    +0.303 C 
ATOM     20  H   UNL     1      13.863   5.363  20.552  0.00  0.00    +0.150 HD
ENDROOT
BRANCH   3  10
ATOM     10  C   UNL     1      13.344  12.101  21.641  0.00  0.00    +0.085 C 
BRANCH  10  12
ATOM     12  C   UNL     1      14.182  12.114  20.364  0.00  0.00    +0.020 C 
BRANCH  12  13
ATOM     13  C   UNL     1      13.301  12.315  19.129  0.00  0.00    +0.036 C 
BRANCH  13  14
ATOM     14  C   UNL     1      13.599  11.295  18.058  0.00  0.00    -0.047 A 
ATOM     15  C   UNL     1      12.908  10.084  18.037  0.00  0.00    +0.003 A 
ATOM     16  C   UNL     1      14.566  11.564  17.090  0.00  0.00    +0.003 A 
ATOM     17  C   UNL     1      13.184   9.141  17.047  0.00  0.00    +0.000 A 
ATOM     18  C   UNL     1      14.842  10.620  16.100  0.00  0.00    +0.000 A 
ATOM     19  C   UNL     1      14.152   9.410  16.078  0.00  0.00    +0.000 A 
ENDBRANCH  13  14
ENDBRANCH  12  13
ENDBRANCH  10  12
ENDBRANCH   3  10
TORSDOF 4
ENDMDL
MODEL 10
REMARK VINA RESULT:      -5.3      5.021      6.760
REMARK  Name = 75368545
REMARK  4 active torsions:
REMARK  status: ('A' for Active; 'I' for Inactive)
REMARK    1  A    between atoms: N_3  and  C_10
REMARK    2  A    between atoms: C_10  and  C_12
REMARK    3  A    between atoms: C_12  and  C_13
REMARK    4  A    between atoms: C_13  and  C_14
REMARK                            x       y       z     vdW  Elec       q    Type
REMARK                         _______ _______ _______ _____ _____    ______ ____
ROOT
ATOM      1  O   UNL     1      11.277   6.208  20.858  0.00  0.00    -0.253 OA
ATOM      2  N   UNL     1      12.511   7.688  19.506  0.00  0.00    -0.279 N 
ATOM      3  N   UNL     1      13.312   9.113  17.219  0.00  0.00    -0.299 NA
ATOM      4  N   UNL     1      13.622   6.290  20.869  0.00  0.00    -0.297 N 
ATOM      5  C   UNL     1      13.900   8.073  19.372  0.00  0.00    +0.109 C 
ATOM      6  C   UNL     1      14.270   8.213  17.895  0.00  0.00    +0.108 C 
ATOM      7  C   UNL     1      11.498   8.412  18.767  0.00  0.00    +0.125 C 
ATOM      8  C   UNL     1      11.937   8.583  17.311  0.00  0.00    +0.103 C 
ATOM      9  C   UNL     1      14.651   6.976  20.121  0.00  0.00    +0.129 C 
ATOM     11  C   UNL     1      12.333   6.678  20.458  0.00  0.00    +0.303 C 
ATOM     20  H   UNL     1      13.801   5.555  21.547  0.00  0.00    +0.150 HD
ENDROOT
BRANCH   3  10
ATOM     10  C   UNL     1      13.693   9.302  15.820  0.00  0.00    +0.085 C 
BRANCH  10  12
ATOM     12  C   UNL     1      13.920  10.785  15.528  0.00  0.00    +0.020 C 
BRANCH  12  13
ATOM     13  C   UNL     1      15.371  11.185  15.808  0.00  0.00    +0.036 C 
BRANCH  13  14
ATOM     14  C   UNL     1      16.084  11.613  14.550  0.00  0.00    -0.047 A 
ATOM     15  C   UNL     1      15.399  11.642  13.335  0.00  0.00    +0.003 A 
ATOM     16  C   UNL     1      17.429  11.982  14.602  0.00  0.00    +0.003 A 
ATOM     17  C   UNL     1      16.060  12.037  12.172  0.00  0.00    +0.000 A 
ATOM     18  C   UNL     1      18.088  12.378  13.438  0.00  0.00    +0.000 A 
ATOM     19  C   UNL     1      17.404  12.406  12.224  0.00  0.00    +0.000 A 
ENDBRANCH  13  14
ENDBRANCH  12  13
ENDBRANCH  10  12
ENDBRANCH   3  10
TORSDOF 4
ENDMDL
