MODEL 1
REMARK VINA RESULT:      -7.4      0.000      0.000
REMARK  Name = 71693033
REMARK  10 active torsions:
REMARK  status: ('A' for Active; 'I' for Inactive)
REMARK    1  A    between atoms: N_2  and  C_12
REMARK    2  A    between atoms: C_5  and  C_9
REMARK    3  A    between atoms: C_6  and  C_12
REMARK    4  A    between atoms: C_8  and  C_13
REMARK    5  A    between atoms: C_9  and  C_14
REMARK    6  A    between atoms: C_9  and  C_15
REMARK    7  A    between atoms: C_10  and  C_16
REMARK    8  A    between atoms: C_13  and  C_17
REMARK    9  A    between atoms: C_18  and  C_22
REMARK   10  A    between atoms: C_24  and  C_28
REMARK                            x       y       z     vdW  Elec       q    Type
REMARK                         _______ _______ _______ _____ _____    ______ ____
ROOT
ATOM      5  C   UNL     1      -3.148 -12.191  12.817  0.00  0.00    +0.000 C 
ATOM      6  C   UNL     1      -1.950 -11.209  12.838  0.00  0.00    +0.032 C 
ATOM      7  C   UNL     1      -3.599 -12.456  11.372  0.00  0.00    +0.012 C 
ATOM      8  C   UNL     1      -4.015 -11.164  10.645  0.00  0.00    +0.022 C 
ATOM     10  C   UNL     1      -3.004 -10.054  10.846  0.00  0.00    -0.073 C 
ATOM     11  C   UNL     1      -2.079 -10.098  11.822  0.00  0.00    -0.022 C 
ATOM     16  C   UNL     1      -3.048  -8.913   9.868  0.00  0.00    +0.039 C 
ENDROOT
BRANCH   5   9
ATOM      9  C   UNL     1      -2.808 -13.517  13.505  0.00  0.00    -0.013 C 
ATOM     14  C   UNL     1      -3.908 -13.902  14.489  0.00  0.00    +0.007 C 
ATOM     15  C   UNL     1      -2.598 -14.616  12.469  0.00  0.00    +0.007 C 
ENDBRANCH   5   9
BRANCH   6  12
ATOM     12  C   UNL     1      -1.755 -10.605  14.233  0.00  0.00    +0.112 C 
BRANCH  12   2
ATOM      1  O   UNL     1      -2.364 -11.061  17.002  0.00  0.00    -0.270 OA
ATOM      2  N   UNL     1      -3.014 -10.395  14.876  0.00  0.00    -0.311 N 
ATOM     18  C   UNL     1      -3.225 -10.643  16.231  0.00  0.00    +0.244 C 
ATOM     32  H   UNL     1      -3.775 -10.056  14.297  0.00  0.00    +0.149 HD
BRANCH  18  22
ATOM     22  C   UNL     1      -4.598 -10.399  16.743  0.00  0.00    +0.037 A 
ATOM     26  C   UNL     1      -4.929 -10.752  18.051  0.00  0.00    +0.013 A 
ATOM     27  C   UNL     1      -5.557  -9.815  15.913  0.00  0.00    +0.013 A 
ATOM     29  C   UNL     1      -6.219 -10.521  18.530  0.00  0.00    +0.001 A 
ATOM     30  C   UNL     1      -6.846  -9.585  16.393  0.00  0.00    +0.001 A 
ATOM     31  C   UNL     1      -7.177  -9.937  17.701  0.00  0.00    +0.000 A 
ENDBRANCH  18  22
ENDBRANCH  12   2
ENDBRANCH   6  12
BRANCH   8  13
ATOM     13  C   UNL     1      -5.416 -10.715  11.078  0.00  0.00    +0.082 C 
BRANCH  13  17
ATOM      3  N   UNL     1      -6.057 -10.311   8.694  0.00  0.00    -0.342 N 
ATOM      4  N   UNL     1      -6.767  -8.798  10.159  0.00  0.00    -0.232 NA
ATOM     17  C   UNL     1      -6.092  -9.915  10.002  0.00  0.00    +0.109 A 
ATOM     19  C   UNL     1      -6.756  -9.388   7.958  0.00  0.00    +0.066 A 
ATOM     20  C   UNL     1      -7.188  -8.454   8.896  0.00  0.00    +0.089 A 
ATOM     21  C   UNL     1      -7.037  -9.293   6.596  0.00  0.00    +0.031 A 
ATOM     23  C   UNL     1      -7.948  -7.353   8.466  0.00  0.00    +0.030 A 
ATOM     24  C   UNL     1      -7.796  -8.192   6.184  0.00  0.00    -0.048 A 
ATOM     25  C   UNL     1      -8.243  -7.238   7.102  0.00  0.00    +0.005 A 
ATOM     28  C   UNL     1      -8.130  -8.033   4.738  0.00  0.00    +0.044 C 
ATOM     33  H   UNL     1      -5.599 -11.137   8.332  0.00  0.00    +0.167 HD
ENDBRANCH  13  17
ENDBRANCH   8  13
TORSDOF 6
ENDMDL
MODEL 2
REMARK VINA RESULT:      -7.2     26.827     29.133
REMARK  Name = 71693033
REMARK  10 active torsions:
REMARK  status: ('A' for Active; 'I' for Inactive)
REMARK    1  A    between atoms: N_2  and  C_12
REMARK    2  A    between atoms: C_5  and  C_9
REMARK    3  A    between atoms: C_6  and  C_12
REMARK    4  A    between atoms: C_8  and  C_13
REMARK    5  A    between atoms: C_9  and  C_14
REMARK    6  A    between atoms: C_9  and  C_15
REMARK    7  A    between atoms: C_10  and  C_16
REMARK    8  A    between atoms: C_13  and  C_17
REMARK    9  A    between atoms: C_18  and  C_22
REMARK   10  A    between atoms: C_24  and  C_28
REMARK                            x       y       z     vdW  Elec       q    Type
REMARK                         _______ _______ _______ _____ _____    ______ ____
ROOT
ATOM      5  C   UNL     1      13.036   9.933  20.121  0.00  0.00    +0.000 C 
ATOM      6  C   UNL     1      11.977   8.849  19.800  0.00  0.00    +0.032 C 
ATOM      7  C   UNL     1      12.957  11.079  19.101  0.00  0.00    +0.012 C 
ATOM      8  C   UNL     1      13.181  10.591  17.658  0.00  0.00    +0.022 C 
ATOM     10  C   UNL     1      12.365   9.352  17.349  0.00  0.00    -0.073 C 
ATOM     11  C   UNL     1      11.822   8.595  18.319  0.00  0.00    -0.022 C 
ATOM     16  C   UNL     1      12.146   9.031  15.897  0.00  0.00    +0.039 C 
ENDROOT
BRANCH   5   9
ATOM      9  C   UNL     1      12.869  10.488  21.540  0.00  0.00    -0.013 C 
ATOM     14  C   UNL     1      14.159  11.158  22.004  0.00  0.00    +0.007 C 
ATOM     15  C   UNL     1      11.701  11.466  21.593  0.00  0.00    +0.007 C 
ENDBRANCH   5   9
BRANCH   6  12
ATOM     12  C   UNL     1      12.300   7.531  20.514  0.00  0.00    +0.112 C 
BRANCH  12   2
ATOM      1  O   UNL     1      14.607   7.585  22.223  0.00  0.00    -0.270 OA
ATOM      2  N   UNL     1      13.617   7.085  20.184  0.00  0.00    -0.311 N 
ATOM     18  C   UNL     1      14.685   7.147  21.078  0.00  0.00    +0.244 C 
ATOM     32  H   UNL     1      13.758   6.717  19.250  0.00  0.00    +0.149 HD
BRANCH  18  22
ATOM     22  C   UNL     1      15.998   6.667  20.574  0.00  0.00    +0.037 A 
ATOM     26  C   UNL     1      17.110   6.666  21.415  0.00  0.00    +0.013 A 
ATOM     27  C   UNL     1      16.116   6.216  19.259  0.00  0.00    +0.013 A 
ATOM     29  C   UNL     1      18.342   6.214  20.941  0.00  0.00    +0.001 A 
ATOM     30  C   UNL     1      17.348   5.764  18.785  0.00  0.00    +0.001 A 
ATOM     31  C   UNL     1      18.460   5.762  19.626  0.00  0.00    +0.000 A 
ENDBRANCH  18  22
ENDBRANCH  12   2
ENDBRANCH   6  12
BRANCH   8  13
ATOM     13  C   UNL     1      14.670  10.349  17.382  0.00  0.00    +0.082 C 
BRANCH  13  17
ATOM      3  N   UNL     1      15.092  10.682  14.939  0.00  0.00    -0.342 N 
ATOM      4  N   UNL     1      15.660  12.376  16.261  0.00  0.00    -0.232 NA
ATOM     17  C   UNL     1      15.151  11.164  16.217  0.00  0.00    +0.109 A 
ATOM     19  C   UNL     1      15.597  11.646  14.104  0.00  0.00    +0.066 A 
ATOM     20  C   UNL     1      15.945  12.692  14.953  0.00  0.00    +0.089 A 
ATOM     21  C   UNL     1      15.775  11.690  12.721  0.00  0.00    +0.031 A 
ATOM     23  C   UNL     1      16.504  13.861  14.408  0.00  0.00    +0.030 A 
ATOM     24  C   UNL     1      16.332  12.860  12.194  0.00  0.00    -0.048 A 
ATOM     25  C   UNL     1      16.691  13.927  13.022  0.00  0.00    +0.005 A 
ATOM     28  C   UNL     1      16.547  12.968  10.721  0.00  0.00    +0.044 C 
ATOM     33  H   UNL     1      14.739   9.777  14.658  0.00  0.00    +0.167 HD
ENDBRANCH  13  17
ENDBRANCH   8  13
TORSDOF 6
ENDMDL
MODEL 3
REMARK VINA RESULT:      -7.1      5.737      8.681
REMARK  Name = 71693033
REMARK  10 active torsions:
REMARK  status: ('A' for Active; 'I' for Inactive)
REMARK    1  A    between atoms: N_2  and  C_12
REMARK    2  A    between atoms: C_5  and  C_9
REMARK    3  A    between atoms: C_6  and  C_12
REMARK    4  A    between atoms: C_8  and  C_13
REMARK    5  A    between atoms: C_9  and  C_14
REMARK    6  A    between atoms: C_9  and  C_15
REMARK    7  A    between atoms: C_10  and  C_16
REMARK    8  A    between atoms: C_13  and  C_17
REMARK    9  A    between atoms: C_18  and  C_22
REMARK   10  A    between atoms: C_24  and  C_28
REMARK                            x       y       z     vdW  Elec       q    Type
REMARK                         _______ _______ _______ _____ _____    ______ ____
ROOT
ATOM      5  C   UNL     1     -11.554  -9.808  19.150  0.00  0.00    +0.000 C 
ATOM      6  C   UNL     1     -10.543 -10.894  18.702  0.00  0.00    +0.032 C 
ATOM      7  C   UNL     1     -12.594  -9.557  18.048  0.00  0.00    +0.012 C 
ATOM      8  C   UNL     1     -11.945  -9.104  16.727  0.00  0.00    +0.022 C 
ATOM     10  C   UNL     1     -10.760  -9.971  16.354  0.00  0.00    -0.073 C 
ATOM     11  C   UNL     1     -10.156 -10.775  17.247  0.00  0.00    -0.022 C 
ATOM     16  C   UNL     1     -10.315  -9.929  14.919  0.00  0.00    +0.039 C 
ENDROOT
BRANCH   5   9
ATOM      9  C   UNL     1     -12.262 -10.195  20.453  0.00  0.00    -0.013 C 
ATOM     14  C   UNL     1     -13.562  -9.412  20.604  0.00  0.00    +0.007 C 
ATOM     15  C   UNL     1     -12.526 -11.696  20.490  0.00  0.00    +0.007 C 
ENDBRANCH   5   9
BRANCH   6  12
ATOM     12  C   UNL     1      -9.280 -10.865  19.571  0.00  0.00    +0.112 C 
BRANCH  12   2
ATOM      1  O   UNL     1      -6.564 -11.130  20.464  0.00  0.00    -0.270 OA
ATOM      2  N   UNL     1      -8.106 -10.818  18.757  0.00  0.00    -0.311 N 
ATOM     18  C   UNL     1      -6.819 -10.957  19.274  0.00  0.00    +0.244 C 
ATOM     32  H   UNL     1      -8.241 -10.669  17.763  0.00  0.00    +0.149 HD
BRANCH  18  22
ATOM     22  C   UNL     1      -5.701 -10.858  18.301  0.00  0.00    +0.037 A 
ATOM     26  C   UNL     1      -4.487 -11.490  18.565  0.00  0.00    +0.013 A 
ATOM     27  C   UNL     1      -5.868 -10.133  17.120  0.00  0.00    +0.013 A 
ATOM     29  C   UNL     1      -3.438 -11.398  17.650  0.00  0.00    +0.001 A 
ATOM     30  C   UNL     1      -4.820 -10.040  16.204  0.00  0.00    +0.001 A 
ATOM     31  C   UNL     1      -3.605 -10.673  16.469  0.00  0.00    +0.000 A 
ENDBRANCH  18  22
ENDBRANCH  12   2
ENDBRANCH   6  12
BRANCH   8  13
ATOM     13  C   UNL     1     -11.545  -7.625  16.789  0.00  0.00    +0.082 C 
BRANCH  13  17
ATOM      3  N   UNL     1     -11.564  -6.034  14.858  0.00  0.00    -0.342 N 
ATOM      4  N   UNL     1     -13.551  -6.765  15.533  0.00  0.00    -0.232 NA
ATOM     17  C   UNL     1     -12.253  -6.820  15.738  0.00  0.00    +0.109 A 
ATOM     19  C   UNL     1     -12.476  -5.432  14.029  0.00  0.00    +0.066 A 
ATOM     20  C   UNL     1     -13.708  -5.904  14.471  0.00  0.00    +0.089 A 
ATOM     21  C   UNL     1     -12.332  -4.542  12.965  0.00  0.00    +0.031 A 
ATOM     23  C   UNL     1     -14.879  -5.473  13.824  0.00  0.00    +0.030 A 
ATOM     24  C   UNL     1     -13.507  -4.124  12.331  0.00  0.00    -0.048 A 
ATOM     25  C   UNL     1     -14.759  -4.580  12.753  0.00  0.00    +0.005 A 
ATOM     28  C   UNL     1     -13.420  -3.172  11.185  0.00  0.00    +0.044 C 
ATOM     33  H   UNL     1     -10.559  -5.918  14.821  0.00  0.00    +0.167 HD
ENDBRANCH  13  17
ENDBRANCH   8  13
TORSDOF 6
ENDMDL
MODEL 4
REMARK VINA RESULT:      -7.1     20.697     22.933
REMARK  Name = 71693033
REMARK  10 active torsions:
REMARK  status: ('A' for Active; 'I' for Inactive)
REMARK    1  A    between atoms: N_2  and  C_12
REMARK    2  A    between atoms: C_5  and  C_9
REMARK    3  A    between atoms: C_6  and  C_12
REMARK    4  A    between atoms: C_8  and  C_13
REMARK    5  A    between atoms: C_9  and  C_14
REMARK    6  A    between atoms: C_9  and  C_15
REMARK    7  A    between atoms: C_10  and  C_16
REMARK    8  A    between atoms: C_13  and  C_17
REMARK    9  A    between atoms: C_18  and  C_22
REMARK   10  A    between atoms: C_24  and  C_28
REMARK                            x       y       z     vdW  Elec       q    Type
REMARK                         _______ _______ _______ _____ _____    ______ ____
ROOT
ATOM      5  C   UNL     1     -17.295   3.422  27.204  0.00  0.00    +0.000 C 
ATOM      6  C   UNL     1     -18.136   2.136  27.011  0.00  0.00    +0.032 C 
ATOM      7  C   UNL     1     -17.434   4.342  25.982  0.00  0.00    +0.012 C 
ATOM      8  C   UNL     1     -16.980   3.654  24.681  0.00  0.00    +0.022 C 
ATOM     10  C   UNL     1     -17.560   2.260  24.549  0.00  0.00    -0.073 C 
ATOM     11  C   UNL     1     -18.086   1.604  25.598  0.00  0.00    -0.022 C 
ATOM     16  C   UNL     1     -17.566   1.657  23.172  0.00  0.00    +0.039 C 
ENDROOT
BRANCH   5   9
ATOM      9  C   UNL     1     -17.701   4.181  28.472  0.00  0.00    -0.013 C 
ATOM     14  C   UNL     1     -16.835   5.425  28.647  0.00  0.00    +0.007 C 
ATOM     15  C   UNL     1     -19.179   4.552  28.421  0.00  0.00    +0.007 C 
ENDBRANCH   5   9
BRANCH   6  12
ATOM     12  C   UNL     1     -17.699   1.037  27.987  0.00  0.00    +0.112 C 
BRANCH  12   2
ATOM      1  O   UNL     1     -15.268  -0.028  29.082  0.00  0.00    -0.270 OA
ATOM      2  N   UNL     1     -16.933   1.588  29.061  0.00  0.00    -0.311 N 
ATOM     18  C   UNL     1     -15.759   1.004  29.533  0.00  0.00    +0.244 C 
ATOM     32  H   UNL     1     -17.284   2.439  29.487  0.00  0.00    +0.149 HD
BRANCH  18  22
ATOM     22  C   UNL     1     -15.093   1.686  30.673  0.00  0.00    +0.037 A 
ATOM     26  C   UNL     1     -14.944   1.024  31.891  0.00  0.00    +0.013 A 
ATOM     27  C   UNL     1     -14.615   2.989  30.523  0.00  0.00    +0.013 A 
ATOM     29  C   UNL     1     -14.318   1.664  32.961  0.00  0.00    +0.001 A 
ATOM     30  C   UNL     1     -13.989   3.629  31.593  0.00  0.00    +0.001 A 
ATOM     31  C   UNL     1     -13.840   2.966  32.811  0.00  0.00    +0.000 A 
ENDBRANCH  18  22
ENDBRANCH  12   2
ENDBRANCH   6  12
BRANCH   8  13
ATOM     13  C   UNL     1     -15.451   3.623  24.577  0.00  0.00    +0.082 C 
BRANCH  13  17
ATOM      3  N   UNL     1     -13.622   4.661  23.221  0.00  0.00    -0.342 N 
ATOM      4  N   UNL     1     -15.691   5.276  22.692  0.00  0.00    -0.232 NA
ATOM     17  C   UNL     1     -14.957   4.531  23.489  0.00  0.00    +0.109 A 
ATOM     19  C   UNL     1     -13.487   5.550  22.185  0.00  0.00    +0.066 A 
ATOM     20  C   UNL     1     -14.792   5.919  21.874  0.00  0.00    +0.089 A 
ATOM     21  C   UNL     1     -12.369   6.046  21.516  0.00  0.00    +0.031 A 
ATOM     23  C   UNL     1     -15.014   6.837  20.834  0.00  0.00    +0.030 A 
ATOM     24  C   UNL     1     -12.607   6.959  20.483  0.00  0.00    -0.048 A 
ATOM     25  C   UNL     1     -13.906   7.349  20.147  0.00  0.00    +0.005 A 
ATOM     28  C   UNL     1     -11.451   7.527  19.727  0.00  0.00    +0.044 C 
ATOM     33  H   UNL     1     -12.868   4.187  23.701  0.00  0.00    +0.167 HD
ENDBRANCH  13  17
ENDBRANCH   8  13
TORSDOF 6
ENDMDL
MODEL 5
REMARK VINA RESULT:      -7.1     22.893     25.656
REMARK  Name = 71693033
REMARK  10 active torsions:
REMARK  status: ('A' for Active; 'I' for Inactive)
REMARK    1  A    between atoms: N_2  and  C_12
REMARK    2  A    between atoms: C_5  and  C_9
REMARK    3  A    between atoms: C_6  and  C_12
REMARK    4  A    between atoms: C_8  and  C_13
REMARK    5  A    between atoms: C_9  and  C_14
REMARK    6  A    between atoms: C_9  and  C_15
REMARK    7  A    between atoms: C_10  and  C_16
REMARK    8  A    between atoms: C_13  and  C_17
REMARK    9  A    between atoms: C_18  and  C_22
REMARK   10  A    between atoms: C_24  and  C_28
REMARK                            x       y       z     vdW  Elec       q    Type
REMARK                         _______ _______ _______ _____ _____    ______ ____
ROOT
ATOM      5  C   UNL     1       9.146   8.164   5.024  0.00  0.00    +0.000 C 
ATOM      6  C   UNL     1       8.818   8.972   6.304  0.00  0.00    +0.032 C 
ATOM      7  C   UNL     1       8.534   6.757   5.106  0.00  0.00    +0.012 C 
ATOM      8  C   UNL     1       9.048   5.968   6.324  0.00  0.00    +0.022 C 
ATOM     10  C   UNL     1       9.007   6.799   7.591  0.00  0.00    -0.073 C 
ATOM     11  C   UNL     1       8.890   8.139   7.563  0.00  0.00    -0.022 C 
ATOM     16  C   UNL     1       9.057   6.051   8.894  0.00  0.00    +0.039 C 
ENDROOT
BRANCH   5   9
ATOM      9  C   UNL     1       8.647   8.873   3.761  0.00  0.00    -0.013 C 
ATOM     14  C   UNL     1       8.839   7.981   2.538  0.00  0.00    +0.007 C 
ATOM     15  C   UNL     1       7.183   9.271   3.917  0.00  0.00    +0.007 C 
ENDBRANCH   5   9
BRANCH   6  12
ATOM     12  C   UNL     1       9.742  10.187   6.443  0.00  0.00    +0.112 C 
BRANCH  12   2
ATOM      1  O   UNL     1      11.892  10.361   8.339  0.00  0.00    -0.270 OA
ATOM      2  N   UNL     1      11.105   9.816   6.225  0.00  0.00    -0.311 N 
ATOM     18  C   UNL     1      12.090   9.933   7.204  0.00  0.00    +0.244 C 
ATOM     32  H   UNL     1      11.343   9.461   5.305  0.00  0.00    +0.149 HD
BRANCH  18  22
ATOM     22  C   UNL     1      13.464   9.529   6.812  0.00  0.00    +0.037 A 
ATOM     26  C   UNL     1      13.775   8.180   6.644  0.00  0.00    +0.013 A 
ATOM     27  C   UNL     1      14.445  10.502   6.609  0.00  0.00    +0.013 A 
ATOM     29  C   UNL     1      15.066   7.802   6.274  0.00  0.00    +0.001 A 
ATOM     30  C   UNL     1      15.736  10.124   6.239  0.00  0.00    +0.001 A 
ATOM     31  C   UNL     1      16.045   8.774   6.071  0.00  0.00    +0.000 A 
ENDBRANCH  18  22
ENDBRANCH  12   2
ENDBRANCH   6  12
BRANCH   8  13
ATOM     13  C   UNL     1      10.458   5.421   6.073  0.00  0.00    +0.082 C 
BRANCH  13  17
ATOM      3  N   UNL     1      11.759   5.930   3.998  0.00  0.00    -0.342 N 
ATOM      4  N   UNL     1      10.064   4.513   3.757  0.00  0.00    -0.232 NA
ATOM     17  C   UNL     1      10.731   5.264   4.606  0.00  0.00    +0.109 A 
ATOM     19  C   UNL     1      11.755   5.586   2.670  0.00  0.00    +0.066 A 
ATOM     20  C   UNL     1      10.688   4.702   2.546  0.00  0.00    +0.089 A 
ATOM     21  C   UNL     1      12.568   5.963   1.602  0.00  0.00    +0.031 A 
ATOM     23  C   UNL     1      10.400   4.149   1.286  0.00  0.00    +0.030 A 
ATOM     24  C   UNL     1      12.269   5.403   0.355  0.00  0.00    -0.048 A 
ATOM     25  C   UNL     1      11.204   4.513   0.198  0.00  0.00    +0.005 A 
ATOM     28  C   UNL     1      13.103   5.766  -0.829  0.00  0.00    +0.044 C 
ATOM     33  H   UNL     1      12.409   6.563   4.447  0.00  0.00    +0.167 HD
ENDBRANCH  13  17
ENDBRANCH   8  13
TORSDOF 6
ENDMDL
MODEL 6
REMARK VINA RESULT:      -7.1      4.005      7.350
REMARK  Name = 71693033
REMARK  10 active torsions:
REMARK  status: ('A' for Active; 'I' for Inactive)
REMARK    1  A    between atoms: N_2  and  C_12
REMARK    2  A    between atoms: C_5  and  C_9
REMARK    3  A    between atoms: C_6  and  C_12
REMARK    4  A    between atoms: C_8  and  C_13
REMARK    5  A    between atoms: C_9  and  C_14
REMARK    6  A    between atoms: C_9  and  C_15
REMARK    7  A    between atoms: C_10  and  C_16
REMARK    8  A    between atoms: C_13  and  C_17
REMARK    9  A    between atoms: C_18  and  C_22
REMARK   10  A    between atoms: C_24  and  C_28
REMARK                            x       y       z     vdW  Elec       q    Type
REMARK                         _______ _______ _______ _____ _____    ______ ____
ROOT
ATOM      5  C   UNL     1      -5.963 -10.696  17.652  0.00  0.00    +0.000 C 
ATOM      6  C   UNL     1      -5.615 -11.281  16.261  0.00  0.00    +0.032 C 
ATOM      7  C   UNL     1      -7.458 -10.878  17.953  0.00  0.00    +0.012 C 
ATOM      8  C   UNL     1      -8.351 -10.196  16.900  0.00  0.00    +0.022 C 
ATOM     10  C   UNL     1      -7.901 -10.513  15.488  0.00  0.00    -0.073 C 
ATOM     11  C   UNL     1      -6.680 -11.011  15.224  0.00  0.00    -0.022 C 
ATOM     16  C   UNL     1      -8.904 -10.289  14.391  0.00  0.00    +0.039 C 
ENDROOT
BRANCH   5   9
ATOM      9  C   UNL     1      -5.128 -11.340  18.764  0.00  0.00    -0.013 C 
ATOM     14  C   UNL     1      -5.808 -11.151  20.117  0.00  0.00    +0.007 C 
ATOM     15  C   UNL     1      -4.905 -12.820  18.472  0.00  0.00    +0.007 C 
ENDBRANCH   5   9
BRANCH   6  12
ATOM     12  C   UNL     1      -4.267 -10.752  15.759  0.00  0.00    +0.112 C 
BRANCH  12   2
ATOM      1  O   UNL     1      -3.319 -11.882  13.295  0.00  0.00    -0.270 OA
ATOM      2  N   UNL     1      -4.398 -10.185  14.453  0.00  0.00    -0.311 N 
ATOM     18  C   UNL     1      -3.907 -10.804  13.305  0.00  0.00    +0.244 C 
ATOM     32  H   UNL     1      -4.868  -9.289  14.386  0.00  0.00    +0.149 HD
BRANCH  18  22
ATOM     22  C   UNL     1      -4.101 -10.072  12.026  0.00  0.00    +0.037 A 
ATOM     26  C   UNL     1      -3.044  -9.951  11.124  0.00  0.00    +0.013 A 
ATOM     27  C   UNL     1      -5.342  -9.508  11.727  0.00  0.00    +0.013 A 
ATOM     29  C   UNL     1      -3.227  -9.266   9.923  0.00  0.00    +0.001 A 
ATOM     30  C   UNL     1      -5.525  -8.823  10.526  0.00  0.00    +0.001 A 
ATOM     31  C   UNL     1      -4.468  -8.702   9.624  0.00  0.00    +0.000 A 
ENDBRANCH  18  22
ENDBRANCH  12   2
ENDBRANCH   6  12
BRANCH   8  13
ATOM     13  C   UNL     1      -8.415  -8.681  17.128  0.00  0.00    +0.082 C 
BRANCH  13  17
ATOM      3  N   UNL     1      -9.717  -7.075  15.720  0.00  0.00    -0.342 N 
ATOM      4  N   UNL     1     -10.919  -8.484  16.949  0.00  0.00    -0.232 NA
ATOM     17  C   UNL     1      -9.704  -8.104  16.620  0.00  0.00    +0.109 A 
ATOM     19  C   UNL     1     -11.027  -6.771  15.450  0.00  0.00    +0.066 A 
ATOM     20  C   UNL     1     -11.757  -7.664  16.229  0.00  0.00    +0.089 A 
ATOM     21  C   UNL     1     -11.616  -5.820  14.617  0.00  0.00    +0.031 A 
ATOM     23  C   UNL     1     -13.161  -7.620  16.187  0.00  0.00    +0.030 A 
ATOM     24  C   UNL     1     -13.015  -5.791  14.586  0.00  0.00    -0.048 A 
ATOM     25  C   UNL     1     -13.775  -6.674  15.357  0.00  0.00    +0.005 A 
ATOM     28  C   UNL     1     -13.706  -4.795  13.714  0.00  0.00    +0.044 C 
ATOM     33  H   UNL     1      -8.906  -6.619  15.323  0.00  0.00    +0.167 HD
ENDBRANCH  13  17
ENDBRANCH   8  13
TORSDOF 6
ENDMDL
MODEL 7
REMARK VINA RESULT:      -7.0     20.944     23.672
REMARK  Name = 71693033
REMARK  10 active torsions:
REMARK  status: ('A' for Active; 'I' for Inactive)
REMARK    1  A    between atoms: N_2  and  C_12
REMARK    2  A    between atoms: C_5  and  C_9
REMARK    3  A    between atoms: C_6  and  C_12
REMARK    4  A    between atoms: C_8  and  C_13
REMARK    5  A    between atoms: C_9  and  C_14
REMARK    6  A    between atoms: C_9  and  C_15
REMARK    7  A    between atoms: C_10  and  C_16
REMARK    8  A    between atoms: C_13  and  C_17
REMARK    9  A    between atoms: C_18  and  C_22
REMARK   10  A    between atoms: C_24  and  C_28
REMARK                            x       y       z     vdW  Elec       q    Type
REMARK                         _______ _______ _______ _____ _____    ______ ____
ROOT
ATOM      5  C   UNL     1     -14.935   8.926  21.307  0.00  0.00    +0.000 C 
ATOM      6  C   UNL     1     -15.782   8.364  22.477  0.00  0.00    +0.032 C 
ATOM      7  C   UNL     1     -14.512   7.793  20.359  0.00  0.00    +0.012 C 
ATOM      8  C   UNL     1     -13.690   6.708  21.079  0.00  0.00    +0.022 C 
ATOM     10  C   UNL     1     -14.330   6.291  22.388  0.00  0.00    -0.073 C 
ATOM     11  C   UNL     1     -15.273   7.037  22.990  0.00  0.00    -0.022 C 
ATOM     16  C   UNL     1     -13.894   4.974  22.965  0.00  0.00    +0.039 C 
ENDROOT
BRANCH   5   9
ATOM      9  C   UNL     1     -15.693  10.002  20.523  0.00  0.00    -0.013 C 
ATOM     14  C   UNL     1     -14.865  10.475  19.333  0.00  0.00    +0.007 C 
ATOM     15  C   UNL     1     -17.047   9.472  20.064  0.00  0.00    +0.007 C 
ENDBRANCH   5   9
BRANCH   6  12
ATOM     12  C   UNL     1     -15.859   9.364  23.635  0.00  0.00    +0.112 C 
BRANCH  12   2
ATOM      1  O   UNL     1     -15.157  11.234  25.698  0.00  0.00    -0.270 OA
ATOM      2  N   UNL     1     -14.597   9.470  24.299  0.00  0.00    -0.311 N 
ATOM     18  C   UNL     1     -14.339  10.410  25.294  0.00  0.00    +0.244 C 
ATOM     32  H   UNL     1     -13.870   8.824  24.009  0.00  0.00    +0.149 HD
BRANCH  18  22
ATOM     22  C   UNL     1     -12.969  10.408  25.868  0.00  0.00    +0.037 A 
ATOM     26  C   UNL     1     -11.888  10.832  25.095  0.00  0.00    +0.013 A 
ATOM     27  C   UNL     1     -12.763   9.984  27.181  0.00  0.00    +0.013 A 
ATOM     29  C   UNL     1     -10.602  10.831  25.634  0.00  0.00    +0.001 A 
ATOM     30  C   UNL     1     -11.477   9.983  27.721  0.00  0.00    +0.001 A 
ATOM     31  C   UNL     1     -10.397  10.407  26.947  0.00  0.00    +0.000 A 
ENDBRANCH  18  22
ENDBRANCH  12   2
ENDBRANCH   6  12
BRANCH   8  13
ATOM     13  C   UNL     1     -12.243   7.167  21.298  0.00  0.00    +0.082 C 
BRANCH  13  17
ATOM      3  N   UNL     1     -11.340   9.200  20.154  0.00  0.00    -0.342 N 
ATOM      4  N   UNL     1     -11.527   7.380  18.893  0.00  0.00    -0.232 NA
ATOM     17  C   UNL     1     -11.707   7.885  20.093  0.00  0.00    +0.109 A 
ATOM     19  C   UNL     1     -10.895   9.569  18.910  0.00  0.00    +0.066 A 
ATOM     20  C   UNL     1     -11.022   8.416  18.142  0.00  0.00    +0.089 A 
ATOM     21  C   UNL     1     -10.407  10.776  18.408  0.00  0.00    +0.031 A 
ATOM     23  C   UNL     1     -10.644   8.449  16.788  0.00  0.00    +0.030 A 
ATOM     24  C   UNL     1     -10.035  10.792  17.060  0.00  0.00    -0.048 A 
ATOM     25  C   UNL     1     -10.152   9.651  16.263  0.00  0.00    +0.005 A 
ATOM     28  C   UNL     1      -9.506  12.054  16.463  0.00  0.00    +0.044 C 
ATOM     33  H   UNL     1     -11.387   9.796  20.970  0.00  0.00    +0.167 HD
ENDBRANCH  13  17
ENDBRANCH   8  13
TORSDOF 6
ENDMDL
MODEL 8
REMARK VINA RESULT:      -7.0     20.659     23.784
REMARK  Name = 71693033
REMARK  10 active torsions:
REMARK  status: ('A' for Active; 'I' for Inactive)
REMARK    1  A    between atoms: N_2  and  C_12
REMARK    2  A    between atoms: C_5  and  C_9
REMARK    3  A    between atoms: C_6  and  C_12
REMARK    4  A    between atoms: C_8  and  C_13
REMARK    5  A    between atoms: C_9  and  C_14
REMARK    6  A    between atoms: C_9  and  C_15
REMARK    7  A    between atoms: C_10  and  C_16
REMARK    8  A    between atoms: C_13  and  C_17
REMARK    9  A    between atoms: C_18  and  C_22
REMARK   10  A    between atoms: C_24  and  C_28
REMARK                            x       y       z     vdW  Elec       q    Type
REMARK                         _______ _______ _______ _____ _____    ______ ____
ROOT
ATOM      5  C   UNL     1     -13.100   8.142  20.777  0.00  0.00    +0.000 C 
ATOM      6  C   UNL     1     -13.746   9.444  21.314  0.00  0.00    +0.032 C 
ATOM      7  C   UNL     1     -14.176   7.076  20.522  0.00  0.00    +0.012 C 
ATOM      8  C   UNL     1     -14.972   6.736  21.795  0.00  0.00    +0.022 C 
ATOM     10  C   UNL     1     -15.417   7.983  22.532  0.00  0.00    -0.073 C 
ATOM     11  C   UNL     1     -14.868   9.187  22.293  0.00  0.00    -0.022 C 
ATOM     16  C   UNL     1     -16.542   7.824  23.516  0.00  0.00    +0.039 C 
ENDROOT
BRANCH   5   9
ATOM      9  C   UNL     1     -12.302   8.392  19.494  0.00  0.00    -0.013 C 
ATOM     14  C   UNL     1     -11.488   7.155  19.125  0.00  0.00    +0.007 C 
ATOM     15  C   UNL     1     -13.236   8.784  18.354  0.00  0.00    +0.007 C 
ENDBRANCH   5   9
BRANCH   6  12
ATOM     12  C   UNL     1     -12.698  10.354  21.965  0.00  0.00    +0.112 C 
BRANCH  12   2
ATOM      1  O   UNL     1     -11.339  12.010  23.877  0.00  0.00    -0.270 OA
ATOM      2  N   UNL     1     -12.705  10.200  23.387  0.00  0.00    -0.311 N 
ATOM     18  C   UNL     1     -12.015  11.053  24.246  0.00  0.00    +0.244 C 
ATOM     32  H   UNL     1     -13.238   9.423  23.762  0.00  0.00    +0.149 HD
BRANCH  18  22
ATOM     22  C   UNL     1     -12.102  10.743  25.696  0.00  0.00    +0.037 A 
ATOM     26  C   UNL     1     -13.339  10.749  26.339  0.00  0.00    +0.013 A 
ATOM     27  C   UNL     1     -10.943  10.444  26.415  0.00  0.00    +0.013 A 
ATOM     29  C   UNL     1     -13.420  10.456  27.700  0.00  0.00    +0.001 A 
ATOM     30  C   UNL     1     -11.024  10.152  27.777  0.00  0.00    +0.001 A 
ATOM     31  C   UNL     1     -12.262  10.157  28.419  0.00  0.00    +0.000 A 
ENDBRANCH  18  22
ENDBRANCH  12   2
ENDBRANCH   6  12
BRANCH   8  13
ATOM     13  C   UNL     1     -14.169   5.811  22.719  0.00  0.00    +0.082 C 
BRANCH  13  17
ATOM      3  N   UNL     1     -14.989   4.386  24.604  0.00  0.00    -0.342 N 
ATOM      4  N   UNL     1     -15.881   3.967  22.612  0.00  0.00    -0.232 NA
ATOM     17  C   UNL     1     -15.028   4.715  23.278  0.00  0.00    +0.109 A 
ATOM     19  C   UNL     1     -15.876   3.360  24.808  0.00  0.00    +0.066 A 
ATOM     20  C   UNL     1     -16.418   3.117  23.550  0.00  0.00    +0.089 A 
ATOM     21  C   UNL     1     -16.236   2.645  25.950  0.00  0.00    +0.031 A 
ATOM     23  C   UNL     1     -17.381   2.103  23.404  0.00  0.00    +0.030 A 
ATOM     24  C   UNL     1     -17.197   1.641  25.788  0.00  0.00    -0.048 A 
ATOM     25  C   UNL     1     -17.759   1.373  24.537  0.00  0.00    +0.005 A 
ATOM     28  C   UNL     1     -17.626   0.840  26.973  0.00  0.00    +0.044 C 
ATOM     33  H   UNL     1     -14.412   4.823  25.311  0.00  0.00    +0.167 HD
ENDBRANCH  13  17
ENDBRANCH   8  13
TORSDOF 6
ENDMDL
MODEL 9
REMARK VINA RESULT:      -6.9     21.970     26.214
REMARK  Name = 71693033
REMARK  10 active torsions:
REMARK  status: ('A' for Active; 'I' for Inactive)
REMARK    1  A    between atoms: N_2  and  C_12
REMARK    2  A    between atoms: C_5  and  C_9
REMARK    3  A    between atoms: C_6  and  C_12
REMARK    4  A    between atoms: C_8  and  C_13
REMARK    5  A    between atoms: C_9  and  C_14
REMARK    6  A    between atoms: C_9  and  C_15
REMARK    7  A    between atoms: C_10  and  C_16
REMARK    8  A    between atoms: C_13  and  C_17
REMARK    9  A    between atoms: C_18  and  C_22
REMARK   10  A    between atoms: C_24  and  C_28
REMARK                            x       y       z     vdW  Elec       q    Type
REMARK                         _______ _______ _______ _____ _____    ______ ____
ROOT
ATOM      5  C   UNL     1     -16.141   4.725  32.610  0.00  0.00    +0.000 C 
ATOM      6  C   UNL     1     -15.144   3.997  33.547  0.00  0.00    +0.032 C 
ATOM      7  C   UNL     1     -16.867   3.713  31.710  0.00  0.00    +0.012 C 
ATOM      8  C   UNL     1     -15.888   2.899  30.842  0.00  0.00    +0.022 C 
ATOM     10  C   UNL     1     -14.723   2.370  31.653  0.00  0.00    -0.073 C 
ATOM     11  C   UNL     1     -14.414   2.863  32.866  0.00  0.00    -0.022 C 
ATOM     16  C   UNL     1     -13.948   1.227  31.058  0.00  0.00    +0.039 C 
ENDROOT
BRANCH   5   9
ATOM      9  C   UNL     1     -17.167   5.545  33.400  0.00  0.00    -0.013 C 
ATOM     14  C   UNL     1     -17.208   6.981  32.887  0.00  0.00    +0.007 C 
ATOM     15  C   UNL     1     -18.546   4.899  33.312  0.00  0.00    +0.007 C 
ENDBRANCH   5   9
BRANCH   6  12
ATOM     12  C   UNL     1     -14.126   4.978  34.138  0.00  0.00    +0.112 C 
BRANCH  12   2
ATOM      1  O   UNL     1     -13.350   7.680  34.726  0.00  0.00    -0.270 OA
ATOM      2  N   UNL     1     -13.792   5.996  33.192  0.00  0.00    -0.311 N 
ATOM     18  C   UNL     1     -13.424   7.288  33.564  0.00  0.00    +0.244 C 
ATOM     32  H   UNL     1     -13.838   5.744  32.210  0.00  0.00    +0.149 HD
BRANCH  18  22
ATOM     22  C   UNL     1     -13.132   8.237  32.459  0.00  0.00    +0.037 A 
ATOM     26  C   UNL     1     -11.813   8.476  32.074  0.00  0.00    +0.013 A 
ATOM     27  C   UNL     1     -14.179   8.888  31.805  0.00  0.00    +0.013 A 
ATOM     29  C   UNL     1     -11.541   9.366  31.036  0.00  0.00    +0.001 A 
ATOM     30  C   UNL     1     -13.907   9.778  30.767  0.00  0.00    +0.001 A 
ATOM     31  C   UNL     1     -12.587  10.017  30.382  0.00  0.00    +0.000 A 
ENDBRANCH  18  22
ENDBRANCH  12   2
ENDBRANCH   6  12
BRANCH   8  13
ATOM     13  C   UNL     1     -15.395   3.723  29.646  0.00  0.00    +0.082 C 
BRANCH  13  17
ATOM      3  N   UNL     1     -16.053   3.949  27.243  0.00  0.00    -0.342 N 
ATOM      4  N   UNL     1     -16.237   1.912  28.112  0.00  0.00    -0.232 NA
ATOM     17  C   UNL     1     -15.899   3.160  28.349  0.00  0.00    +0.109 A 
ATOM     19  C   UNL     1     -16.523   3.159  26.226  0.00  0.00    +0.066 A 
ATOM     20  C   UNL     1     -16.629   1.892  26.793  0.00  0.00    +0.089 A 
ATOM     21  C   UNL     1     -16.854   3.435  24.899  0.00  0.00    +0.031 A 
ATOM     23  C   UNL     1     -17.092   0.825  26.005  0.00  0.00    +0.030 A 
ATOM     24  C   UNL     1     -17.311   2.361  24.128  0.00  0.00    -0.048 A 
ATOM     25  C   UNL     1     -17.429   1.079  24.670  0.00  0.00    +0.005 A 
ATOM     28  C   UNL     1     -17.681   2.592  22.700  0.00  0.00    +0.044 C 
ATOM     33  H   UNL     1     -15.856   4.940  27.184  0.00  0.00    +0.167 HD
ENDBRANCH  13  17
ENDBRANCH   8  13
TORSDOF 6
ENDMDL
MODEL 10
REMARK VINA RESULT:      -6.8      3.505      6.913
REMARK  Name = 71693033
REMARK  10 active torsions:
REMARK  status: ('A' for Active; 'I' for Inactive)
REMARK    1  A    between atoms: N_2  and  C_12
REMARK    2  A    between atoms: C_5  and  C_9
REMARK    3  A    between atoms: C_6  and  C_12
REMARK    4  A    between atoms: C_8  and  C_13
REMARK    5  A    between atoms: C_9  and  C_14
REMARK    6  A    between atoms: C_9  and  C_15
REMARK    7  A    between atoms: C_10  and  C_16
REMARK    8  A    between atoms: C_13  and  C_17
REMARK    9  A    between atoms: C_18  and  C_22
REMARK   10  A    between atoms: C_24  and  C_28
REMARK                            x       y       z     vdW  Elec       q    Type
REMARK                         _______ _______ _______ _____ _____    ______ ____
ROOT
ATOM      5  C   UNL     1      -7.484 -12.073  17.104  0.00  0.00    +0.000 C 
ATOM      6  C   UNL     1      -7.521 -12.479  18.598  0.00  0.00    +0.032 C 
ATOM      7  C   UNL     1      -6.200 -12.592  16.438  0.00  0.00    +0.012 C 
ATOM      8  C   UNL     1      -4.931 -12.052  17.122  0.00  0.00    +0.022 C 
ATOM     10  C   UNL     1      -5.007 -12.173  18.630  0.00  0.00    -0.073 C 
ATOM     11  C   UNL     1      -6.172 -12.378  19.271  0.00  0.00    -0.022 C 
ATOM     16  C   UNL     1      -3.708 -12.101  19.383  0.00  0.00    +0.039 C 
ENDROOT
BRANCH   5   9
ATOM      9  C   UNL     1      -8.709 -12.592  16.343  0.00  0.00    -0.013 C 
ATOM     14  C   UNL     1      -8.979 -11.726  15.117  0.00  0.00    +0.007 C 
ATOM     15  C   UNL     1      -8.508 -14.050  15.944  0.00  0.00    +0.007 C 
ENDBRANCH   5   9
BRANCH   6  12
ATOM     12  C   UNL     1      -8.543 -11.641  19.374  0.00  0.00    +0.112 C 
BRANCH  12   2
ATOM      1  O   UNL     1     -11.040 -10.283  19.782  0.00  0.00    -0.270 OA
ATOM      2  N   UNL     1      -9.114 -10.633  18.536  0.00  0.00    -0.311 N 
ATOM     18  C   UNL     1     -10.337 -10.022  18.809  0.00  0.00    +0.244 C 
ATOM     32  H   UNL     1      -8.590 -10.373  17.708  0.00  0.00    +0.149 HD
BRANCH  18  22
ATOM     22  C   UNL     1     -10.805  -9.012  17.826  0.00  0.00    +0.037 A 
ATOM     26  C   UNL     1      -9.913  -8.072  17.311  0.00  0.00    +0.013 A 
ATOM     27  C   UNL     1     -12.139  -9.005  17.416  0.00  0.00    +0.013 A 
ATOM     29  C   UNL     1     -10.353  -7.125  16.387  0.00  0.00    +0.001 A 
ATOM     30  C   UNL     1     -12.580  -8.058  16.492  0.00  0.00    +0.001 A 
ATOM     31  C   UNL     1     -11.687  -7.118  15.977  0.00  0.00    +0.000 A 
ENDBRANCH  18  22
ENDBRANCH  12   2
ENDBRANCH   6  12
BRANCH   8  13
ATOM     13  C   UNL     1      -4.651 -10.604  16.702  0.00  0.00    +0.082 C 
BRANCH  13  17
ATOM      3  N   UNL     1      -5.070 -10.235  14.263  0.00  0.00    -0.342 N 
ATOM      4  N   UNL     1      -2.974 -10.713  14.826  0.00  0.00    -0.232 NA
ATOM     17  C   UNL     1      -4.196 -10.526  15.273  0.00  0.00    +0.109 A 
ATOM     19  C   UNL     1      -4.366 -10.235  13.086  0.00  0.00    +0.066 A 
ATOM     20  C   UNL     1      -3.061 -10.536  13.464  0.00  0.00    +0.089 A 
ATOM     21  C   UNL     1      -4.747 -10.005  11.765  0.00  0.00    +0.031 A 
ATOM     23  C   UNL     1      -2.063 -10.617  12.478  0.00  0.00    +0.030 A 
ATOM     24  C   UNL     1      -3.742 -10.088  10.795  0.00  0.00    -0.048 A 
ATOM     25  C   UNL     1      -2.423 -10.389  11.144  0.00  0.00    +0.005 A 
ATOM     28  C   UNL     1      -4.087  -9.852   9.362  0.00  0.00    +0.044 C 
ATOM     33  H   UNL     1      -6.060 -10.052  14.364  0.00  0.00    +0.167 HD
ENDBRANCH  13  17
ENDBRANCH   8  13
TORSDOF 6
ENDMDL
