MODEL 1
REMARK VINA RESULT:      -6.4      0.000      0.000
REMARK  Name = 45360605
REMARK  20 active torsions:
REMARK  status: ('A' for Active; 'I' for Inactive)
REMARK    1  A    between atoms: S_1  and  N_12
REMARK    2  A    between atoms: S_1  and  C_27
REMARK    3  A    between atoms: O_4  and  C_17
REMARK    4  A    between atoms: O_5  and  C_18
REMARK    5  A    between atoms: O_6  and  C_19
REMARK    6  A    between atoms: O_7  and  C_20
REMARK    7  A    between atoms: N_12  and  C_21
REMARK    8  A    between atoms: N_12  and  C_22
REMARK    9  A    between atoms: N_13  and  C_30
REMARK   10  A    between atoms: N_14  and  C_31
REMARK   11  A    between atoms: C_15  and  C_21
REMARK   12  A    between atoms: C_16  and  C_22
REMARK   13  A    between atoms: C_23  and  C_25
REMARK   14  A    between atoms: C_24  and  C_26
REMARK   15  A    between atoms: C_25  and  C_28
REMARK   16  A    between atoms: C_26  and  C_29
REMARK   17  A    between atoms: C_30  and  C_32
REMARK   18  A    between atoms: C_30  and  C_33
REMARK   19  A    between atoms: C_31  and  C_34
REMARK   20  A    between atoms: C_31  and  C_35
REMARK                            x       y       z     vdW  Elec       q    Type
REMARK                         _______ _______ _______ _____ _____    ______ ____
ROOT
ATOM     12  N   UNL     1      13.329  11.167  22.327  0.00  0.00    -0.176 NA
ENDROOT
BRANCH  12   1
ATOM      1  S   UNL     1      14.095  12.303  21.283  0.00  0.00    +0.029 S 
ATOM      8  O   UNL     1      14.466  13.479  22.047  0.00  0.00    -0.158 OA
ATOM      9  O   UNL     1      15.083  11.625  20.463  0.00  0.00    -0.158 OA
ATOM     27  C   UNL     1      12.743  12.761  20.220  0.00  0.00    +0.215 C 
ENDBRANCH  12   1
BRANCH  12  21
ATOM     21  C   UNL     1      13.363   9.742  21.950  0.00  0.00    +0.143 C 
BRANCH  21  15
ATOM      2  O   UNL     1      12.121   9.178  19.977  0.00  0.00    -0.366 OA
ATOM     15  C   UNL     1      12.001   9.327  21.410  0.00  0.00    +0.165 C 
ATOM     17  C   UNL     1      11.532   7.978  21.945  0.00  0.00    +0.175 C 
ATOM     19  C   UNL     1      12.103   7.018  20.921  0.00  0.00    +0.175 C 
ATOM     23  C   UNL     1      11.911   7.798  19.632  0.00  0.00    +0.158 C 
BRANCH  17   4
ATOM      4  O   UNL     1      10.106   7.957  21.903  0.00  0.00    -0.387 OA
ATOM     36  H   UNL     1       9.827   7.026  21.923  0.00  0.00    +0.210 HD
ENDBRANCH  17   4
BRANCH  19   6
ATOM      6  O   UNL     1      11.439   5.773  20.892  0.00  0.00    -0.387 OA
ATOM     38  H   UNL     1      11.120   5.634  19.985  0.00  0.00    +0.210 HD
ENDBRANCH  19   6
BRANCH  23  25
ATOM     25  C   UNL     1      12.877   7.392  18.533  0.00  0.00    +0.130 C 
BRANCH  25  28
ATOM     10  O   UNL     1      14.749   8.918  18.662  0.00  0.00    -0.276 OA
ATOM     13  N   UNL     1      15.034   6.715  19.346  0.00  0.00    -0.313 N 
ATOM     28  C   UNL     1      14.310   7.786  18.844  0.00  0.00    +0.216 C 
ATOM     40  H   UNL     1      14.556   5.838  19.528  0.00  0.00    +0.149 HD
BRANCH  13  30
ATOM     30  C   UNL     1      16.426   6.813  19.722  0.00  0.00    +0.067 C 
ATOM     32  C   UNL     1      16.591   6.600  21.222  0.00  0.00    +0.027 C 
ATOM     33  C   UNL     1      17.260   5.814  18.929  0.00  0.00    +0.027 C 
ENDBRANCH  13  30
ENDBRANCH  25  28
ENDBRANCH  23  25
ENDBRANCH  21  15
ENDBRANCH  12  21
BRANCH  12  22
ATOM     22  C   UNL     1      13.482  11.373  23.792  0.00  0.00    +0.143 C 
BRANCH  22  16
ATOM      3  O   UNL     1      12.289  12.128  25.733  0.00  0.00    -0.366 OA
ATOM     16  C   UNL     1      12.109  11.514  24.437  0.00  0.00    +0.165 C 
ATOM     18  C   UNL     1      11.174  12.429  23.654  0.00  0.00    +0.175 C 
ATOM     20  C   UNL     1      11.473  13.783  24.265  0.00  0.00    +0.175 C 
ATOM     24  C   UNL     1      11.659  13.422  25.729  0.00  0.00    +0.158 C 
BRANCH  18   5
ATOM      5  O   UNL     1       9.831  12.042  23.942  0.00  0.00    -0.387 OA
ATOM     37  H   UNL     1       9.653  12.278  24.869  0.00  0.00    +0.210 HD
ENDBRANCH  18   5
BRANCH  20   7
ATOM      7  O   UNL     1      10.436  14.722  24.078  0.00  0.00    -0.387 OA
ATOM     39  H   UNL     1      10.817  15.607  24.209  0.00  0.00    +0.210 HD
ENDBRANCH  20   7
BRANCH  24  26
ATOM     26  C   UNL     1      12.521  14.413  26.489  0.00  0.00    +0.130 C 
BRANCH  26  29
ATOM     11  O   UNL     1      14.885  14.225  26.010  0.00  0.00    -0.276 OA
ATOM     14  N   UNL     1      13.994  13.043  27.802  0.00  0.00    -0.313 N 
ATOM     29  C   UNL     1      13.933  13.903  26.716  0.00  0.00    +0.216 C 
ATOM     41  H   UNL     1      13.134  12.797  28.282  0.00  0.00    +0.149 HD
BRANCH  14  31
ATOM     31  C   UNL     1      15.218  12.411  28.240  0.00  0.00    +0.067 C 
ATOM     34  C   UNL     1      15.152  12.092  29.728  0.00  0.00    +0.027 C 
ATOM     35  C   UNL     1      15.490  11.157  27.418  0.00  0.00    +0.027 C 
ENDBRANCH  14  31
ENDBRANCH  26  29
ENDBRANCH  24  26
ENDBRANCH  22  16
ENDBRANCH  12  22
TORSDOF 15
ENDMDL
MODEL 2
REMARK VINA RESULT:      -6.1     27.910     30.882
REMARK  Name = 45360605
REMARK  20 active torsions:
REMARK  status: ('A' for Active; 'I' for Inactive)
REMARK    1  A    between atoms: S_1  and  N_12
REMARK    2  A    between atoms: S_1  and  C_27
REMARK    3  A    between atoms: O_4  and  C_17
REMARK    4  A    between atoms: O_5  and  C_18
REMARK    5  A    between atoms: O_6  and  C_19
REMARK    6  A    between atoms: O_7  and  C_20
REMARK    7  A    between atoms: N_12  and  C_21
REMARK    8  A    between atoms: N_12  and  C_22
REMARK    9  A    between atoms: N_13  and  C_30
REMARK   10  A    between atoms: N_14  and  C_31
REMARK   11  A    between atoms: C_15  and  C_21
REMARK   12  A    between atoms: C_16  and  C_22
REMARK   13  A    between atoms: C_23  and  C_25
REMARK   14  A    between atoms: C_24  and  C_26
REMARK   15  A    between atoms: C_25  and  C_28
REMARK   16  A    between atoms: C_26  and  C_29
REMARK   17  A    between atoms: C_30  and  C_32
REMARK   18  A    between atoms: C_30  and  C_33
REMARK   19  A    between atoms: C_31  and  C_34
REMARK   20  A    between atoms: C_31  and  C_35
REMARK                            x       y       z     vdW  Elec       q    Type
REMARK                         _______ _______ _______ _____ _____    ______ ____
ROOT
ATOM     12  N   UNL     1      -7.279  -9.880  15.454  0.00  0.00    -0.176 NA
ENDROOT
BRANCH  12   1
ATOM      1  S   UNL     1      -7.841  -9.994  13.830  0.00  0.00    +0.029 S 
ATOM      8  O   UNL     1      -9.181  -9.443  13.749  0.00  0.00    -0.158 OA
ATOM      9  O   UNL     1      -6.807  -9.534  12.921  0.00  0.00    -0.158 OA
ATOM     27  C   UNL     1      -7.977 -11.758  13.636  0.00  0.00    +0.215 C 
ENDBRANCH  12   1
BRANCH  12  21
ATOM     21  C   UNL     1      -7.887 -10.764  16.466  0.00  0.00    +0.143 C 
BRANCH  21  15
ATOM      2  O   UNL     1      -9.213  -9.292  17.819  0.00  0.00    -0.366 OA
ATOM     15  C   UNL     1      -7.970 -10.031  17.798  0.00  0.00    +0.165 C 
ATOM     17  C   UNL     1      -8.009 -10.973  18.997  0.00  0.00    +0.175 C 
ATOM     19  C   UNL     1      -9.496 -11.208  19.164  0.00  0.00    +0.175 C 
ATOM     23  C   UNL     1     -10.060  -9.833  18.849  0.00  0.00    +0.158 C 
BRANCH  17   4
ATOM      4  O   UNL     1      -7.488 -10.272  20.126  0.00  0.00    -0.387 OA
ATOM     36  H   UNL     1      -7.361 -10.921  20.839  0.00  0.00    +0.210 HD
ENDBRANCH  17   4
BRANCH  19   6
ATOM      6  O   UNL     1      -9.850 -11.642  20.460  0.00  0.00    -0.387 OA
ATOM     38  H   UNL     1      -9.060 -11.564  21.020  0.00  0.00    +0.210 HD
ENDBRANCH  19   6
BRANCH  23  25
ATOM     25  C   UNL     1     -11.497  -9.869  18.363  0.00  0.00    +0.130 C 
BRANCH  25  28
ATOM     10  O   UNL     1     -11.737 -10.069  15.965  0.00  0.00    -0.276 OA
ATOM     13  N   UNL     1     -11.664  -7.952  16.923  0.00  0.00    -0.313 N 
ATOM     28  C   UNL     1     -11.647  -9.339  16.948  0.00  0.00    +0.216 C 
ATOM     40  H   UNL     1     -11.659  -7.443  17.802  0.00  0.00    +0.149 HD
BRANCH  13  30
ATOM     30  C   UNL     1     -11.794  -7.188  15.704  0.00  0.00    +0.067 C 
ATOM     32  C   UNL     1     -13.158  -6.510  15.640  0.00  0.00    +0.027 C 
ATOM     33  C   UNL     1     -10.667  -6.169  15.596  0.00  0.00    +0.027 C 
ENDBRANCH  13  30
ENDBRANCH  25  28
ENDBRANCH  23  25
ENDBRANCH  21  15
ENDBRANCH  12  21
BRANCH  12  22
ATOM     22  C   UNL     1      -5.818  -9.698  15.662  0.00  0.00    +0.143 C 
BRANCH  22  16
ATOM      3  O   UNL     1      -4.399 -11.287  14.556  0.00  0.00    -0.366 OA
ATOM     16  C   UNL     1      -5.142 -11.058  15.775  0.00  0.00    +0.165 C 
ATOM     18  C   UNL     1      -4.131 -11.129  16.914  0.00  0.00    +0.175 C 
ATOM     20  C   UNL     1      -2.855 -10.681  16.231  0.00  0.00    +0.175 C 
ATOM     24  C   UNL     1      -2.995 -11.332  14.866  0.00  0.00    +0.158 C 
BRANCH  18   5
ATOM      5  O   UNL     1      -4.020 -12.491  17.324  0.00  0.00    -0.387 OA
ATOM     37  H   UNL     1      -4.897 -12.773  17.636  0.00  0.00    +0.210 HD
ENDBRANCH  18   5
BRANCH  20   7
ATOM      7  O   UNL     1      -1.685 -11.099  16.901  0.00  0.00    -0.387 OA
ATOM     39  H   UNL     1      -1.282 -11.805  16.369  0.00  0.00    +0.210 HD
ENDBRANCH  20   7
BRANCH  24  26
ATOM     26  C   UNL     1      -2.208 -10.625  13.778  0.00  0.00    +0.130 C 
BRANCH  26  29
ATOM     11  O   UNL     1      -2.247 -12.238  11.976  0.00  0.00    -0.276 OA
ATOM     14  N   UNL     1      -3.258 -10.168  11.665  0.00  0.00    -0.313 N 
ATOM     29  C   UNL     1      -2.558 -11.124  12.388  0.00  0.00    +0.216 C 
ATOM     41  H   UNL     1      -3.412  -9.255  12.081  0.00  0.00    +0.149 HD
BRANCH  14  31
ATOM     31  C   UNL     1      -3.714 -10.381  10.310  0.00  0.00    +0.067 C 
ATOM     34  C   UNL     1      -5.070 -11.075  10.306  0.00  0.00    +0.027 C 
ATOM     35  C   UNL     1      -3.767  -9.059   9.556  0.00  0.00    +0.027 C 
ENDBRANCH  14  31
ENDBRANCH  26  29
ENDBRANCH  24  26
ENDBRANCH  22  16
ENDBRANCH  12  22
TORSDOF 15
ENDMDL
MODEL 3
REMARK VINA RESULT:      -6.0     27.629     30.614
REMARK  Name = 45360605
REMARK  20 active torsions:
REMARK  status: ('A' for Active; 'I' for Inactive)
REMARK    1  A    between atoms: S_1  and  N_12
REMARK    2  A    between atoms: S_1  and  C_27
REMARK    3  A    between atoms: O_4  and  C_17
REMARK    4  A    between atoms: O_5  and  C_18
REMARK    5  A    between atoms: O_6  and  C_19
REMARK    6  A    between atoms: O_7  and  C_20
REMARK    7  A    between atoms: N_12  and  C_21
REMARK    8  A    between atoms: N_12  and  C_22
REMARK    9  A    between atoms: N_13  and  C_30
REMARK   10  A    between atoms: N_14  and  C_31
REMARK   11  A    between atoms: C_15  and  C_21
REMARK   12  A    between atoms: C_16  and  C_22
REMARK   13  A    between atoms: C_23  and  C_25
REMARK   14  A    between atoms: C_24  and  C_26
REMARK   15  A    between atoms: C_25  and  C_28
REMARK   16  A    between atoms: C_26  and  C_29
REMARK   17  A    between atoms: C_30  and  C_32
REMARK   18  A    between atoms: C_30  and  C_33
REMARK   19  A    between atoms: C_31  and  C_34
REMARK   20  A    between atoms: C_31  and  C_35
REMARK                            x       y       z     vdW  Elec       q    Type
REMARK                         _______ _______ _______ _____ _____    ______ ____
ROOT
ATOM     12  N   UNL     1      -6.040 -12.024  16.108  0.00  0.00    -0.176 NA
ENDROOT
BRANCH  12   1
ATOM      1  S   UNL     1      -6.910 -13.374  15.484  0.00  0.00    +0.029 S 
ATOM      8  O   UNL     1      -7.917 -12.903  14.553  0.00  0.00    -0.158 OA
ATOM      9  O   UNL     1      -5.979 -14.415  15.088  0.00  0.00    -0.158 OA
ATOM     27  C   UNL     1      -7.757 -13.942  16.943  0.00  0.00    +0.215 C 
ENDBRANCH  12   1
BRANCH  12  21
ATOM     21  C   UNL     1      -5.613 -12.062  17.518  0.00  0.00    +0.143 C 
BRANCH  21  15
ATOM      2  O   UNL     1      -6.838 -10.011  17.303  0.00  0.00    -0.366 OA
ATOM     15  C   UNL     1      -5.960 -10.741  18.191  0.00  0.00    +0.165 C 
ATOM     17  C   UNL     1      -6.723 -10.919  19.499  0.00  0.00    +0.175 C 
ATOM     19  C   UNL     1      -8.162 -10.926  19.027  0.00  0.00    +0.175 C 
ATOM     23  C   UNL     1      -8.127  -9.876  17.928  0.00  0.00    +0.158 C 
BRANCH  17   4
ATOM      4  O   UNL     1      -6.474  -9.775  20.315  0.00  0.00    -0.387 OA
ATOM     36  H   UNL     1      -5.524  -9.575  20.256  0.00  0.00    +0.210 HD
ENDBRANCH  17   4
BRANCH  19   6
ATOM      6  O   UNL     1      -9.085 -10.598  20.043  0.00  0.00    -0.387 OA
ATOM     38  H   UNL     1      -9.181  -9.631  20.049  0.00  0.00    +0.210 HD
ENDBRANCH  19   6
BRANCH  23  25
ATOM     25  C   UNL     1      -9.220 -10.055  16.890  0.00  0.00    +0.130 C 
BRANCH  25  28
ATOM     10  O   UNL     1     -11.002  -9.093  18.213  0.00  0.00    -0.276 OA
ATOM     13  N   UNL     1     -10.734  -8.412  16.007  0.00  0.00    -0.313 N 
ATOM     28  C   UNL     1     -10.412  -9.148  17.138  0.00  0.00    +0.216 C 
ATOM     40  H   UNL     1     -10.135  -8.476  15.190  0.00  0.00    +0.149 HD
BRANCH  13  30
ATOM     30  C   UNL     1     -11.830  -7.471  15.966  0.00  0.00    +0.067 C 
ATOM     32  C   UNL     1     -11.345  -6.069  16.314  0.00  0.00    +0.027 C 
ATOM     33  C   UNL     1     -12.499  -7.499  14.597  0.00  0.00    +0.027 C 
ENDBRANCH  13  30
ENDBRANCH  25  28
ENDBRANCH  23  25
ENDBRANCH  21  15
ENDBRANCH  12  21
BRANCH  12  22
ATOM     22  C   UNL     1      -5.024 -11.396  15.222  0.00  0.00    +0.143 C 
BRANCH  22  16
ATOM      3  O   UNL     1      -3.040 -12.570  14.553  0.00  0.00    -0.366 OA
ATOM     16  C   UNL     1      -3.629 -11.834  15.649  0.00  0.00    +0.165 C 
ATOM     18  C   UNL     1      -2.696 -10.661  15.930  0.00  0.00    +0.175 C 
ATOM     20  C   UNL     1      -2.077 -10.418  14.569  0.00  0.00    +0.175 C 
ATOM     24  C   UNL     1      -1.908 -11.837  14.053  0.00  0.00    +0.158 C 
BRANCH  18   5
ATOM      5  O   UNL     1      -1.701 -11.099  16.855  0.00  0.00    -0.387 OA
ATOM     37  H   UNL     1      -0.897 -11.297  16.344  0.00  0.00    +0.210 HD
ENDBRANCH  18   5
BRANCH  20   7
ATOM      7  O   UNL     1      -0.849  -9.725  14.629  0.00  0.00    -0.387 OA
ATOM     39  H   UNL     1      -1.052  -8.778  14.706  0.00  0.00    +0.210 HD
ENDBRANCH  20   7
BRANCH  24  26
ATOM     26  C   UNL     1      -1.869 -11.926  12.539  0.00  0.00    +0.130 C 
BRANCH  26  29
ATOM     11  O   UNL     1      -1.310  -9.723  11.710  0.00  0.00    -0.276 OA
ATOM     14  N   UNL     1      -3.487 -10.504  11.474  0.00  0.00    -0.313 N 
ATOM     29  C   UNL     1      -2.159 -10.595  11.869  0.00  0.00    +0.216 C 
ATOM     41  H   UNL     1      -4.121 -11.261  11.708  0.00  0.00    +0.149 HD
BRANCH  14  31
ATOM     31  C   UNL     1      -4.034  -9.341  10.813  0.00  0.00    +0.067 C 
ATOM     34  C   UNL     1      -4.120  -9.573   9.309  0.00  0.00    +0.027 C 
ATOM     35  C   UNL     1      -5.398  -8.994  11.397  0.00  0.00    +0.027 C 
ENDBRANCH  14  31
ENDBRANCH  26  29
ENDBRANCH  24  26
ENDBRANCH  22  16
ENDBRANCH  12  22
TORSDOF 15
ENDMDL
MODEL 4
REMARK VINA RESULT:      -6.0     28.834     30.815
REMARK  Name = 45360605
REMARK  20 active torsions:
REMARK  status: ('A' for Active; 'I' for Inactive)
REMARK    1  A    between atoms: S_1  and  N_12
REMARK    2  A    between atoms: S_1  and  C_27
REMARK    3  A    between atoms: O_4  and  C_17
REMARK    4  A    between atoms: O_5  and  C_18
REMARK    5  A    between atoms: O_6  and  C_19
REMARK    6  A    between atoms: O_7  and  C_20
REMARK    7  A    between atoms: N_12  and  C_21
REMARK    8  A    between atoms: N_12  and  C_22
REMARK    9  A    between atoms: N_13  and  C_30
REMARK   10  A    between atoms: N_14  and  C_31
REMARK   11  A    between atoms: C_15  and  C_21
REMARK   12  A    between atoms: C_16  and  C_22
REMARK   13  A    between atoms: C_23  and  C_25
REMARK   14  A    between atoms: C_24  and  C_26
REMARK   15  A    between atoms: C_25  and  C_28
REMARK   16  A    between atoms: C_26  and  C_29
REMARK   17  A    between atoms: C_30  and  C_32
REMARK   18  A    between atoms: C_30  and  C_33
REMARK   19  A    between atoms: C_31  and  C_34
REMARK   20  A    between atoms: C_31  and  C_35
REMARK                            x       y       z     vdW  Elec       q    Type
REMARK                         _______ _______ _______ _____ _____    ______ ____
ROOT
ATOM     12  N   UNL     1      -6.949 -11.263  14.630  0.00  0.00    -0.176 NA
ENDROOT
BRANCH  12   1
ATOM      1  S   UNL     1      -8.589 -11.266  14.102  0.00  0.00    +0.029 S 
ATOM      8  O   UNL     1      -8.648 -11.741  12.733  0.00  0.00    -0.158 OA
ATOM      9  O   UNL     1      -9.430 -11.868  15.121  0.00  0.00    -0.158 OA
ATOM     27  C   UNL     1      -8.946  -9.522  14.077  0.00  0.00    +0.215 C 
ENDBRANCH  12   1
BRANCH  12  21
ATOM     21  C   UNL     1      -6.643 -11.832  15.956  0.00  0.00    +0.143 C 
BRANCH  21  15
ATOM      2  O   UNL     1      -5.831 -10.469  17.754  0.00  0.00    -0.366 OA
ATOM     15  C   UNL     1      -5.421 -11.135  16.539  0.00  0.00    +0.165 C 
ATOM     17  C   UNL     1      -4.312 -12.104  16.932  0.00  0.00    +0.175 C 
ATOM     19  C   UNL     1      -4.671 -12.427  18.368  0.00  0.00    +0.175 C 
ATOM     23  C   UNL     1      -5.159 -11.079  18.871  0.00  0.00    +0.158 C 
BRANCH  17   4
ATOM      4  O   UNL     1      -3.071 -11.402  16.877  0.00  0.00    -0.387 OA
ATOM     36  H   UNL     1      -3.038 -10.807  17.645  0.00  0.00    +0.210 HD
ENDBRANCH  17   4
BRANCH  19   6
ATOM      6  O   UNL     1      -3.579 -12.910  19.122  0.00  0.00    -0.387 OA
ATOM     38  H   UNL     1      -3.833 -13.776  19.481  0.00  0.00    +0.210 HD
ENDBRANCH  19   6
BRANCH  23  25
ATOM     25  C   UNL     1      -6.114 -11.185  20.047  0.00  0.00    +0.130 C 
BRANCH  25  28
ATOM     10  O   UNL     1      -7.913 -12.738  19.602  0.00  0.00    -0.276 OA
ATOM     13  N   UNL     1      -8.271 -10.465  19.270  0.00  0.00    -0.313 N 
ATOM     28  C   UNL     1      -7.518 -11.576  19.623  0.00  0.00    +0.216 C 
ATOM     40  H   UNL     1      -7.873  -9.540  19.395  0.00  0.00    +0.149 HD
BRANCH  13  30
ATOM     30  C   UNL     1      -9.644 -10.553  18.826  0.00  0.00    +0.067 C 
ATOM     32  C   UNL     1     -10.598 -10.386  20.002  0.00  0.00    +0.027 C 
ATOM     33  C   UNL     1      -9.915  -9.516  17.744  0.00  0.00    +0.027 C 
ENDBRANCH  13  30
ENDBRANCH  25  28
ENDBRANCH  23  25
ENDBRANCH  21  15
ENDBRANCH  12  21
BRANCH  12  22
ATOM     22  C   UNL     1      -5.904 -11.578  13.620  0.00  0.00    +0.143 C 
BRANCH  22  16
ATOM      3  O   UNL     1      -3.835 -10.378  13.415  0.00  0.00    -0.366 OA
ATOM     16  C   UNL     1      -5.251 -10.289  13.137  0.00  0.00    +0.165 C 
ATOM     18  C   UNL     1      -5.382 -10.083  11.632  0.00  0.00    +0.175 C 
ATOM     20  C   UNL     1      -4.138 -10.772  11.110  0.00  0.00    +0.175 C 
ATOM     24  C   UNL     1      -3.115 -10.399  12.170  0.00  0.00    +0.158 C 
BRANCH  18   5
ATOM      5  O   UNL     1      -5.317  -8.681  11.370  0.00  0.00    -0.387 OA
ATOM     37  H   UNL     1      -5.360  -8.564  10.405  0.00  0.00    +0.210 HD
ENDBRANCH  18   5
BRANCH  20   7
ATOM      7  O   UNL     1      -3.754 -10.335   9.825  0.00  0.00    -0.387 OA
ATOM     39  H   UNL     1      -3.888  -9.373   9.792  0.00  0.00    +0.210 HD
ENDBRANCH  20   7
BRANCH  24  26
ATOM     26  C   UNL     1      -1.960 -11.379  12.263  0.00  0.00    +0.130 C 
BRANCH  26  29
ATOM     11  O   UNL     1      -1.440 -11.907  14.565  0.00  0.00    -0.276 OA
ATOM     14  N   UNL     1      -2.770 -13.367  13.340  0.00  0.00    -0.313 N 
ATOM     29  C   UNL     1      -2.011 -12.221  13.525  0.00  0.00    +0.216 C 
ATOM     41  H   UNL     1      -3.151 -13.561  12.419  0.00  0.00    +0.149 HD
BRANCH  14  31
ATOM     31  C   UNL     1      -2.983 -14.348  14.381  0.00  0.00    +0.067 C 
ATOM     34  C   UNL     1      -4.415 -14.866  14.341  0.00  0.00    +0.027 C 
ATOM     35  C   UNL     1      -1.980 -15.487  14.247  0.00  0.00    +0.027 C 
ENDBRANCH  14  31
ENDBRANCH  26  29
ENDBRANCH  24  26
ENDBRANCH  22  16
ENDBRANCH  12  22
TORSDOF 15
ENDMDL
MODEL 5
REMARK VINA RESULT:      -5.9     27.507     30.711
REMARK  Name = 45360605
REMARK  20 active torsions:
REMARK  status: ('A' for Active; 'I' for Inactive)
REMARK    1  A    between atoms: S_1  and  N_12
REMARK    2  A    between atoms: S_1  and  C_27
REMARK    3  A    between atoms: O_4  and  C_17
REMARK    4  A    between atoms: O_5  and  C_18
REMARK    5  A    between atoms: O_6  and  C_19
REMARK    6  A    between atoms: O_7  and  C_20
REMARK    7  A    between atoms: N_12  and  C_21
REMARK    8  A    between atoms: N_12  and  C_22
REMARK    9  A    between atoms: N_13  and  C_30
REMARK   10  A    between atoms: N_14  and  C_31
REMARK   11  A    between atoms: C_15  and  C_21
REMARK   12  A    between atoms: C_16  and  C_22
REMARK   13  A    between atoms: C_23  and  C_25
REMARK   14  A    between atoms: C_24  and  C_26
REMARK   15  A    between atoms: C_25  and  C_28
REMARK   16  A    between atoms: C_26  and  C_29
REMARK   17  A    between atoms: C_30  and  C_32
REMARK   18  A    between atoms: C_30  and  C_33
REMARK   19  A    between atoms: C_31  and  C_34
REMARK   20  A    between atoms: C_31  and  C_35
REMARK                            x       y       z     vdW  Elec       q    Type
REMARK                         _______ _______ _______ _____ _____    ______ ____
ROOT
ATOM     12  N   UNL     1      -3.799 -11.422  15.195  0.00  0.00    -0.176 NA
ENDROOT
BRANCH  12   1
ATOM      1  S   UNL     1      -2.299 -11.256  14.365  0.00  0.00    +0.029 S 
ATOM      8  O   UNL     1      -1.674 -12.560  14.243  0.00  0.00    -0.158 OA
ATOM      9  O   UNL     1      -2.479 -10.422  13.191  0.00  0.00    -0.158 OA
ATOM     27  C   UNL     1      -1.352 -10.320  15.545  0.00  0.00    +0.215 C 
ENDBRANCH  12   1
BRANCH  12  21
ATOM     21  C   UNL     1      -3.968 -10.712  16.476  0.00  0.00    +0.143 C 
BRANCH  21  15
ATOM      2  O   UNL     1      -4.461 -11.047  18.799  0.00  0.00    -0.366 OA
ATOM     15  C   UNL     1      -3.963 -11.717  17.619  0.00  0.00    +0.165 C 
ATOM     17  C   UNL     1      -4.888 -12.904  17.376  0.00  0.00    +0.175 C 
ATOM     19  C   UNL     1      -6.193 -12.412  17.966  0.00  0.00    +0.175 C 
ATOM     23  C   UNL     1      -5.707 -11.651  19.189  0.00  0.00    +0.158 C 
BRANCH  17   4
ATOM      4  O   UNL     1      -4.392 -14.013  18.125  0.00  0.00    -0.387 OA
ATOM     36  H   UNL     1      -4.052 -13.667  18.967  0.00  0.00    +0.210 HD
ENDBRANCH  17   4
BRANCH  19   6
ATOM      6  O   UNL     1      -7.080 -13.455  18.310  0.00  0.00    -0.387 OA
ATOM     38  H   UNL     1      -7.979 -13.085  18.313  0.00  0.00    +0.210 HD
ENDBRANCH  19   6
BRANCH  23  25
ATOM     25  C   UNL     1      -6.674 -10.577  19.653  0.00  0.00    +0.130 C 
BRANCH  25  28
ATOM     10  O   UNL     1      -8.631 -11.917  20.128  0.00  0.00    -0.276 OA
ATOM     13  N   UNL     1      -8.783 -10.206  18.562  0.00  0.00    -0.313 N 
ATOM     28  C   UNL     1      -8.126 -10.993  19.496  0.00  0.00    +0.216 C 
ATOM     40  H   UNL     1      -8.293  -9.417  18.150  0.00  0.00    +0.149 HD
BRANCH  13  30
ATOM     30  C   UNL     1     -10.174 -10.388  18.217  0.00  0.00    +0.067 C 
ATOM     32  C   UNL     1     -10.757  -9.101  17.646  0.00  0.00    +0.027 C 
ATOM     33  C   UNL     1     -10.329 -11.545  17.238  0.00  0.00    +0.027 C 
ENDBRANCH  13  30
ENDBRANCH  25  28
ENDBRANCH  23  25
ENDBRANCH  21  15
ENDBRANCH  12  21
BRANCH  12  22
ATOM     22  C   UNL     1      -5.039 -11.420  14.375  0.00  0.00    +0.143 C 
BRANCH  22  16
ATOM      3  O   UNL     1      -6.036  -9.510  13.316  0.00  0.00    -0.366 OA
ATOM     16  C   UNL     1      -5.805 -10.123  14.604  0.00  0.00    +0.165 C 
ATOM     18  C   UNL     1      -7.178 -10.343  15.228  0.00  0.00    +0.175 C 
ATOM     20  C   UNL     1      -8.057 -10.510  14.005  0.00  0.00    +0.175 C 
ATOM     24  C   UNL     1      -7.450  -9.493  13.054  0.00  0.00    +0.158 C 
BRANCH  18   5
ATOM      5  O   UNL     1      -7.538  -9.159  15.937  0.00  0.00    -0.387 OA
ATOM     37  H   UNL     1      -8.389  -9.331  16.378  0.00  0.00    +0.210 HD
ENDBRANCH  18   5
BRANCH  20   7
ATOM      7  O   UNL     1      -9.421 -10.253  14.257  0.00  0.00    -0.387 OA
ATOM     39  H   UNL     1      -9.935 -10.703  13.566  0.00  0.00    +0.210 HD
ENDBRANCH  20   7
BRANCH  24  26
ATOM     26  C   UNL     1      -7.704  -9.810  11.591  0.00  0.00    +0.130 C 
BRANCH  26  29
ATOM     11  O   UNL     1      -6.451 -11.783  10.967  0.00  0.00    -0.276 OA
ATOM     14  N   UNL     1      -5.646  -9.690  10.357  0.00  0.00    -0.313 N 
ATOM     29  C   UNL     1      -6.550 -10.560  10.949  0.00  0.00    +0.216 C 
ATOM     41  H   UNL     1      -5.793  -8.690  10.452  0.00  0.00    +0.149 HD
BRANCH  14  31
ATOM     31  C   UNL     1      -4.452 -10.138   9.675  0.00  0.00    +0.067 C 
ATOM     34  C   UNL     1      -4.705 -10.255   8.178  0.00  0.00    +0.027 C 
ATOM     35  C   UNL     1      -3.291  -9.196   9.968  0.00  0.00    +0.027 C 
ENDBRANCH  14  31
ENDBRANCH  26  29
ENDBRANCH  24  26
ENDBRANCH  22  16
ENDBRANCH  12  22
TORSDOF 15
ENDMDL
MODEL 6
REMARK VINA RESULT:      -5.9     16.922     21.290
REMARK  Name = 45360605
REMARK  20 active torsions:
REMARK  status: ('A' for Active; 'I' for Inactive)
REMARK    1  A    between atoms: S_1  and  N_12
REMARK    2  A    between atoms: S_1  and  C_27
REMARK    3  A    between atoms: O_4  and  C_17
REMARK    4  A    between atoms: O_5  and  C_18
REMARK    5  A    between atoms: O_6  and  C_19
REMARK    6  A    between atoms: O_7  and  C_20
REMARK    7  A    between atoms: N_12  and  C_21
REMARK    8  A    between atoms: N_12  and  C_22
REMARK    9  A    between atoms: N_13  and  C_30
REMARK   10  A    between atoms: N_14  and  C_31
REMARK   11  A    between atoms: C_15  and  C_21
REMARK   12  A    between atoms: C_16  and  C_22
REMARK   13  A    between atoms: C_23  and  C_25
REMARK   14  A    between atoms: C_24  and  C_26
REMARK   15  A    between atoms: C_25  and  C_28
REMARK   16  A    between atoms: C_26  and  C_29
REMARK   17  A    between atoms: C_30  and  C_32
REMARK   18  A    between atoms: C_30  and  C_33
REMARK   19  A    between atoms: C_31  and  C_34
REMARK   20  A    between atoms: C_31  and  C_35
REMARK                            x       y       z     vdW  Elec       q    Type
REMARK                         _______ _______ _______ _____ _____    ______ ____
ROOT
ATOM     12  N   UNL     1      12.944   8.242   5.195  0.00  0.00    -0.176 NA
ENDROOT
BRANCH  12   1
ATOM      1  S   UNL     1      14.288   8.899   6.048  0.00  0.00    +0.029 S 
ATOM      8  O   UNL     1      13.824   9.954   6.930  0.00  0.00    -0.158 OA
ATOM      9  O   UNL     1      15.110   7.822   6.569  0.00  0.00    -0.158 OA
ATOM     27  C   UNL     1      15.194   9.670   4.724  0.00  0.00    +0.215 C 
ENDBRANCH  12   1
BRANCH  12  21
ATOM     21  C   UNL     1      11.588   8.640   5.617  0.00  0.00    +0.143 C 
BRANCH  21  15
ATOM      2  O   UNL     1       9.680   7.718   6.741  0.00  0.00    -0.366 OA
ATOM     15  C   UNL     1      11.126   7.740   6.755  0.00  0.00    +0.165 C 
ATOM     17  C   UNL     1      11.580   6.293   6.595  0.00  0.00    +0.175 C 
ATOM     19  C   UNL     1      10.437   5.690   5.806  0.00  0.00    +0.175 C 
ATOM     23  C   UNL     1       9.237   6.385   6.427  0.00  0.00    +0.158 C 
BRANCH  17   4
ATOM      4  O   UNL     1      11.651   5.706   7.894  0.00  0.00    -0.387 OA
ATOM     36  H   UNL     1      10.838   5.189   8.025  0.00  0.00    +0.210 HD
ENDBRANCH  17   4
BRANCH  19   6
ATOM      6  O   UNL     1      10.356   4.286   5.925  0.00  0.00    -0.387 OA
ATOM     38  H   UNL     1      10.173   4.082   6.858  0.00  0.00    +0.210 HD
ENDBRANCH  19   6
BRANCH  23  25
ATOM     25  C   UNL     1       8.034   6.451   5.503  0.00  0.00    +0.130 C 
BRANCH  25  28
ATOM     10  O   UNL     1       8.610   7.550   3.427  0.00  0.00    -0.276 OA
ATOM     13  N   UNL     1       7.526   8.762   5.087  0.00  0.00    -0.313 N 
ATOM     28  C   UNL     1       8.102   7.624   4.542  0.00  0.00    +0.216 C 
ATOM     40  H   UNL     1       7.065   8.698   5.990  0.00  0.00    +0.149 HD
BRANCH  13  30
ATOM     30  C   UNL     1       7.457  10.024   4.385  0.00  0.00    +0.067 C 
ATOM     32  C   UNL     1       6.012  10.370   4.048  0.00  0.00    +0.027 C 
ATOM     33  C   UNL     1       8.109  11.125   5.212  0.00  0.00    +0.027 C 
ENDBRANCH  13  30
ENDBRANCH  25  28
ENDBRANCH  23  25
ENDBRANCH  21  15
ENDBRANCH  12  21
BRANCH  12  22
ATOM     22  C   UNL     1      13.065   8.117   3.718  0.00  0.00    +0.143 C 
BRANCH  22  16
ATOM      3  O   UNL     1      12.118   6.122   2.779  0.00  0.00    -0.366 OA
ATOM     16  C   UNL     1      13.332   6.664   3.346  0.00  0.00    +0.165 C 
ATOM     18  C   UNL     1      14.411   6.510   2.279  0.00  0.00    +0.175 C 
ATOM     20  C   UNL     1      13.600   6.568   1.001  0.00  0.00    +0.175 C 
ATOM     24  C   UNL     1      12.351   5.799   1.397  0.00  0.00    +0.158 C 
BRANCH  18   5
ATOM      5  O   UNL     1      15.003   5.220   2.431  0.00  0.00    -0.387 OA
ATOM     37  H   UNL     1      14.942   4.982   3.372  0.00  0.00    +0.210 HD
ENDBRANCH  18   5
BRANCH  20   7
ATOM      7  O   UNL     1      14.256   5.982  -0.104  0.00  0.00    -0.387 OA
ATOM     39  H   UNL     1      15.057   6.504  -0.277  0.00  0.00    +0.210 HD
ENDBRANCH  20   7
BRANCH  24  26
ATOM     26  C   UNL     1      11.131   6.167   0.573  0.00  0.00    +0.130 C 
BRANCH  26  29
ATOM     11  O   UNL     1       9.435   4.533   0.020  0.00  0.00    -0.276 OA
ATOM     14  N   UNL     1      11.465   4.486  -1.112  0.00  0.00    -0.313 N 
ATOM     29  C   UNL     1      10.560   4.981  -0.184  0.00  0.00    +0.216 C 
ATOM     41  H   UNL     1      12.393   4.895  -1.158  0.00  0.00    +0.149 HD
BRANCH  14  31
ATOM     31  C   UNL     1      11.179   3.357  -1.968  0.00  0.00    +0.067 C 
ATOM     34  C   UNL     1      10.315   3.786  -3.147  0.00  0.00    +0.027 C 
ATOM     35  C   UNL     1      12.475   2.709  -2.439  0.00  0.00    +0.027 C 
ENDBRANCH  14  31
ENDBRANCH  26  29
ENDBRANCH  24  26
ENDBRANCH  22  16
ENDBRANCH  12  22
TORSDOF 15
ENDMDL
MODEL 7
REMARK VINA RESULT:      -5.8     28.295     30.216
REMARK  Name = 45360605
REMARK  20 active torsions:
REMARK  status: ('A' for Active; 'I' for Inactive)
REMARK    1  A    between atoms: S_1  and  N_12
REMARK    2  A    between atoms: S_1  and  C_27
REMARK    3  A    between atoms: O_4  and  C_17
REMARK    4  A    between atoms: O_5  and  C_18
REMARK    5  A    between atoms: O_6  and  C_19
REMARK    6  A    between atoms: O_7  and  C_20
REMARK    7  A    between atoms: N_12  and  C_21
REMARK    8  A    between atoms: N_12  and  C_22
REMARK    9  A    between atoms: N_13  and  C_30
REMARK   10  A    between atoms: N_14  and  C_31
REMARK   11  A    between atoms: C_15  and  C_21
REMARK   12  A    between atoms: C_16  and  C_22
REMARK   13  A    between atoms: C_23  and  C_25
REMARK   14  A    between atoms: C_24  and  C_26
REMARK   15  A    between atoms: C_25  and  C_28
REMARK   16  A    between atoms: C_26  and  C_29
REMARK   17  A    between atoms: C_30  and  C_32
REMARK   18  A    between atoms: C_30  and  C_33
REMARK   19  A    between atoms: C_31  and  C_34
REMARK   20  A    between atoms: C_31  and  C_35
REMARK                            x       y       z     vdW  Elec       q    Type
REMARK                         _______ _______ _______ _____ _____    ______ ____
ROOT
ATOM     12  N   UNL     1      -5.165 -12.494  14.042  0.00  0.00    -0.176 NA
ENDROOT
BRANCH  12   1
ATOM      1  S   UNL     1      -5.267 -14.152  14.498  0.00  0.00    +0.029 S 
ATOM      8  O   UNL     1      -3.958 -14.764  14.373  0.00  0.00    -0.158 OA
ATOM      9  O   UNL     1      -6.013 -14.273  15.738  0.00  0.00    -0.158 OA
ATOM     27  C   UNL     1      -6.289 -14.806  13.196  0.00  0.00    +0.215 C 
ENDBRANCH  12   1
BRANCH  12  21
ATOM     21  C   UNL     1      -5.202 -12.164  12.606  0.00  0.00    +0.143 C 
BRANCH  21  15
ATOM      2  O   UNL     1      -3.755 -11.556  10.791  0.00  0.00    -0.366 OA
ATOM     15  C   UNL     1      -3.813 -12.336  12.008  0.00  0.00    +0.165 C 
ATOM     17  C   UNL     1      -2.704 -11.807  12.911  0.00  0.00    +0.175 C 
ATOM     19  C   UNL     1      -2.593 -10.365  12.461  0.00  0.00    +0.175 C 
ATOM     23  C   UNL     1      -2.798 -10.496  10.961  0.00  0.00    +0.158 C 
BRANCH  17   4
ATOM      4  O   UNL     1      -1.505 -12.517  12.600  0.00  0.00    -0.387 OA
ATOM     36  H   UNL     1      -0.936 -12.488  13.388  0.00  0.00    +0.210 HD
ENDBRANCH  17   4
BRANCH  19   6
ATOM      6  O   UNL     1      -1.350  -9.775  12.777  0.00  0.00    -0.387 OA
ATOM     38  H   UNL     1      -0.886 -10.379  13.381  0.00  0.00    +0.210 HD
ENDBRANCH  19   6
BRANCH  23  25
ATOM     25  C   UNL     1      -3.318  -9.227  10.312  0.00  0.00    +0.130 C 
BRANCH  25  28
ATOM     10  O   UNL     1      -5.404  -8.693  11.413  0.00  0.00    -0.276 OA
ATOM     13  N   UNL     1      -5.449  -9.502   9.235  0.00  0.00    -0.313 N 
ATOM     28  C   UNL     1      -4.828  -9.100  10.409  0.00  0.00    +0.216 C 
ATOM     40  H   UNL     1      -4.876  -9.752   8.435  0.00  0.00    +0.149 HD
BRANCH  13  30
ATOM     30  C   UNL     1      -6.883  -9.486   9.057  0.00  0.00    +0.067 C 
ATOM     32  C   UNL     1      -7.344  -8.124   8.552  0.00  0.00    +0.027 C 
ATOM     33  C   UNL     1      -7.310 -10.599   8.108  0.00  0.00    +0.027 C 
ENDBRANCH  13  30
ENDBRANCH  25  28
ENDBRANCH  23  25
ENDBRANCH  21  15
ENDBRANCH  12  21
BRANCH  12  22
ATOM     22  C   UNL     1      -5.906 -11.508  14.873  0.00  0.00    +0.143 C 
BRANCH  22  16
ATOM      3  O   UNL     1      -5.627  -9.893  16.626  0.00  0.00    -0.366 OA
ATOM     16  C   UNL     1      -4.920 -10.578  15.568  0.00  0.00    +0.165 C 
ATOM     18  C   UNL     1      -3.766 -11.321  16.233  0.00  0.00    +0.175 C 
ATOM     20  C   UNL     1      -4.318 -11.583  17.619  0.00  0.00    +0.175 C 
ATOM     24  C   UNL     1      -5.079 -10.297  17.893  0.00  0.00    +0.158 C 
BRANCH  18   5
ATOM      5  O   UNL     1      -2.651 -10.433  16.305  0.00  0.00    -0.387 OA
ATOM     37  H   UNL     1      -1.878 -10.910  15.956  0.00  0.00    +0.210 HD
ENDBRANCH  18   5
BRANCH  20   7
ATOM      7  O   UNL     1      -3.316 -11.822  18.584  0.00  0.00    -0.387 OA
ATOM     39  H   UNL     1      -3.518 -12.672  19.010  0.00  0.00    +0.210 HD
ENDBRANCH  20   7
BRANCH  24  26
ATOM     26  C   UNL     1      -6.197 -10.463  18.905  0.00  0.00    +0.130 C 
BRANCH  26  29
ATOM     11  O   UNL     1      -8.094 -11.722  18.089  0.00  0.00    -0.276 OA
ATOM     14  N   UNL     1      -8.089  -9.409  17.865  0.00  0.00    -0.313 N 
ATOM     29  C   UNL     1      -7.556 -10.631  18.250  0.00  0.00    +0.216 C 
ATOM     41  H   UNL     1      -7.532  -8.569  17.992  0.00  0.00    +0.149 HD
BRANCH  14  31
ATOM     31  C   UNL     1      -9.374  -9.278  17.215  0.00  0.00    +0.067 C 
ATOM     34  C   UNL     1      -9.931  -7.874  17.411  0.00  0.00    +0.027 C 
ATOM     35  C   UNL     1      -9.256  -9.625  15.737  0.00  0.00    +0.027 C 
ENDBRANCH  14  31
ENDBRANCH  26  29
ENDBRANCH  24  26
ENDBRANCH  22  16
ENDBRANCH  12  22
TORSDOF 15
ENDMDL
MODEL 8
REMARK VINA RESULT:      -5.7      4.010      8.153
REMARK  Name = 45360605
REMARK  20 active torsions:
REMARK  status: ('A' for Active; 'I' for Inactive)
REMARK    1  A    between atoms: S_1  and  N_12
REMARK    2  A    between atoms: S_1  and  C_27
REMARK    3  A    between atoms: O_4  and  C_17
REMARK    4  A    between atoms: O_5  and  C_18
REMARK    5  A    between atoms: O_6  and  C_19
REMARK    6  A    between atoms: O_7  and  C_20
REMARK    7  A    between atoms: N_12  and  C_21
REMARK    8  A    between atoms: N_12  and  C_22
REMARK    9  A    between atoms: N_13  and  C_30
REMARK   10  A    between atoms: N_14  and  C_31
REMARK   11  A    between atoms: C_15  and  C_21
REMARK   12  A    between atoms: C_16  and  C_22
REMARK   13  A    between atoms: C_23  and  C_25
REMARK   14  A    between atoms: C_24  and  C_26
REMARK   15  A    between atoms: C_25  and  C_28
REMARK   16  A    between atoms: C_26  and  C_29
REMARK   17  A    between atoms: C_30  and  C_32
REMARK   18  A    between atoms: C_30  and  C_33
REMARK   19  A    between atoms: C_31  and  C_34
REMARK   20  A    between atoms: C_31  and  C_35
REMARK                            x       y       z     vdW  Elec       q    Type
REMARK                         _______ _______ _______ _____ _____    ______ ____
ROOT
ATOM     12  N   UNL     1      16.083  10.086  20.968  0.00  0.00    -0.176 NA
ENDROOT
BRANCH  12   1
ATOM      1  S   UNL     1      16.225  11.802  20.908  0.00  0.00    +0.029 S 
ATOM      8  O   UNL     1      16.442  12.310  22.249  0.00  0.00    -0.158 OA
ATOM      9  O   UNL     1      17.121  12.182  19.830  0.00  0.00    -0.158 OA
ATOM     27  C   UNL     1      14.577  12.267  20.421  0.00  0.00    +0.215 C 
ENDBRANCH  12   1
BRANCH  12  21
ATOM     21  C   UNL     1      14.861   9.469  20.420  0.00  0.00    +0.143 C 
BRANCH  21  15
ATOM      2  O   UNL     1      13.615   8.176  22.011  0.00  0.00    -0.366 OA
ATOM     15  C   UNL     1      14.674   8.086  21.030  0.00  0.00    +0.165 C 
ATOM     17  C   UNL     1      14.230   7.040  20.013  0.00  0.00    +0.175 C 
ATOM     19  C   UNL     1      12.721   7.151  20.086  0.00  0.00    +0.175 C 
ATOM     23  C   UNL     1      12.503   7.376  21.572  0.00  0.00    +0.158 C 
BRANCH  17   4
ATOM      4  O   UNL     1      14.656   5.761  20.481  0.00  0.00    -0.387 OA
ATOM     36  H   UNL     1      14.125   5.545  21.266  0.00  0.00    +0.210 HD
ENDBRANCH  17   4
BRANCH  19   6
ATOM      6  O   UNL     1      12.054   5.997  19.621  0.00  0.00    -0.387 OA
ATOM     38  H   UNL     1      11.187   6.278  19.282  0.00  0.00    +0.210 HD
ENDBRANCH  19   6
BRANCH  23  25
ATOM     25  C   UNL     1      11.202   8.093  21.887  0.00  0.00    +0.130 C 
BRANCH  25  28
ATOM     10  O   UNL     1      11.348  10.368  21.081  0.00  0.00    -0.276 OA
ATOM     13  N   UNL     1      11.594   9.955  23.355  0.00  0.00    -0.313 N 
ATOM     28  C   UNL     1      11.384   9.593  22.032  0.00  0.00    +0.216 C 
ATOM     40  H   UNL     1      11.530   9.243  24.077  0.00  0.00    +0.149 HD
BRANCH  13  30
ATOM     30  C   UNL     1      11.799  11.322  23.775  0.00  0.00    +0.067 C 
ATOM     32  C   UNL     1      11.105  11.583  25.106  0.00  0.00    +0.027 C 
ATOM     33  C   UNL     1      13.288  11.632  23.859  0.00  0.00    +0.027 C 
ENDBRANCH  13  30
ENDBRANCH  25  28
ENDBRANCH  23  25
ENDBRANCH  21  15
ENDBRANCH  12  21
BRANCH  12  22
ATOM     22  C   UNL     1      17.304   9.288  20.676  0.00  0.00    +0.143 C 
BRANCH  22  16
ATOM      3  O   UNL     1      18.395   7.585  21.968  0.00  0.00    -0.366 OA
ATOM     16  C   UNL     1      18.042   8.987  21.975  0.00  0.00    +0.165 C 
ATOM     18  C   UNL     1      19.350   9.758  22.110  0.00  0.00    +0.175 C 
ATOM     20  C   UNL     1      20.342   8.815  21.462  0.00  0.00    +0.175 C 
ATOM     24  C   UNL     1      19.828   7.464  21.931  0.00  0.00    +0.158 C 
BRANCH  18   5
ATOM      5  O   UNL     1      19.638   9.900  23.501  0.00  0.00    -0.387 OA
ATOM     37  H   UNL     1      20.443  10.442  23.576  0.00  0.00    +0.210 HD
ENDBRANCH  18   5
BRANCH  20   7
ATOM      7  O   UNL     1      21.675   9.043  21.863  0.00  0.00    -0.387 OA
ATOM     39  H   UNL     1      22.254   8.696  21.164  0.00  0.00    +0.210 HD
ENDBRANCH  20   7
BRANCH  24  26
ATOM     26  C   UNL     1      20.221   6.320  21.015  0.00  0.00    +0.130 C 
BRANCH  26  29
ATOM     11  O   UNL     1      21.301   5.121  22.817  0.00  0.00    -0.276 OA
ATOM     14  N   UNL     1      22.199   4.998  20.677  0.00  0.00    -0.313 N 
ATOM     29  C   UNL     1      21.280   5.421  21.627  0.00  0.00    +0.216 C 
ATOM     41  H   UNL     1      22.124   5.354  19.730  0.00  0.00    +0.149 HD
BRANCH  14  31
ATOM     31  C   UNL     1      23.315   4.134  20.990  0.00  0.00    +0.067 C 
ATOM     34  C   UNL     1      22.868   2.678  21.028  0.00  0.00    +0.027 C 
ATOM     35  C   UNL     1      24.441   4.339  19.984  0.00  0.00    +0.027 C 
ENDBRANCH  14  31
ENDBRANCH  26  29
ENDBRANCH  24  26
ENDBRANCH  22  16
ENDBRANCH  12  22
TORSDOF 15
ENDMDL
MODEL 9
REMARK VINA RESULT:      -5.7     27.694     30.293
REMARK  Name = 45360605
REMARK  20 active torsions:
REMARK  status: ('A' for Active; 'I' for Inactive)
REMARK    1  A    between atoms: S_1  and  N_12
REMARK    2  A    between atoms: S_1  and  C_27
REMARK    3  A    between atoms: O_4  and  C_17
REMARK    4  A    between atoms: O_5  and  C_18
REMARK    5  A    between atoms: O_6  and  C_19
REMARK    6  A    between atoms: O_7  and  C_20
REMARK    7  A    between atoms: N_12  and  C_21
REMARK    8  A    between atoms: N_12  and  C_22
REMARK    9  A    between atoms: N_13  and  C_30
REMARK   10  A    between atoms: N_14  and  C_31
REMARK   11  A    between atoms: C_15  and  C_21
REMARK   12  A    between atoms: C_16  and  C_22
REMARK   13  A    between atoms: C_23  and  C_25
REMARK   14  A    between atoms: C_24  and  C_26
REMARK   15  A    between atoms: C_25  and  C_28
REMARK   16  A    between atoms: C_26  and  C_29
REMARK   17  A    between atoms: C_30  and  C_32
REMARK   18  A    between atoms: C_30  and  C_33
REMARK   19  A    between atoms: C_31  and  C_34
REMARK   20  A    between atoms: C_31  and  C_35
REMARK                            x       y       z     vdW  Elec       q    Type
REMARK                         _______ _______ _______ _____ _____    ______ ____
ROOT
ATOM     12  N   UNL     1      -5.876 -11.889  14.181  0.00  0.00    -0.176 NA
ENDROOT
BRANCH  12   1
ATOM      1  S   UNL     1      -6.775 -13.358  14.133  0.00  0.00    +0.029 S 
ATOM      8  O   UNL     1      -6.935 -13.774  12.753  0.00  0.00    -0.158 OA
ATOM      9  O   UNL     1      -6.250 -14.285  15.119  0.00  0.00    -0.158 OA
ATOM     27  C   UNL     1      -8.366 -12.807  14.711  0.00  0.00    +0.215 C 
ENDBRANCH  12   1
BRANCH  12  21
ATOM     21  C   UNL     1      -5.508 -11.255  12.901  0.00  0.00    +0.143 C 
BRANCH  21  15
ATOM      2  O   UNL     1      -5.695  -9.072  11.926  0.00  0.00    -0.366 OA
ATOM     15  C   UNL     1      -6.448 -10.091  12.623  0.00  0.00    +0.165 C 
ATOM     17  C   UNL     1      -7.611 -10.466  11.710  0.00  0.00    +0.175 C 
ATOM     19  C   UNL     1      -7.037 -10.182  10.337  0.00  0.00    +0.175 C 
ATOM     23  C   UNL     1      -6.229  -8.922  10.598  0.00  0.00    +0.158 C 
BRANCH  17   4
ATOM      4  O   UNL     1      -8.694  -9.580  11.987  0.00  0.00    -0.387 OA
ATOM     36  H   UNL     1      -8.384  -8.937  12.647  0.00  0.00    +0.210 HD
ENDBRANCH  17   4
BRANCH  19   6
ATOM      6  O   UNL     1      -8.026  -9.983   9.349  0.00  0.00    -0.387 OA
ATOM     38  H   UNL     1      -7.622 -10.184   8.488  0.00  0.00    +0.210 HD
ENDBRANCH  19   6
BRANCH  23  25
ATOM     25  C   UNL     1      -5.095  -8.719   9.610  0.00  0.00    +0.130 C 
BRANCH  25  28
ATOM     10  O   UNL     1      -3.860 -10.779   9.323  0.00  0.00    -0.276 OA
ATOM     13  N   UNL     1      -3.005  -9.132  10.723  0.00  0.00    -0.313 N 
ATOM     28  C   UNL     1      -3.937  -9.672   9.849  0.00  0.00    +0.216 C 
ATOM     40  H   UNL     1      -3.127  -8.176  11.044  0.00  0.00    +0.149 HD
BRANCH  13  30
ATOM     30  C   UNL     1      -1.805  -9.829  11.125  0.00  0.00    +0.067 C 
ATOM     32  C   UNL     1      -0.622  -8.870  11.178  0.00  0.00    +0.027 C 
ATOM     33  C   UNL     1      -2.018 -10.517  12.468  0.00  0.00    +0.027 C 
ENDBRANCH  13  30
ENDBRANCH  25  28
ENDBRANCH  23  25
ENDBRANCH  21  15
ENDBRANCH  12  21
BRANCH  12  22
ATOM     22  C   UNL     1      -6.244 -10.895  15.224  0.00  0.00    +0.143 C 
BRANCH  22  16
ATOM      3  O   UNL     1      -5.491  -9.989  17.315  0.00  0.00    -0.366 OA
ATOM     16  C   UNL     1      -5.024 -10.568  16.075  0.00  0.00    +0.165 C 
ATOM     18  C   UNL     1      -4.214 -11.802  16.455  0.00  0.00    +0.175 C 
ATOM     20  C   UNL     1      -4.866 -12.219  17.757  0.00  0.00    +0.175 C 
ATOM     24  C   UNL     1      -5.153 -10.873  18.399  0.00  0.00    +0.158 C 
BRANCH  18   5
ATOM      5  O   UNL     1      -2.866 -11.394  16.687  0.00  0.00    -0.387 OA
ATOM     37  H   UNL     1      -2.876 -10.770  17.433  0.00  0.00    +0.210 HD
ENDBRANCH  18   5
BRANCH  20   7
ATOM      7  O   UNL     1      -4.037 -13.026  18.565  0.00  0.00    -0.387 OA
ATOM     39  H   UNL     1      -4.062 -12.661  19.465  0.00  0.00    +0.210 HD
ENDBRANCH  20   7
BRANCH  24  26
ATOM     26  C   UNL     1      -6.294 -10.914  19.399  0.00  0.00    +0.130 C 
BRANCH  26  29
ATOM     11  O   UNL     1      -8.209 -12.105  18.525  0.00  0.00    -0.276 OA
ATOM     14  N   UNL     1      -8.159  -9.785  18.390  0.00  0.00    -0.313 N 
ATOM     29  C   UNL     1      -7.652 -11.031  18.730  0.00  0.00    +0.216 C 
ATOM     41  H   UNL     1      -7.588  -8.962  18.551  0.00  0.00    +0.149 HD
BRANCH  14  31
ATOM     31  C   UNL     1      -9.437  -9.606  17.738  0.00  0.00    +0.067 C 
ATOM     34  C   UNL     1     -10.572  -9.720  18.747  0.00  0.00    +0.027 C 
ATOM     35  C   UNL     1      -9.477  -8.268  17.011  0.00  0.00    +0.027 C 
ENDBRANCH  14  31
ENDBRANCH  26  29
ENDBRANCH  24  26
ENDBRANCH  22  16
ENDBRANCH  12  22
TORSDOF 15
ENDMDL
MODEL 10
REMARK VINA RESULT:      -5.4     16.533     20.097
REMARK  Name = 45360605
REMARK  20 active torsions:
REMARK  status: ('A' for Active; 'I' for Inactive)
REMARK    1  A    between atoms: S_1  and  N_12
REMARK    2  A    between atoms: S_1  and  C_27
REMARK    3  A    between atoms: O_4  and  C_17
REMARK    4  A    between atoms: O_5  and  C_18
REMARK    5  A    between atoms: O_6  and  C_19
REMARK    6  A    between atoms: O_7  and  C_20
REMARK    7  A    between atoms: N_12  and  C_21
REMARK    8  A    between atoms: N_12  and  C_22
REMARK    9  A    between atoms: N_13  and  C_30
REMARK   10  A    between atoms: N_14  and  C_31
REMARK   11  A    between atoms: C_15  and  C_21
REMARK   12  A    between atoms: C_16  and  C_22
REMARK   13  A    between atoms: C_23  and  C_25
REMARK   14  A    between atoms: C_24  and  C_26
REMARK   15  A    between atoms: C_25  and  C_28
REMARK   16  A    between atoms: C_26  and  C_29
REMARK   17  A    between atoms: C_30  and  C_32
REMARK   18  A    between atoms: C_30  and  C_33
REMARK   19  A    between atoms: C_31  and  C_34
REMARK   20  A    between atoms: C_31  and  C_35
REMARK                            x       y       z     vdW  Elec       q    Type
REMARK                         _______ _______ _______ _____ _____    ______ ____
ROOT
ATOM     12  N   UNL     1      13.179   9.416   5.023  0.00  0.00    -0.176 NA
ENDROOT
BRANCH  12   1
ATOM      1  S   UNL     1      13.320  11.073   5.474  0.00  0.00    +0.029 S 
ATOM      8  O   UNL     1      13.953  11.808   4.396  0.00  0.00    -0.158 OA
ATOM      9  O   UNL     1      12.064  11.536   6.035  0.00  0.00    -0.158 OA
ATOM     27  C   UNL     1      14.494  10.968   6.808  0.00  0.00    +0.215 C 
ENDBRANCH  12   1
BRANCH  12  21
ATOM     21  C   UNL     1      11.923   8.712   5.342  0.00  0.00    +0.143 C 
BRANCH  21  15
ATOM      2  O   UNL     1      10.848   8.316   7.449  0.00  0.00    -0.366 OA
ATOM     15  C   UNL     1      12.051   8.034   6.699  0.00  0.00    +0.165 C 
ATOM     17  C   UNL     1      12.150   6.515   6.600  0.00  0.00    +0.175 C 
ATOM     19  C   UNL     1      10.694   6.101   6.658  0.00  0.00    +0.175 C 
ATOM     23  C   UNL     1      10.137   7.085   7.672  0.00  0.00    +0.158 C 
BRANCH  17   4
ATOM      4  O   UNL     1      12.846   6.042   7.753  0.00  0.00    -0.387 OA
ATOM     36  H   UNL     1      13.292   5.214   7.505  0.00  0.00    +0.210 HD
ENDBRANCH  17   4
BRANCH  19   6
ATOM      6  O   UNL     1      10.511   4.761   7.064  0.00  0.00    -0.387 OA
ATOM     38  H   UNL     1      11.173   4.222   6.599  0.00  0.00    +0.210 HD
ENDBRANCH  19   6
BRANCH  23  25
ATOM     25  C   UNL     1       8.644   7.322   7.522  0.00  0.00    +0.130 C 
BRANCH  25  28
ATOM     10  O   UNL     1       7.874   6.060   5.608  0.00  0.00    -0.276 OA
ATOM     13  N   UNL     1       8.115   8.364   5.423  0.00  0.00    -0.313 N 
ATOM     28  C   UNL     1       8.168   7.150   6.091  0.00  0.00    +0.216 C 
ATOM     40  H   UNL     1       8.308   9.219   5.937  0.00  0.00    +0.149 HD
BRANCH  13  30
ATOM     30  C   UNL     1       7.697   8.488   4.045  0.00  0.00    +0.067 C 
ATOM     32  C   UNL     1       6.962   9.805   3.825  0.00  0.00    +0.027 C 
ATOM     33  C   UNL     1       8.897   8.364   3.115  0.00  0.00    +0.027 C 
ENDBRANCH  13  30
ENDBRANCH  25  28
ENDBRANCH  23  25
ENDBRANCH  21  15
ENDBRANCH  12  21
BRANCH  12  22
ATOM     22  C   UNL     1      13.737   9.016   3.704  0.00  0.00    +0.143 C 
BRANCH  22  16
ATOM      3  O   UNL     1      14.244   6.733   3.162  0.00  0.00    -0.366 OA
ATOM     16  C   UNL     1      14.735   7.880   3.892  0.00  0.00    +0.165 C 
ATOM     18  C   UNL     1      16.113   8.196   3.321  0.00  0.00    +0.175 C 
ATOM     20  C   UNL     1      15.986   7.694   1.897  0.00  0.00    +0.175 C 
ATOM     24  C   UNL     1      15.156   6.437   2.090  0.00  0.00    +0.158 C 
BRANCH  18   5
ATOM      5  O   UNL     1      17.076   7.422   4.034  0.00  0.00    -0.387 OA
ATOM     37  H   UNL     1      17.361   7.947   4.802  0.00  0.00    +0.210 HD
ENDBRANCH  18   5
BRANCH  20   7
ATOM      7  O   UNL     1      17.230   7.421   1.288  0.00  0.00    -0.387 OA
ATOM     39  H   UNL     1      17.888   8.011   1.692  0.00  0.00    +0.210 HD
ENDBRANCH  20   7
BRANCH  24  26
ATOM     26  C   UNL     1      14.377   6.034   0.852  0.00  0.00    +0.130 C 
BRANCH  26  29
ATOM     11  O   UNL     1      12.360   7.328   0.522  0.00  0.00    -0.276 OA
ATOM     14  N   UNL     1      12.237   5.311   1.670  0.00  0.00    -0.313 N 
ATOM     29  C   UNL     1      12.892   6.320   0.979  0.00  0.00    +0.216 C 
ATOM     41  H   UNL     1      12.783   4.548   2.059  0.00  0.00    +0.149 HD
BRANCH  14  31
ATOM     31  C   UNL     1      10.816   5.331   1.937  0.00  0.00    +0.067 C 
ATOM     34  C   UNL     1      10.054   4.631   0.819  0.00  0.00    +0.027 C 
ATOM     35  C   UNL     1      10.523   4.694   3.289  0.00  0.00    +0.027 C 
ENDBRANCH  14  31
ENDBRANCH  26  29
ENDBRANCH  24  26
ENDBRANCH  22  16
ENDBRANCH  12  22
TORSDOF 15
ENDMDL
