MODEL 1
REMARK VINA RESULT:      -7.3      0.000      0.000
REMARK  Name = 11886657
REMARK  8 active torsions:
REMARK  status: ('A' for Active; 'I' for Inactive)
REMARK    1  A    between atoms: O_6  and  C_16
REMARK    2  A    between atoms: O_6  and  C_21
REMARK    3  A    between atoms: O_8  and  C_22
REMARK    4  A    between atoms: O_8  and  C_27
REMARK    5  A    between atoms: N_9  and  C_15
REMARK    6  A    between atoms: N_12  and  C_23
REMARK    7  A    between atoms: C_20  and  C_22
REMARK    8  A    between atoms: C_26  and  C_30
REMARK                            x       y       z     vdW  Elec       q    Type
REMARK                         _______ _______ _______ _____ _____    ______ ____
ROOT
ATOM      4  O   UNL     1      16.412   8.372  20.754  0.00  0.00    -0.368 OA
ATOM      5  O   UNL     1      16.422   5.782  19.065  0.00  0.00    -0.368 OA
ATOM     13  C   UNL     1      15.548   6.252  20.116  0.00  0.00    +0.177 C 
ATOM     14  C   UNL     1      16.421   6.983  21.117  0.00  0.00    +0.192 C 
ATOM     15  C   UNL     1      14.624   7.321  19.567  0.00  0.00    +0.166 C 
ATOM     16  C   UNL     1      17.778   6.356  20.894  0.00  0.00    +0.235 C 
ATOM     17  C   UNL     1      15.458   8.590  19.706  0.00  0.00    +0.190 C 
ATOM     18  C   UNL     1      17.775   6.116  19.403  0.00  0.00    +0.207 C 
ENDROOT
BRANCH  15   9
ATOM      9  N   UNL     1      13.327   7.344  20.250  0.00  0.00    -0.244 N 
ATOM     10  N   UNL     1      12.320   6.573  19.820  0.00  0.00    -0.065 NA
ATOM     11  N   UNL     1      11.284   6.805  20.618  0.00  0.00    -0.132 NA
ATOM     19  C   UNL     1      12.975   8.090  21.328  0.00  0.00    +0.136 A 
ATOM     20  C   UNL     1      11.667   7.733  21.546  0.00  0.00    +0.108 A 
BRANCH  20  22
ATOM     22  C   UNL     1      10.740   8.206  22.581  0.00  0.00    +0.218 C 
BRANCH  22   8
ATOM      8  O   UNL     1      10.328   9.563  22.377  0.00  0.00    -0.377 OA
ATOM     27  C   UNL     1      11.008  10.440  23.258  0.00  0.00    +0.194 C 
ENDBRANCH  22   8
ENDBRANCH  20  22
ENDBRANCH  15   9
BRANCH  16   6
ATOM      6  O   UNL     1      18.851   7.176  21.298  0.00  0.00    -0.442 OA
BRANCH   6  21
ATOM      7  O   UNL     1      19.851   6.258  23.138  0.00  0.00    -0.226 OA
ATOM     12  N   UNL     1      20.938   6.352  21.067  0.00  0.00    -0.251 N 
ATOM     21  C   UNL     1      19.897   6.557  21.952  0.00  0.00    +0.405 C 
ATOM     31  H   UNL     1      20.787   6.673  20.114  0.00  0.00    +0.158 HD
BRANCH  12  23
ATOM     23  C   UNL     1      22.192   5.752  21.323  0.00  0.00    +0.037 A 
ATOM     24  C   UNL     1      22.380   4.413  21.014  0.00  0.00    +0.035 A 
ATOM     25  C   UNL     1      23.209   6.512  21.878  0.00  0.00    +0.023 A 
ATOM     26  C   UNL     1      23.617   3.821  21.267  0.00  0.00    +0.057 A 
ATOM     28  C   UNL     1      24.446   5.921  22.130  0.00  0.00    +0.002 A 
ATOM     29  C   UNL     1      24.650   4.575  21.824  0.00  0.00    +0.012 A 
BRANCH  26  30
ATOM      1  F   UNL     1      24.820   2.175  20.015  0.00  0.00    -0.166 F 
ATOM      2  F   UNL     1      24.197   1.626  22.019  0.00  0.00    -0.166 F 
ATOM      3  F   UNL     1      22.722   1.784  20.429  0.00  0.00    -0.166 F 
ATOM     30  C   UNL     1      23.837   2.383  20.940  0.00  0.00    +0.417 C 
ENDBRANCH  26  30
ENDBRANCH  12  23
ENDBRANCH   6  21
ENDBRANCH  16   6
TORSDOF 7
ENDMDL
MODEL 2
REMARK VINA RESULT:      -7.2      3.708      5.906
REMARK  Name = 11886657
REMARK  8 active torsions:
REMARK  status: ('A' for Active; 'I' for Inactive)
REMARK    1  A    between atoms: O_6  and  C_16
REMARK    2  A    between atoms: O_6  and  C_21
REMARK    3  A    between atoms: O_8  and  C_22
REMARK    4  A    between atoms: O_8  and  C_27
REMARK    5  A    between atoms: N_9  and  C_15
REMARK    6  A    between atoms: N_12  and  C_23
REMARK    7  A    between atoms: C_20  and  C_22
REMARK    8  A    between atoms: C_26  and  C_30
REMARK                            x       y       z     vdW  Elec       q    Type
REMARK                         _______ _______ _______ _____ _____    ______ ____
ROOT
ATOM      4  O   UNL     1      13.770   7.485  19.276  0.00  0.00    -0.368 OA
ATOM      5  O   UNL     1      10.793   8.080  19.860  0.00  0.00    -0.368 OA
ATOM     13  C   UNL     1      11.794   8.794  19.101  0.00  0.00    +0.177 C 
ATOM     14  C   UNL     1      13.107   8.626  19.841  0.00  0.00    +0.192 C 
ATOM     15  C   UNL     1      12.016   8.097  17.773  0.00  0.00    +0.166 C 
ATOM     16  C   UNL     1      12.657   8.364  21.259  0.00  0.00    +0.235 C 
ATOM     17  C   UNL     1      13.051   7.032  18.120  0.00  0.00    +0.190 C 
ATOM     18  C   UNL     1      11.399   7.555  21.049  0.00  0.00    +0.207 C 
ENDROOT
BRANCH  15   9
ATOM      9  N   UNL     1      12.406   9.029  16.710  0.00  0.00    -0.244 N 
ATOM     10  N   UNL     1      11.644   9.168  15.617  0.00  0.00    -0.065 NA
ATOM     11  N   UNL     1      12.240  10.064  14.839  0.00  0.00    -0.132 NA
ATOM     19  C   UNL     1      13.506   9.823  16.671  0.00  0.00    +0.136 A 
ATOM     20  C   UNL     1      13.383  10.475  15.468  0.00  0.00    +0.108 A 
BRANCH  20  22
ATOM     22  C   UNL     1      14.273  11.470  14.861  0.00  0.00    +0.218 C 
BRANCH  22   8
ATOM      8  O   UNL     1      14.739  11.079  13.563  0.00  0.00    -0.377 OA
ATOM     27  C   UNL     1      15.865  11.846  13.174  0.00  0.00    +0.194 C 
ENDBRANCH  22   8
ENDBRANCH  20  22
ENDBRANCH  15   9
BRANCH  16   6
ATOM      6  O   UNL     1      13.609   7.672  22.034  0.00  0.00    -0.442 OA
BRANCH   6  21
ATOM      7  O   UNL     1      15.042   9.321  22.714  0.00  0.00    -0.226 OA
ATOM     12  N   UNL     1      15.799   7.438  21.545  0.00  0.00    -0.251 N 
ATOM     21  C   UNL     1      14.857   8.250  22.150  0.00  0.00    +0.405 C 
ATOM     31  H   UNL     1      15.449   6.580  21.126  0.00  0.00    +0.158 HD
BRANCH  12  23
ATOM     23  C   UNL     1      17.192   7.655  21.437  0.00  0.00    +0.037 A 
ATOM     24  C   UNL     1      18.028   6.578  21.184  0.00  0.00    +0.035 A 
ATOM     25  C   UNL     1      17.694   8.938  21.583  0.00  0.00    +0.023 A 
ATOM     26  C   UNL     1      19.402   6.792  21.076  0.00  0.00    +0.057 A 
ATOM     28  C   UNL     1      19.067   9.152  21.475  0.00  0.00    +0.002 A 
ATOM     29  C   UNL     1      19.922   8.078  21.220  0.00  0.00    +0.012 A 
BRANCH  26  30
ATOM      1  F   UNL     1      21.428   5.989  20.089  0.00  0.00    -0.166 F 
ATOM      2  F   UNL     1      20.793   5.046  21.936  0.00  0.00    -0.166 F 
ATOM      3  F   UNL     1      19.715   4.652  20.089  0.00  0.00    -0.166 F 
ATOM     30  C   UNL     1      20.317   5.646  20.804  0.00  0.00    +0.417 C 
ENDBRANCH  26  30
ENDBRANCH  12  23
ENDBRANCH   6  21
ENDBRANCH  16   6
TORSDOF 7
ENDMDL
MODEL 3
REMARK VINA RESULT:      -6.9     18.926     21.492
REMARK  Name = 11886657
REMARK  8 active torsions:
REMARK  status: ('A' for Active; 'I' for Inactive)
REMARK    1  A    between atoms: O_6  and  C_16
REMARK    2  A    between atoms: O_6  and  C_21
REMARK    3  A    between atoms: O_8  and  C_22
REMARK    4  A    between atoms: O_8  and  C_27
REMARK    5  A    between atoms: N_9  and  C_15
REMARK    6  A    between atoms: N_12  and  C_23
REMARK    7  A    between atoms: C_20  and  C_22
REMARK    8  A    between atoms: C_26  and  C_30
REMARK                            x       y       z     vdW  Elec       q    Type
REMARK                         _______ _______ _______ _____ _____    ______ ____
ROOT
ATOM      4  O   UNL     1      11.581   5.864   0.476  0.00  0.00    -0.368 OA
ATOM      5  O   UNL     1      13.119   3.185   0.389  0.00  0.00    -0.368 OA
ATOM     13  C   UNL     1      11.820   3.574  -0.110  0.00  0.00    +0.177 C 
ATOM     14  C   UNL     1      11.234   4.538   0.903  0.00  0.00    +0.192 C 
ATOM     15  C   UNL     1      11.987   4.401  -1.369  0.00  0.00    +0.166 C 
ATOM     16  C   UNL     1      11.949   4.157   2.177  0.00  0.00    +0.235 C 
ATOM     17  C   UNL     1      12.189   5.810  -0.822  0.00  0.00    +0.190 C 
ATOM     18  C   UNL     1      13.325   3.791   1.672  0.00  0.00    +0.207 C 
ENDROOT
BRANCH  15   9
ATOM      9  N   UNL     1      10.863   4.243  -2.296  0.00  0.00    -0.244 N 
ATOM     10  N   UNL     1      10.348   3.031  -2.538  0.00  0.00    -0.065 NA
ATOM     11  N   UNL     1       9.358   3.194  -3.409  0.00  0.00    -0.132 NA
ATOM     19  C   UNL     1      10.227   5.217  -2.996  0.00  0.00    +0.136 A 
ATOM     20  C   UNL     1       9.270   4.527  -3.701  0.00  0.00    +0.108 A 
BRANCH  20  22
ATOM     22  C   UNL     1       8.266   5.039  -4.640  0.00  0.00    +0.218 C 
BRANCH  22   8
ATOM      8  O   UNL     1       7.145   5.641  -3.979  0.00  0.00    -0.377 OA
ATOM     27  C   UNL     1       6.849   6.911  -4.535  0.00  0.00    +0.194 C 
ENDBRANCH  22   8
ENDBRANCH  20  22
ENDBRANCH  15   9
BRANCH  16   6
ATOM      6  O   UNL     1      11.993   5.193   3.131  0.00  0.00    -0.442 OA
BRANCH   6  21
ATOM      7  O   UNL     1       9.869   4.697   3.822  0.00  0.00    -0.226 OA
ATOM     12  N   UNL     1      11.276   6.088   5.074  0.00  0.00    -0.251 N 
ATOM     21  C   UNL     1      10.931   5.277   4.010  0.00  0.00    +0.405 C 
ATOM     31  H   UNL     1      12.213   6.484   5.052  0.00  0.00    +0.158 HD
BRANCH  12  23
ATOM     23  C   UNL     1      10.485   6.438   6.192  0.00  0.00    +0.037 A 
ATOM     24  C   UNL     1      10.338   5.532   7.230  0.00  0.00    +0.035 A 
ATOM     25  C   UNL     1       9.874   7.682   6.229  0.00  0.00    +0.023 A 
ATOM     26  C   UNL     1       9.558   5.878   8.334  0.00  0.00    +0.057 A 
ATOM     28  C   UNL     1       9.094   8.028   7.333  0.00  0.00    +0.002 A 
ATOM     29  C   UNL     1       8.937   7.126   8.386  0.00  0.00    +0.012 A 
BRANCH  26  30
ATOM      1  F   UNL     1       8.230   5.088  10.160  0.00  0.00    -0.166 F 
ATOM      2  F   UNL     1       9.373   3.607   9.063  0.00  0.00    -0.166 F 
ATOM      3  F   UNL     1      10.391   5.004  10.382  0.00  0.00    -0.166 F 
ATOM     30  C   UNL     1       9.390   4.915   9.460  0.00  0.00    +0.417 C 
ENDBRANCH  26  30
ENDBRANCH  12  23
ENDBRANCH   6  21
ENDBRANCH  16   6
TORSDOF 7
ENDMDL
MODEL 4
REMARK VINA RESULT:      -6.9     28.133     30.020
REMARK  Name = 11886657
REMARK  8 active torsions:
REMARK  status: ('A' for Active; 'I' for Inactive)
REMARK    1  A    between atoms: O_6  and  C_16
REMARK    2  A    between atoms: O_6  and  C_21
REMARK    3  A    between atoms: O_8  and  C_22
REMARK    4  A    between atoms: O_8  and  C_27
REMARK    5  A    between atoms: N_9  and  C_15
REMARK    6  A    between atoms: N_12  and  C_23
REMARK    7  A    between atoms: C_20  and  C_22
REMARK    8  A    between atoms: C_26  and  C_30
REMARK                            x       y       z     vdW  Elec       q    Type
REMARK                         _______ _______ _______ _____ _____    ______ ____
ROOT
ATOM      4  O   UNL     1      -6.829 -11.227  16.134  0.00  0.00    -0.368 OA
ATOM      5  O   UNL     1      -6.760 -10.401  19.112  0.00  0.00    -0.368 OA
ATOM     13  C   UNL     1      -7.190  -9.703  17.922  0.00  0.00    +0.177 C 
ATOM     14  C   UNL     1      -6.241 -10.106  16.811  0.00  0.00    +0.192 C 
ATOM     15  C   UNL     1      -8.539 -10.239  17.481  0.00  0.00    +0.166 C 
ATOM     16  C   UNL     1      -4.995 -10.503  17.567  0.00  0.00    +0.235 C 
ATOM     17  C   UNL     1      -8.159 -11.444  16.627  0.00  0.00    +0.190 C 
ATOM     18  C   UNL     1      -5.567 -11.139  18.812  0.00  0.00    +0.207 C 
ENDROOT
BRANCH  15   9
ATOM      9  N   UNL     1      -9.351  -9.222  16.806  0.00  0.00    -0.244 N 
ATOM     10  N   UNL     1      -9.736  -9.396  15.535  0.00  0.00    -0.065 NA
ATOM     11  N   UNL     1     -10.447  -8.327  15.194  0.00  0.00    -0.132 NA
ATOM     19  C   UNL     1      -9.797  -8.047  17.319  0.00  0.00    +0.136 A 
ATOM     20  C   UNL     1     -10.493  -7.490  16.275  0.00  0.00    +0.108 A 
BRANCH  20  22
ATOM     22  C   UNL     1     -11.210  -6.210  16.220  0.00  0.00    +0.218 C 
BRANCH  22   8
ATOM      8  O   UNL     1     -11.280  -5.671  14.894  0.00  0.00    -0.377 OA
ATOM     27  C   UNL     1     -12.625  -5.536  14.469  0.00  0.00    +0.194 C 
ENDBRANCH  22   8
ENDBRANCH  20  22
ENDBRANCH  15   9
BRANCH  16   6
ATOM      6  O   UNL     1      -4.161 -11.388  16.855  0.00  0.00    -0.442 OA
BRANCH   6  21
ATOM      7  O   UNL     1      -2.304 -10.267  16.129  0.00  0.00    -0.226 OA
ATOM     12  N   UNL     1      -3.935 -11.042  14.637  0.00  0.00    -0.251 N 
ATOM     21  C   UNL     1      -3.358 -10.837  15.877  0.00  0.00    +0.405 C 
ATOM     31  H   UNL     1      -4.821 -11.541  14.632  0.00  0.00    +0.158 HD
BRANCH  12  23
ATOM     23  C   UNL     1      -3.445 -10.640  13.374  0.00  0.00    +0.037 A 
ATOM     24  C   UNL     1      -4.314 -10.057  12.463  0.00  0.00    +0.035 A 
ATOM     25  C   UNL     1      -2.107 -10.835  13.070  0.00  0.00    +0.023 A 
ATOM     26  C   UNL     1      -3.830  -9.660  11.217  0.00  0.00    +0.057 A 
ATOM     28  C   UNL     1      -1.624 -10.438  11.824  0.00  0.00    +0.002 A 
ATOM     29  C   UNL     1      -2.486  -9.849  10.897  0.00  0.00    +0.012 A 
BRANCH  26  30
ATOM      1  F   UNL     1      -5.092  -7.746  10.534  0.00  0.00    -0.166 F 
ATOM      2  F   UNL     1      -4.232  -8.969   8.962  0.00  0.00    -0.166 F 
ATOM      3  F   UNL     1      -5.930  -9.704  10.103  0.00  0.00    -0.166 F 
ATOM     30  C   UNL     1      -4.750  -9.031  10.225  0.00  0.00    +0.417 C 
ENDBRANCH  26  30
ENDBRANCH  12  23
ENDBRANCH   6  21
ENDBRANCH  16   6
TORSDOF 7
ENDMDL
MODEL 5
REMARK VINA RESULT:      -6.9      5.785      9.579
REMARK  Name = 11886657
REMARK  8 active torsions:
REMARK  status: ('A' for Active; 'I' for Inactive)
REMARK    1  A    between atoms: O_6  and  C_16
REMARK    2  A    between atoms: O_6  and  C_21
REMARK    3  A    between atoms: O_8  and  C_22
REMARK    4  A    between atoms: O_8  and  C_27
REMARK    5  A    between atoms: N_9  and  C_15
REMARK    6  A    between atoms: N_12  and  C_23
REMARK    7  A    between atoms: C_20  and  C_22
REMARK    8  A    between atoms: C_26  and  C_30
REMARK                            x       y       z     vdW  Elec       q    Type
REMARK                         _______ _______ _______ _____ _____    ______ ____
ROOT
ATOM      4  O   UNL     1      14.669   9.132  18.706  0.00  0.00    -0.368 OA
ATOM      5  O   UNL     1      12.789   6.973  19.872  0.00  0.00    -0.368 OA
ATOM     13  C   UNL     1      14.093   6.893  19.255  0.00  0.00    +0.177 C 
ATOM     14  C   UNL     1      14.118   7.929  18.149  0.00  0.00    +0.192 C 
ATOM     15  C   UNL     1      15.148   7.362  20.238  0.00  0.00    +0.166 C 
ATOM     16  C   UNL     1      12.654   8.090  17.811  0.00  0.00    +0.235 C 
ATOM     17  C   UNL     1      15.153   8.873  20.031  0.00  0.00    +0.190 C 
ATOM     18  C   UNL     1      11.998   7.937  19.163  0.00  0.00    +0.207 C 
ENDROOT
BRANCH  15   9
ATOM      9  N   UNL     1      16.438   6.696  20.034  0.00  0.00    -0.244 N 
ATOM     10  N   UNL     1      16.578   5.766  19.081  0.00  0.00    -0.065 NA
ATOM     11  N   UNL     1      17.836   5.342  19.132  0.00  0.00    -0.132 NA
ATOM     19  C   UNL     1      17.590   6.899  20.723  0.00  0.00    +0.136 A 
ATOM     20  C   UNL     1      18.470   6.025  20.133  0.00  0.00    +0.108 A 
BRANCH  20  22
ATOM     22  C   UNL     1      19.883   5.783  20.447  0.00  0.00    +0.218 C 
BRANCH  22   8
ATOM      8  O   UNL     1      20.310   4.460  20.097  0.00  0.00    -0.377 OA
ATOM     27  C   UNL     1      21.325   4.004  20.974  0.00  0.00    +0.194 C 
ENDBRANCH  22   8
ENDBRANCH  20  22
ENDBRANCH  15   9
BRANCH  16   6
ATOM      6  O   UNL     1      12.347   9.326  17.209  0.00  0.00    -0.442 OA
BRANCH   6  21
ATOM      7  O   UNL     1      12.908   8.903  15.032  0.00  0.00    -0.226 OA
ATOM     12  N   UNL     1      13.695  10.799  16.158  0.00  0.00    -0.251 N 
ATOM     21  C   UNL     1      12.989   9.619  16.022  0.00  0.00    +0.405 C 
ATOM     31  H   UNL     1      13.639  11.253  17.067  0.00  0.00    +0.158 HD
BRANCH  12  23
ATOM     23  C   UNL     1      14.487  11.455  15.189  0.00  0.00    +0.037 A 
ATOM     24  C   UNL     1      15.866  11.465  15.332  0.00  0.00    +0.035 A 
ATOM     25  C   UNL     1      13.870  12.075  14.113  0.00  0.00    +0.023 A 
ATOM     26  C   UNL     1      16.647  12.112  14.375  0.00  0.00    +0.057 A 
ATOM     28  C   UNL     1      14.652  12.721  13.156  0.00  0.00    +0.002 A 
ATOM     29  C   UNL     1      16.041  12.739  13.287  0.00  0.00    +0.012 A 
BRANCH  26  30
ATOM      1  F   UNL     1      18.706  10.895  14.439  0.00  0.00    -0.166 F 
ATOM      2  F   UNL     1      18.761  12.874  13.553  0.00  0.00    -0.166 F 
ATOM      3  F   UNL     1      18.542  12.654  15.705  0.00  0.00    -0.166 F 
ATOM     30  C   UNL     1      18.132  12.132  14.514  0.00  0.00    +0.417 C 
ENDBRANCH  26  30
ENDBRANCH  12  23
ENDBRANCH   6  21
ENDBRANCH  16   6
TORSDOF 7
ENDMDL
MODEL 6
REMARK VINA RESULT:      -6.8     27.946     30.085
REMARK  Name = 11886657
REMARK  8 active torsions:
REMARK  status: ('A' for Active; 'I' for Inactive)
REMARK    1  A    between atoms: O_6  and  C_16
REMARK    2  A    between atoms: O_6  and  C_21
REMARK    3  A    between atoms: O_8  and  C_22
REMARK    4  A    between atoms: O_8  and  C_27
REMARK    5  A    between atoms: N_9  and  C_15
REMARK    6  A    between atoms: N_12  and  C_23
REMARK    7  A    between atoms: C_20  and  C_22
REMARK    8  A    between atoms: C_26  and  C_30
REMARK                            x       y       z     vdW  Elec       q    Type
REMARK                         _______ _______ _______ _____ _____    ______ ____
ROOT
ATOM      4  O   UNL     1      -6.455 -12.286  17.098  0.00  0.00    -0.368 OA
ATOM      5  O   UNL     1      -5.163 -11.473  19.786  0.00  0.00    -0.368 OA
ATOM     13  C   UNL     1      -6.239 -10.896  19.013  0.00  0.00    +0.177 C 
ATOM     14  C   UNL     1      -5.865 -11.059  17.553  0.00  0.00    +0.192 C 
ATOM     15  C   UNL     1      -7.490 -11.735  19.180  0.00  0.00    +0.166 C 
ATOM     16  C   UNL     1      -4.358 -11.150  17.604  0.00  0.00    +0.235 C 
ATOM     17  C   UNL     1      -7.316 -12.815  18.116  0.00  0.00    +0.190 C 
ATOM     18  C   UNL     1      -4.129 -11.906  18.892  0.00  0.00    +0.207 C 
ENDROOT
BRANCH  15   9
ATOM      9  N   UNL     1      -8.717 -10.940  19.073  0.00  0.00    -0.244 N 
ATOM     10  N   UNL     1      -9.584 -10.890  20.092  0.00  0.00    -0.065 NA
ATOM     11  N   UNL     1     -10.588 -10.107  19.712  0.00  0.00    -0.132 NA
ATOM     19  C   UNL     1      -9.130 -10.199  18.013  0.00  0.00    +0.136 A 
ATOM     20  C   UNL     1     -10.327  -9.677  18.440  0.00  0.00    +0.108 A 
BRANCH  20  22
ATOM     22  C   UNL     1     -11.253  -8.788  17.730  0.00  0.00    +0.218 C 
BRANCH  22   8
ATOM      8  O   UNL     1     -10.629  -7.576  17.287  0.00  0.00    -0.377 OA
ATOM     27  C   UNL     1     -10.647  -7.481  15.873  0.00  0.00    +0.194 C 
ENDBRANCH  22   8
ENDBRANCH  20  22
ENDBRANCH  15   9
BRANCH  16   6
ATOM      6  O   UNL     1      -3.795 -11.810  16.494  0.00  0.00    -0.442 OA
BRANCH   6  21
ATOM      7  O   UNL     1      -2.188 -10.289  15.913  0.00  0.00    -0.226 OA
ATOM     12  N   UNL     1      -3.624 -11.229  14.321  0.00  0.00    -0.251 N 
ATOM     21  C   UNL     1      -3.108 -11.028  15.587  0.00  0.00    +0.405 C 
ATOM     31  H   UNL     1      -4.395 -11.888  14.250  0.00  0.00    +0.158 HD
BRANCH  12  23
ATOM     23  C   UNL     1      -3.214 -10.628  13.109  0.00  0.00    +0.037 A 
ATOM     24  C   UNL     1      -4.173 -10.178  12.215  0.00  0.00    +0.035 A 
ATOM     25  C   UNL     1      -1.860 -10.500  12.839  0.00  0.00    +0.023 A 
ATOM     26  C   UNL     1      -3.767  -9.585  11.020  0.00  0.00    +0.057 A 
ATOM     28  C   UNL     1      -1.455  -9.907  11.644  0.00  0.00    +0.002 A 
ATOM     29  C   UNL     1      -2.409  -9.448  10.734  0.00  0.00    +0.012 A 
BRANCH  26  30
ATOM      1  F   UNL     1      -5.852  -9.934   9.899  0.00  0.00    -0.166 F 
ATOM      2  F   UNL     1      -5.328  -7.886  10.385  0.00  0.00    -0.166 F 
ATOM      3  F   UNL     1      -4.275  -8.927   8.792  0.00  0.00    -0.166 F 
ATOM     30  C   UNL     1      -4.786  -9.094  10.046  0.00  0.00    +0.417 C 
ENDBRANCH  26  30
ENDBRANCH  12  23
ENDBRANCH   6  21
ENDBRANCH  16   6
TORSDOF 7
ENDMDL
MODEL 7
REMARK VINA RESULT:      -6.7     19.545     22.175
REMARK  Name = 11886657
REMARK  8 active torsions:
REMARK  status: ('A' for Active; 'I' for Inactive)
REMARK    1  A    between atoms: O_6  and  C_16
REMARK    2  A    between atoms: O_6  and  C_21
REMARK    3  A    between atoms: O_8  and  C_22
REMARK    4  A    between atoms: O_8  and  C_27
REMARK    5  A    between atoms: N_9  and  C_15
REMARK    6  A    between atoms: N_12  and  C_23
REMARK    7  A    between atoms: C_20  and  C_22
REMARK    8  A    between atoms: C_26  and  C_30
REMARK                            x       y       z     vdW  Elec       q    Type
REMARK                         _______ _______ _______ _____ _____    ______ ____
ROOT
ATOM      4  O   UNL     1      13.034   5.636  -0.410  0.00  0.00    -0.368 OA
ATOM      5  O   UNL     1      13.426   2.766   0.671  0.00  0.00    -0.368 OA
ATOM     13  C   UNL     1      12.354   3.383  -0.078  0.00  0.00    +0.177 C 
ATOM     14  C   UNL     1      12.224   4.804   0.434  0.00  0.00    +0.192 C 
ATOM     15  C   UNL     1      12.774   3.539  -1.527  0.00  0.00    +0.166 C 
ATOM     16  C   UNL     1      12.791   4.707   1.831  0.00  0.00    +0.235 C 
ATOM     17  C   UNL     1      13.522   4.868  -1.520  0.00  0.00    +0.190 C 
ATOM     18  C   UNL     1      13.900   3.697   1.654  0.00  0.00    +0.207 C 
ENDROOT
BRANCH  15   9
ATOM      9  N   UNL     1      11.638   3.463  -2.450  0.00  0.00    -0.244 N 
ATOM     10  N   UNL     1      10.654   2.579  -2.243  0.00  0.00    -0.065 NA
ATOM     11  N   UNL     1       9.776   2.735  -3.228  0.00  0.00    -0.132 NA
ATOM     19  C   UNL     1      11.428   4.210  -3.563  0.00  0.00    +0.136 A 
ATOM     20  C   UNL     1      10.235   3.730  -4.046  0.00  0.00    +0.108 A 
BRANCH  20  22
ATOM     22  C   UNL     1       9.485   4.146  -5.237  0.00  0.00    +0.218 C 
BRANCH  22   8
ATOM      8  O   UNL     1       9.344   3.092  -6.199  0.00  0.00    -0.377 OA
ATOM     27  C   UNL     1      10.537   2.919  -6.944  0.00  0.00    +0.194 C 
ENDBRANCH  22   8
ENDBRANCH  20  22
ENDBRANCH  15   9
BRANCH  16   6
ATOM      6  O   UNL     1      13.267   5.935   2.333  0.00  0.00    -0.442 OA
BRANCH   6  21
ATOM      7  O   UNL     1      12.603   7.788   3.499  0.00  0.00    -0.226 OA
ATOM     12  N   UNL     1      11.481   5.742   3.698  0.00  0.00    -0.251 N 
ATOM     21  C   UNL     1      12.448   6.606   3.219  0.00  0.00    +0.405 C 
ATOM     31  H   UNL     1      11.516   4.789   3.345  0.00  0.00    +0.158 HD
BRANCH  12  23
ATOM     23  C   UNL     1      10.448   6.020   4.622  0.00  0.00    +0.037 A 
ATOM     24  C   UNL     1      10.575   5.588   5.933  0.00  0.00    +0.035 A 
ATOM     25  C   UNL     1       9.329   6.720   4.199  0.00  0.00    +0.023 A 
ATOM     26  C   UNL     1       9.556   5.863   6.844  0.00  0.00    +0.057 A 
ATOM     28  C   UNL     1       8.310   6.995   5.110  0.00  0.00    +0.002 A 
ATOM     29  C   UNL     1       8.423   6.567   6.434  0.00  0.00    +0.012 A 
BRANCH  26  30
ATOM      1  F   UNL     1      10.857   5.755   8.849  0.00  0.00    -0.166 F 
ATOM      2  F   UNL     1       8.706   5.910   9.080  0.00  0.00    -0.166 F 
ATOM      3  F   UNL     1       9.591   4.051   8.382  0.00  0.00    -0.166 F 
ATOM     30  C   UNL     1       9.676   5.407   8.259  0.00  0.00    +0.417 C 
ENDBRANCH  26  30
ENDBRANCH  12  23
ENDBRANCH   6  21
ENDBRANCH  16   6
TORSDOF 7
ENDMDL
MODEL 8
REMARK VINA RESULT:      -6.6      5.123     10.586
REMARK  Name = 11886657
REMARK  8 active torsions:
REMARK  status: ('A' for Active; 'I' for Inactive)
REMARK    1  A    between atoms: O_6  and  C_16
REMARK    2  A    between atoms: O_6  and  C_21
REMARK    3  A    between atoms: O_8  and  C_22
REMARK    4  A    between atoms: O_8  and  C_27
REMARK    5  A    between atoms: N_9  and  C_15
REMARK    6  A    between atoms: N_12  and  C_23
REMARK    7  A    between atoms: C_20  and  C_22
REMARK    8  A    between atoms: C_26  and  C_30
REMARK                            x       y       z     vdW  Elec       q    Type
REMARK                         _______ _______ _______ _____ _____    ______ ____
ROOT
ATOM      4  O   UNL     1      19.165   5.979  20.255  0.00  0.00    -0.368 OA
ATOM      5  O   UNL     1      19.003   8.354  22.226  0.00  0.00    -0.368 OA
ATOM     13  C   UNL     1      19.342   6.961  22.411  0.00  0.00    +0.177 C 
ATOM     14  C   UNL     1      18.445   6.166  21.483  0.00  0.00    +0.192 C 
ATOM     15  C   UNL     1      20.745   6.708  21.893  0.00  0.00    +0.166 C 
ATOM     16  C   UNL     1      17.259   7.083  21.301  0.00  0.00    +0.235 C 
ATOM     17  C   UNL     1      20.512   6.446  20.408  0.00  0.00    +0.190 C 
ATOM     18  C   UNL     1      17.909   8.447  21.304  0.00  0.00    +0.207 C 
ENDROOT
BRANCH  15   9
ATOM      9  N   UNL     1      21.425   5.633  22.621  0.00  0.00    -0.244 N 
ATOM     10  N   UNL     1      21.571   5.702  23.950  0.00  0.00    -0.065 NA
ATOM     11  N   UNL     1      22.220   4.606  24.328  0.00  0.00    -0.132 NA
ATOM     19  C   UNL     1      21.970   4.502  22.105  0.00  0.00    +0.136 A 
ATOM     20  C   UNL     1      22.473   3.860  23.210  0.00  0.00    +0.108 A 
BRANCH  20  22
ATOM     22  C   UNL     1      23.182   2.578  23.291  0.00  0.00    +0.218 C 
BRANCH  22   8
ATOM      8  O   UNL     1      24.517   2.715  23.796  0.00  0.00    -0.377 OA
ATOM     27  C   UNL     1      25.411   3.112  22.772  0.00  0.00    +0.194 C 
ENDBRANCH  22   8
ENDBRANCH  20  22
ENDBRANCH  15   9
BRANCH  16   6
ATOM      6  O   UNL     1      16.537   6.842  20.115  0.00  0.00    -0.442 OA
BRANCH   6  21
ATOM      7  O   UNL     1      14.912   8.044  19.043  0.00  0.00    -0.226 OA
ATOM     12  N   UNL     1      14.568   7.140  21.175  0.00  0.00    -0.251 N 
ATOM     21  C   UNL     1      15.282   7.409  20.023  0.00  0.00    +0.405 C 
ATOM     31  H   UNL     1      15.051   6.593  21.884  0.00  0.00    +0.158 HD
BRANCH  12  23
ATOM     23  C   UNL     1      13.248   7.534  21.493  0.00  0.00    +0.037 A 
ATOM     24  C   UNL     1      13.016   8.819  21.957  0.00  0.00    +0.035 A 
ATOM     25  C   UNL     1      12.212   6.627  21.332  0.00  0.00    +0.023 A 
ATOM     26  C   UNL     1      11.713   9.207  22.268  0.00  0.00    +0.057 A 
ATOM     28  C   UNL     1      10.910   7.015  21.644  0.00  0.00    +0.002 A 
ATOM     29  C   UNL     1      10.660   8.306  22.112  0.00  0.00    +0.012 A 
BRANCH  26  30
ATOM      1  F   UNL     1      10.538  10.633  23.789  0.00  0.00    -0.166 F 
ATOM      2  F   UNL     1      12.556  11.219  23.251  0.00  0.00    -0.166 F 
ATOM      3  F   UNL     1      10.947  11.409  21.800  0.00  0.00    -0.166 F 
ATOM     30  C   UNL     1      11.444  10.587  22.769  0.00  0.00    +0.417 C 
ENDBRANCH  26  30
ENDBRANCH  12  23
ENDBRANCH   6  21
ENDBRANCH  16   6
TORSDOF 7
ENDMDL
MODEL 9
REMARK VINA RESULT:      -6.6     29.463     31.588
REMARK  Name = 11886657
REMARK  8 active torsions:
REMARK  status: ('A' for Active; 'I' for Inactive)
REMARK    1  A    between atoms: O_6  and  C_16
REMARK    2  A    between atoms: O_6  and  C_21
REMARK    3  A    between atoms: O_8  and  C_22
REMARK    4  A    between atoms: O_8  and  C_27
REMARK    5  A    between atoms: N_9  and  C_15
REMARK    6  A    between atoms: N_12  and  C_23
REMARK    7  A    between atoms: C_20  and  C_22
REMARK    8  A    between atoms: C_26  and  C_30
REMARK                            x       y       z     vdW  Elec       q    Type
REMARK                         _______ _______ _______ _____ _____    ______ ____
ROOT
ATOM      4  O   UNL     1     -12.100  -8.119  14.484  0.00  0.00    -0.368 OA
ATOM      5  O   UNL     1     -11.217  -6.144  16.692  0.00  0.00    -0.368 OA
ATOM     13  C   UNL     1     -11.167  -6.072  15.249  0.00  0.00    +0.177 C 
ATOM     14  C   UNL     1     -10.849  -7.468  14.752  0.00  0.00    +0.192 C 
ATOM     15  C   UNL     1     -12.554  -5.784  14.708  0.00  0.00    +0.166 C 
ATOM     16  C   UNL     1     -10.140  -8.088  15.933  0.00  0.00    +0.235 C 
ATOM     17  C   UNL     1     -13.172  -7.174  14.609  0.00  0.00    +0.190 C 
ATOM     18  C   UNL     1     -10.875  -7.475  17.102  0.00  0.00    +0.207 C 
ENDROOT
BRANCH  15   9
ATOM      9  N   UNL     1     -12.519  -5.021  13.457  0.00  0.00    -0.244 N 
ATOM     10  N   UNL     1     -12.865  -3.727  13.442  0.00  0.00    -0.065 NA
ATOM     11  N   UNL     1     -12.742  -3.306  12.188  0.00  0.00    -0.132 NA
ATOM     19  C   UNL     1     -12.166  -5.470  12.226  0.00  0.00    +0.136 A 
ATOM     20  C   UNL     1     -12.316  -4.361  11.429  0.00  0.00    +0.108 A 
BRANCH  20  22
ATOM     22  C   UNL     1     -12.083  -4.221   9.988  0.00  0.00    +0.218 C 
BRANCH  22   8
ATOM      8  O   UNL     1     -10.952  -4.975   9.533  0.00  0.00    -0.377 OA
ATOM     27  C   UNL     1     -11.273  -5.725   8.374  0.00  0.00    +0.194 C 
ENDBRANCH  22   8
ENDBRANCH  20  22
ENDBRANCH  15   9
BRANCH  16   6
ATOM      6  O   UNL     1     -10.196  -9.496  15.950  0.00  0.00    -0.442 OA
BRANCH   6  21
ATOM      7  O   UNL     1      -8.921 -11.070  14.887  0.00  0.00    -0.226 OA
ATOM     12  N   UNL     1      -8.023  -9.667  16.533  0.00  0.00    -0.251 N 
ATOM     21  C   UNL     1      -9.016 -10.170  15.713  0.00  0.00    +0.405 C 
ATOM     31  H   UNL     1      -8.298  -8.913  17.158  0.00  0.00    +0.158 HD
BRANCH  12  23
ATOM     23  C   UNL     1      -6.672 -10.072  16.612  0.00  0.00    +0.037 A 
ATOM     24  C   UNL     1      -6.235 -10.769  17.727  0.00  0.00    +0.035 A 
ATOM     25  C   UNL     1      -5.809  -9.764  15.572  0.00  0.00    +0.023 A 
ATOM     26  C   UNL     1      -4.902 -11.169  17.804  0.00  0.00    +0.057 A 
ATOM     28  C   UNL     1      -4.475 -10.164  15.648  0.00  0.00    +0.002 A 
ATOM     29  C   UNL     1      -4.021 -10.868  16.765  0.00  0.00    +0.012 A 
BRANCH  26  30
ATOM      1  F   UNL     1      -5.060 -11.590  20.154  0.00  0.00    -0.166 F 
ATOM      2  F   UNL     1      -4.559 -13.276  18.885  0.00  0.00    -0.166 F 
ATOM      3  F   UNL     1      -3.090 -11.714  19.244  0.00  0.00    -0.166 F 
ATOM     30  C   UNL     1      -4.415 -11.921  18.997  0.00  0.00    +0.417 C 
ENDBRANCH  26  30
ENDBRANCH  12  23
ENDBRANCH   6  21
ENDBRANCH  16   6
TORSDOF 7
ENDMDL
MODEL 10
REMARK VINA RESULT:      -6.6     28.257     31.102
REMARK  Name = 11886657
REMARK  8 active torsions:
REMARK  status: ('A' for Active; 'I' for Inactive)
REMARK    1  A    between atoms: O_6  and  C_16
REMARK    2  A    between atoms: O_6  and  C_21
REMARK    3  A    between atoms: O_8  and  C_22
REMARK    4  A    between atoms: O_8  and  C_27
REMARK    5  A    between atoms: N_9  and  C_15
REMARK    6  A    between atoms: N_12  and  C_23
REMARK    7  A    between atoms: C_20  and  C_22
REMARK    8  A    between atoms: C_26  and  C_30
REMARK                            x       y       z     vdW  Elec       q    Type
REMARK                         _______ _______ _______ _____ _____    ______ ____
ROOT
ATOM      4  O   UNL     1      -3.480 -10.239  16.466  0.00  0.00    -0.368 OA
ATOM      5  O   UNL     1      -4.354 -13.137  15.839  0.00  0.00    -0.368 OA
ATOM     13  C   UNL     1      -4.281 -11.948  15.021  0.00  0.00    +0.177 C 
ATOM     14  C   UNL     1      -4.684 -10.784  15.905  0.00  0.00    +0.192 C 
ATOM     15  C   UNL     1      -2.834 -11.668  14.662  0.00  0.00    +0.166 C 
ATOM     16  C   UNL     1      -5.539 -11.448  16.958  0.00  0.00    +0.235 C 
ATOM     17  C   UNL     1      -2.340 -10.865  15.860  0.00  0.00    +0.190 C 
ATOM     18  C   UNL     1      -4.848 -12.779  17.137  0.00  0.00    +0.207 C 
ENDROOT
BRANCH  15   9
ATOM      9  N   UNL     1      -2.698 -11.005  13.362  0.00  0.00    -0.244 N 
ATOM     10  N   UNL     1      -1.523 -10.485  12.986  0.00  0.00    -0.065 NA
ATOM     11  N   UNL     1      -1.700  -9.953  11.781  0.00  0.00    -0.132 NA
ATOM     19  C   UNL     1      -3.661 -10.825  12.422  0.00  0.00    +0.136 A 
ATOM     20  C   UNL     1      -3.004 -10.152  11.421  0.00  0.00    +0.108 A 
BRANCH  20  22
ATOM     22  C   UNL     1      -3.522  -9.676  10.133  0.00  0.00    +0.218 C 
BRANCH  22   8
ATOM      8  O   UNL     1      -4.949  -9.772  10.040  0.00  0.00    -0.377 OA
ATOM     27  C   UNL     1      -5.544  -8.486  10.002  0.00  0.00    +0.194 C 
ENDBRANCH  22   8
ENDBRANCH  20  22
ENDBRANCH  15   9
BRANCH  16   6
ATOM      6  O   UNL     1      -5.613 -10.722  18.164  0.00  0.00    -0.442 OA
BRANCH   6  21
ATOM      7  O   UNL     1      -7.211 -10.412  19.771  0.00  0.00    -0.226 OA
ATOM     12  N   UNL     1      -7.628  -9.941  17.516  0.00  0.00    -0.251 N 
ATOM     21  C   UNL     1      -6.872 -10.356  18.596  0.00  0.00    +0.405 C 
ATOM     31  H   UNL     1      -7.167  -9.967  16.610  0.00  0.00    +0.158 HD
BRANCH  12  23
ATOM     23  C   UNL     1      -8.966  -9.485  17.515  0.00  0.00    +0.037 A 
ATOM     24  C   UNL     1      -9.277  -8.295  16.877  0.00  0.00    +0.035 A 
ATOM     25  C   UNL     1      -9.940 -10.238  18.151  0.00  0.00    +0.023 A 
ATOM     26  C   UNL     1     -10.597  -7.845  16.875  0.00  0.00    +0.057 A 
ATOM     28  C   UNL     1     -11.261  -9.789  18.149  0.00  0.00    +0.002 A 
ATOM     29  C   UNL     1     -11.590  -8.592  17.510  0.00  0.00    +0.012 A 
BRANCH  26  30
ATOM      1  F   UNL     1     -12.008  -6.676  15.336  0.00  0.00    -0.166 F 
ATOM      2  F   UNL     1     -11.292  -5.563  17.055  0.00  0.00    -0.166 F 
ATOM      3  F   UNL     1      -9.923  -6.071  15.443  0.00  0.00    -0.166 F 
ATOM     30  C   UNL     1     -10.950  -6.567  16.192  0.00  0.00    +0.417 C 
ENDBRANCH  26  30
ENDBRANCH  12  23
ENDBRANCH   6  21
ENDBRANCH  16   6
TORSDOF 7
ENDMDL
