MODEL 1
REMARK VINA RESULT:      -7.6      0.000      0.000
REMARK  Name = 7049255
REMARK  9 active torsions:
REMARK  status: ('A' for Active; 'I' for Inactive)
REMARK    1  A    between atoms: O_1  and  C_12
REMARK    2  A    between atoms: O_2  and  C_14
REMARK    3  A    between atoms: O_3  and  C_16
REMARK    4  A    between atoms: N_7  and  C_11
REMARK    5  A    between atoms: N_8  and  C_17
REMARK    6  A    between atoms: N_9  and  C_25
REMARK    7  A    between atoms: C_12  and  C_18
REMARK    8  A    between atoms: C_25  and  C_26
REMARK    9  A    between atoms: C_25  and  C_27
REMARK                            x       y       z     vdW  Elec       q    Type
REMARK                         _______ _______ _______ _____ _____    ______ ____
ROOT
ATOM     11  C   UNL     1      11.026   8.582  20.817  0.00  0.00    +0.109 C 
ATOM     12  C   UNL     1      12.946   7.466  19.580  0.00  0.00    +0.146 C 
ATOM     13  C   UNL     1      12.452   8.737  20.276  0.00  0.00    +0.069 C 
ATOM     14  C   UNL     1      10.889   7.347  21.718  0.00  0.00    +0.163 C 
ATOM     15  C   UNL     1      12.822   6.249  20.494  0.00  0.00    +0.078 C 
ATOM     16  C   UNL     1      11.401   6.077  21.034  0.00  0.00    +0.148 C 
ENDROOT
BRANCH  11   7
ATOM      5  O   UNL     1      12.584   9.982  22.784  0.00  0.00    -0.253 OA
ATOM      7  N   UNL     1      10.642   9.778  21.532  0.00  0.00    -0.294 N 
ATOM      8  N   UNL     1      10.860  11.520  23.011  0.00  0.00    -0.297 N 
ATOM     24  C   UNL     1      11.466  10.390  22.472  0.00  0.00    +0.300 C 
ATOM     28  H   UNL     1       9.705  10.147  21.398  0.00  0.00    +0.151 HD
ATOM     30  H   UNL     1       9.905  11.726  22.735  0.00  0.00    +0.151 HD
BRANCH   8  17
ATOM     17  C   UNL     1      11.488  12.352  24.014  0.00  0.00    +0.074 C 
ATOM     19  C   UNL     1      10.444  13.150  24.803  0.00  0.00    +0.022 C 
ATOM     20  C   UNL     1      12.534  13.278  23.383  0.00  0.00    +0.022 C 
ATOM     21  C   UNL     1       9.815  14.270  23.974  0.00  0.00    +0.002 C 
ATOM     22  C   UNL     1      11.902  14.399  22.557  0.00  0.00    +0.002 C 
ATOM     23  C   UNL     1      10.875  15.184  23.367  0.00  0.00    +0.000 C 
ENDBRANCH   8  17
ENDBRANCH  11   7
BRANCH  12  18
ATOM      4  O   UNL     1      14.662   8.330  18.161  0.00  0.00    -0.273 OA
ATOM      9  N   UNL     1      15.251   6.899  19.900  0.00  0.00    -0.302 N 
ATOM     18  C   UNL     1      14.367   7.631  19.127  0.00  0.00    +0.245 C 
ATOM     33  H   UNL     1      14.903   6.319  20.657  0.00  0.00    +0.150 HD
BRANCH   9  25
ATOM     25  C   UNL     1      16.675   6.869  19.657  0.00  0.00    +0.156 C 
ATOM     26  C   UNL     1      17.037   5.783  18.656  0.00  0.00    +0.038 C 
BRANCH  25  27
ATOM      6  O   UNL     1      18.586   6.798  21.154  0.00  0.00    -0.274 OA
ATOM     10  N   UNL     1      16.513   6.282  21.996  0.00  0.00    -0.328 N 
ATOM     27  C   UNL     1      17.380   6.641  20.986  0.00  0.00    +0.231 C 
ATOM     34  H   UNL     1      16.852   6.112  22.938  0.00  0.00    +0.145 HD
ATOM     35  H   UNL     1      15.515   6.176  21.848  0.00  0.00    +0.145 HD
ENDBRANCH  25  27
ENDBRANCH   9  25
ENDBRANCH  12  18
BRANCH  12   1
ATOM      1  O   UNL     1      12.204   7.231  18.389  0.00  0.00    -0.379 OA
ATOM     29  H   UNL     1      11.270   7.441  18.561  0.00  0.00    +0.211 HD
ENDBRANCH  12   1
BRANCH  14   2
ATOM      2  O   UNL     1       9.505   7.145  22.024  0.00  0.00    -0.387 OA
ATOM     31  H   UNL     1       9.436   6.373  22.611  0.00  0.00    +0.210 HD
ENDBRANCH  14   2
BRANCH  16   3
ATOM      3  O   UNL     1      11.396   5.016  21.989  0.00  0.00    -0.389 OA
ATOM     32  H   UNL     1      10.473   4.873  22.261  0.00  0.00    +0.210 HD
ENDBRANCH  16   3
TORSDOF 8
ENDMDL
MODEL 2
REMARK VINA RESULT:      -7.2      3.263      4.453
REMARK  Name = 7049255
REMARK  9 active torsions:
REMARK  status: ('A' for Active; 'I' for Inactive)
REMARK    1  A    between atoms: O_1  and  C_12
REMARK    2  A    between atoms: O_2  and  C_14
REMARK    3  A    between atoms: O_3  and  C_16
REMARK    4  A    between atoms: N_7  and  C_11
REMARK    5  A    between atoms: N_8  and  C_17
REMARK    6  A    between atoms: N_9  and  C_25
REMARK    7  A    between atoms: C_12  and  C_18
REMARK    8  A    between atoms: C_25  and  C_26
REMARK    9  A    between atoms: C_25  and  C_27
REMARK                            x       y       z     vdW  Elec       q    Type
REMARK                         _______ _______ _______ _____ _____    ______ ____
ROOT
ATOM     11  C   UNL     1      12.527   9.222  19.912  0.00  0.00    +0.109 C 
ATOM     12  C   UNL     1      13.179   8.574  17.542  0.00  0.00    +0.146 C 
ATOM     13  C   UNL     1      12.950   9.723  18.527  0.00  0.00    +0.069 C 
ATOM     14  C   UNL     1      13.510   8.182  20.467  0.00  0.00    +0.163 C 
ATOM     15  C   UNL     1      14.174   7.558  18.099  0.00  0.00    +0.078 C 
ATOM     16  C   UNL     1      13.759   7.042  19.477  0.00  0.00    +0.148 C 
ENDROOT
BRANCH  11   7
ATOM      5  O   UNL     1      10.626   9.497  22.049  0.00  0.00    -0.253 OA
ATOM      7  N   UNL     1      12.403  10.341  20.820  0.00  0.00    -0.294 N 
ATOM      8  N   UNL     1      11.542  11.570  22.558  0.00  0.00    -0.297 N 
ATOM     24  C   UNL     1      11.447  10.386  21.830  0.00  0.00    +0.300 C 
ATOM     28  H   UNL     1      12.987  11.157  20.670  0.00  0.00    +0.151 HD
ATOM     30  H   UNL     1      12.209  12.268  22.245  0.00  0.00    +0.151 HD
BRANCH   8  17
ATOM     17  C   UNL     1      10.672  11.887  23.668  0.00  0.00    +0.074 C 
ATOM     19  C   UNL     1      10.333  13.381  23.695  0.00  0.00    +0.022 C 
ATOM     20  C   UNL     1      11.288  11.433  24.996  0.00  0.00    +0.022 C 
ATOM     21  C   UNL     1      11.523  14.244  24.115  0.00  0.00    +0.002 C 
ATOM     22  C   UNL     1      12.476  12.299  25.416  0.00  0.00    +0.002 C 
ATOM     23  C   UNL     1      12.111  13.780  25.445  0.00  0.00    +0.000 C 
ENDBRANCH   8  17
ENDBRANCH  11   7
BRANCH  12  18
ATOM      4  O   UNL     1      13.477   8.482  15.174  0.00  0.00    -0.273 OA
ATOM      9  N   UNL     1      14.327  10.304  16.347  0.00  0.00    -0.302 N 
ATOM     18  C   UNL     1      13.660   9.098  16.221  0.00  0.00    +0.245 C 
ATOM     33  H   UNL     1      14.461  10.716  17.265  0.00  0.00    +0.150 HD
BRANCH   9  25
ATOM     25  C   UNL     1      14.907  11.007  15.226  0.00  0.00    +0.156 C 
ATOM     26  C   UNL     1      16.119  11.820  15.657  0.00  0.00    +0.038 C 
BRANCH  25  27
ATOM      6  O   UNL     1      13.228  11.636  13.588  0.00  0.00    -0.274 OA
ATOM     10  N   UNL     1      13.591  13.028  15.377  0.00  0.00    -0.328 N 
ATOM     27  C   UNL     1      13.838  11.903  14.620  0.00  0.00    +0.231 C 
ATOM     34  H   UNL     1      12.890  13.705  15.092  0.00  0.00    +0.145 HD
ATOM     35  H   UNL     1      14.088  13.227  16.240  0.00  0.00    +0.145 HD
ENDBRANCH  25  27
ENDBRANCH   9  25
ENDBRANCH  12  18
BRANCH  12   1
ATOM      1  O   UNL     1      11.953   7.915  17.253  0.00  0.00    -0.379 OA
ATOM     29  H   UNL     1      11.999   7.008  17.604  0.00  0.00    +0.211 HD
ENDBRANCH  12   1
BRANCH  14   2
ATOM      2  O   UNL     1      12.960   7.610  21.658  0.00  0.00    -0.387 OA
ATOM     31  H   UNL     1      12.667   8.335  22.233  0.00  0.00    +0.210 HD
ENDBRANCH  14   2
BRANCH  16   3
ATOM      3  O   UNL     1      14.803   6.215  19.995  0.00  0.00    -0.389 OA
ATOM     32  H   UNL     1      15.213   5.758  19.241  0.00  0.00    +0.210 HD
ENDBRANCH  16   3
TORSDOF 8
ENDMDL
MODEL 3
REMARK VINA RESULT:      -7.2      3.658      7.944
REMARK  Name = 7049255
REMARK  9 active torsions:
REMARK  status: ('A' for Active; 'I' for Inactive)
REMARK    1  A    between atoms: O_1  and  C_12
REMARK    2  A    between atoms: O_2  and  C_14
REMARK    3  A    between atoms: O_3  and  C_16
REMARK    4  A    between atoms: N_7  and  C_11
REMARK    5  A    between atoms: N_8  and  C_17
REMARK    6  A    between atoms: N_9  and  C_25
REMARK    7  A    between atoms: C_12  and  C_18
REMARK    8  A    between atoms: C_25  and  C_26
REMARK    9  A    between atoms: C_25  and  C_27
REMARK                            x       y       z     vdW  Elec       q    Type
REMARK                         _______ _______ _______ _____ _____    ______ ____
ROOT
ATOM     11  C   UNL     1      17.591   7.108  21.182  0.00  0.00    +0.109 C 
ATOM     12  C   UNL     1      15.251   7.224  20.197  0.00  0.00    +0.146 C 
ATOM     13  C   UNL     1      16.349   7.977  20.952  0.00  0.00    +0.069 C 
ATOM     14  C   UNL     1      18.112   6.499  19.873  0.00  0.00    +0.163 C 
ATOM     15  C   UNL     1      15.778   6.640  18.888  0.00  0.00    +0.078 C 
ATOM     16  C   UNL     1      17.012   5.763  19.104  0.00  0.00    +0.148 C 
ENDROOT
BRANCH  11   7
ATOM      5  O   UNL     1      19.608   6.143  22.987  0.00  0.00    -0.253 OA
ATOM      7  N   UNL     1      18.622   7.892  21.825  0.00  0.00    -0.294 N 
ATOM      8  N   UNL     1      20.437   8.304  23.169  0.00  0.00    -0.297 N 
ATOM     24  C   UNL     1      19.561   7.335  22.688  0.00  0.00    +0.300 C 
ATOM     28  H   UNL     1      18.618   8.899  21.700  0.00  0.00    +0.151 HD
ATOM     30  H   UNL     1      20.264   9.271  22.914  0.00  0.00    +0.151 HD
BRANCH   8  17
ATOM     17  C   UNL     1      21.516   8.009  24.086  0.00  0.00    +0.074 C 
ATOM     19  C   UNL     1      21.034   8.057  25.539  0.00  0.00    +0.022 C 
ATOM     20  C   UNL     1      22.701   8.954  23.862  0.00  0.00    +0.022 C 
ATOM     21  C   UNL     1      20.747   9.482  26.014  0.00  0.00    +0.002 C 
ATOM     22  C   UNL     1      22.413  10.378  24.340  0.00  0.00    +0.002 C 
ATOM     23  C   UNL     1      21.945  10.401  25.792  0.00  0.00    +0.000 C 
ENDBRANCH   8  17
ENDBRANCH  11   7
BRANCH  12  18
ATOM      4  O   UNL     1      13.938   8.695  18.848  0.00  0.00    -0.273 OA
ATOM      9  N   UNL     1      13.243   8.238  21.023  0.00  0.00    -0.302 N 
ATOM     18  C   UNL     1      14.082   8.125  19.928  0.00  0.00    +0.245 C 
ATOM     33  H   UNL     1      13.470   7.755  21.886  0.00  0.00    +0.150 HD
BRANCH   9  25
ATOM     25  C   UNL     1      12.058   9.064  21.030  0.00  0.00    +0.156 C 
ATOM     26  C   UNL     1      11.690   9.481  22.445  0.00  0.00    +0.038 C 
BRANCH  25  27
ATOM      6  O   UNL     1      10.572   8.434  19.215  0.00  0.00    -0.274 OA
ATOM     10  N   UNL     1      10.370   7.346  21.227  0.00  0.00    -0.328 N 
ATOM     27  C   UNL     1      10.928   8.281  20.381  0.00  0.00    +0.231 C 
ATOM     34  H   UNL     1       9.613   6.746  20.915  0.00  0.00    +0.145 HD
ATOM     35  H   UNL     1      10.688   7.216  22.183  0.00  0.00    +0.145 HD
ENDBRANCH  25  27
ENDBRANCH   9  25
ENDBRANCH  12  18
BRANCH  12   1
ATOM      1  O   UNL     1      14.728   6.172  20.998  0.00  0.00    -0.379 OA
ATOM     29  H   UNL     1      15.425   5.504  21.124  0.00  0.00    +0.211 HD
ENDBRANCH  12   1
BRANCH  14   2
ATOM      2  O   UNL     1      19.137   5.549  20.177  0.00  0.00    -0.387 OA
ATOM     31  H   UNL     1      19.861   5.672  19.540  0.00  0.00    +0.210 HD
ENDBRANCH  14   2
BRANCH  16   3
ATOM      3  O   UNL     1      17.532   5.376  17.832  0.00  0.00    -0.389 OA
ATOM     32  H   UNL     1      17.520   6.163  17.260  0.00  0.00    +0.210 HD
ENDBRANCH  16   3
TORSDOF 8
ENDMDL
MODEL 4
REMARK VINA RESULT:      -7.1     26.696     28.822
REMARK  Name = 7049255
REMARK  9 active torsions:
REMARK  status: ('A' for Active; 'I' for Inactive)
REMARK    1  A    between atoms: O_1  and  C_12
REMARK    2  A    between atoms: O_2  and  C_14
REMARK    3  A    between atoms: O_3  and  C_16
REMARK    4  A    between atoms: N_7  and  C_11
REMARK    5  A    between atoms: N_8  and  C_17
REMARK    6  A    between atoms: N_9  and  C_25
REMARK    7  A    between atoms: C_12  and  C_18
REMARK    8  A    between atoms: C_25  and  C_26
REMARK    9  A    between atoms: C_25  and  C_27
REMARK                            x       y       z     vdW  Elec       q    Type
REMARK                         _______ _______ _______ _____ _____    ______ ____
ROOT
ATOM     11  C   UNL     1      -4.906 -10.267  17.059  0.00  0.00    +0.109 C 
ATOM     12  C   UNL     1      -6.678 -10.773  18.809  0.00  0.00    +0.146 C 
ATOM     13  C   UNL     1      -6.403 -10.283  17.386  0.00  0.00    +0.069 C 
ATOM     14  C   UNL     1      -4.248 -11.626  17.333  0.00  0.00    +0.163 C 
ATOM     15  C   UNL     1      -6.034 -12.135  19.061  0.00  0.00    +0.078 C 
ATOM     16  C   UNL     1      -4.537 -12.130  18.749  0.00  0.00    +0.148 C 
ENDROOT
BRANCH  11   7
ATOM      5  O   UNL     1      -5.418 -11.868  14.728  0.00  0.00    -0.253 OA
ATOM      7  N   UNL     1      -4.710  -9.875  15.681  0.00  0.00    -0.294 N 
ATOM      8  N   UNL     1      -4.712 -10.102  13.397  0.00  0.00    -0.297 N 
ATOM     24  C   UNL     1      -4.987 -10.722  14.612  0.00  0.00    +0.300 C 
ATOM     28  H   UNL     1      -4.286  -8.973  15.486  0.00  0.00    +0.151 HD
ATOM     30  H   UNL     1      -4.291  -9.178  13.418  0.00  0.00    +0.151 HD
BRANCH   8  17
ATOM     17  C   UNL     1      -4.906 -10.748  12.118  0.00  0.00    +0.074 C 
ATOM     19  C   UNL     1      -3.569 -11.195  11.516  0.00  0.00    +0.022 C 
ATOM     20  C   UNL     1      -5.673  -9.838  11.152  0.00  0.00    +0.022 C 
ATOM     21  C   UNL     1      -2.726 -10.018  11.024  0.00  0.00    +0.002 C 
ATOM     22  C   UNL     1      -4.827  -8.663  10.659  0.00  0.00    +0.002 C 
ATOM     23  C   UNL     1      -3.507  -9.134  10.055  0.00  0.00    +0.000 C 
ENDBRANCH   8  17
ENDBRANCH  11   7
BRANCH  12  18
ATOM      4  O   UNL     1      -8.625 -11.560  19.948  0.00  0.00    -0.273 OA
ATOM      9  N   UNL     1      -8.877 -10.043  18.201  0.00  0.00    -0.302 N 
ATOM     18  C   UNL     1      -8.155 -10.843  19.068  0.00  0.00    +0.245 C 
ATOM     33  H   UNL     1      -8.397  -9.515  17.479  0.00  0.00    +0.150 HD
BRANCH   9  25
ATOM     25  C   UNL     1     -10.319  -9.950  18.226  0.00  0.00    +0.156 C 
ATOM     26  C   UNL     1     -10.956 -11.102  17.465  0.00  0.00    +0.038 C 
BRANCH  25  27
ATOM      6  O   UNL     1     -11.850  -8.359  17.214  0.00  0.00    -0.274 OA
ATOM     10  N   UNL     1      -9.692  -7.693  17.629  0.00  0.00    -0.328 N 
ATOM     27  C   UNL     1     -10.720  -8.612  17.625  0.00  0.00    +0.231 C 
ATOM     34  H   UNL     1      -9.829  -6.756  17.267  0.00  0.00    +0.145 HD
ATOM     35  H   UNL     1      -8.768  -7.909  17.990  0.00  0.00    +0.145 HD
ENDBRANCH  25  27
ENDBRANCH   9  25
ENDBRANCH  12  18
BRANCH  12   1
ATOM      1  O   UNL     1      -6.181  -9.840  19.761  0.00  0.00    -0.379 OA
ATOM     29  H   UNL     1      -6.441 -10.138  20.650  0.00  0.00    +0.211 HD
ENDBRANCH  12   1
BRANCH  14   2
ATOM      2  O   UNL     1      -2.829 -11.492  17.203  0.00  0.00    -0.387 OA
ATOM     31  H   UNL     1      -2.415 -12.280  17.591  0.00  0.00    +0.210 HD
ENDBRANCH  14   2
BRANCH  16   3
ATOM      3  O   UNL     1      -4.038 -13.463  18.864  0.00  0.00    -0.389 OA
ATOM     32  H   UNL     1      -3.101 -13.447  18.603  0.00  0.00    +0.210 HD
ENDBRANCH  16   3
TORSDOF 8
ENDMDL
MODEL 5
REMARK VINA RESULT:      -6.9     18.679     21.271
REMARK  Name = 7049255
REMARK  9 active torsions:
REMARK  status: ('A' for Active; 'I' for Inactive)
REMARK    1  A    between atoms: O_1  and  C_12
REMARK    2  A    between atoms: O_2  and  C_14
REMARK    3  A    between atoms: O_3  and  C_16
REMARK    4  A    between atoms: N_7  and  C_11
REMARK    5  A    between atoms: N_8  and  C_17
REMARK    6  A    between atoms: N_9  and  C_25
REMARK    7  A    between atoms: C_12  and  C_18
REMARK    8  A    between atoms: C_25  and  C_26
REMARK    9  A    between atoms: C_25  and  C_27
REMARK                            x       y       z     vdW  Elec       q    Type
REMARK                         _______ _______ _______ _____ _____    ______ ____
ROOT
ATOM     11  C   UNL     1      13.018   4.920   1.763  0.00  0.00    +0.109 C 
ATOM     12  C   UNL     1      13.073   4.506  -0.744  0.00  0.00    +0.146 C 
ATOM     13  C   UNL     1      12.270   5.065   0.432  0.00  0.00    +0.069 C 
ATOM     14  C   UNL     1      14.427   5.525   1.694  0.00  0.00    +0.163 C 
ATOM     15  C   UNL     1      14.465   5.130  -0.812  0.00  0.00    +0.078 C 
ATOM     16  C   UNL     1      15.227   4.984   0.506  0.00  0.00    +0.148 C 
ENDROOT
BRANCH  11   7
ATOM      5  O   UNL     1      10.800   3.760   3.176  0.00  0.00    -0.253 OA
ATOM      7  N   UNL     1      12.251   5.535   2.823  0.00  0.00    -0.294 N 
ATOM      8  N   UNL     1      10.624   5.703   4.434  0.00  0.00    -0.297 N 
ATOM     24  C   UNL     1      11.189   4.894   3.453  0.00  0.00    +0.300 C 
ATOM     28  H   UNL     1      12.448   6.500   3.071  0.00  0.00    +0.151 HD
ATOM     30  H   UNL     1      10.976   6.650   4.531  0.00  0.00    +0.151 HD
BRANCH   8  17
ATOM     17  C   UNL     1       9.502   5.293   5.248  0.00  0.00    +0.074 C 
ATOM     19  C   UNL     1       8.374   6.329   5.198  0.00  0.00    +0.022 C 
ATOM     20  C   UNL     1       9.940   5.018   6.691  0.00  0.00    +0.022 C 
ATOM     21  C   UNL     1       8.721   7.608   5.960  0.00  0.00    +0.002 C 
ATOM     22  C   UNL     1      10.284   6.299   7.452  0.00  0.00    +0.002 C 
ATOM     23  C   UNL     1       9.143   7.311   7.397  0.00  0.00    +0.000 C 
ENDBRANCH   8  17
ENDBRANCH  11   7
BRANCH  12  18
ATOM      4  O   UNL     1      12.703   5.582  -2.845  0.00  0.00    -0.273 OA
ATOM      9  N   UNL     1      11.245   3.898  -2.168  0.00  0.00    -0.302 N 
ATOM     18  C   UNL     1      12.343   4.730  -2.036  0.00  0.00    +0.245 C 
ATOM     33  H   UNL     1      11.007   3.250  -1.424  0.00  0.00    +0.150 HD
BRANCH   9  25
ATOM     25  C   UNL     1      10.362   3.930  -3.311  0.00  0.00    +0.156 C 
ATOM     26  C   UNL     1       9.194   4.875  -3.074  0.00  0.00    +0.038 C 
BRANCH  25  27
ATOM      6  O   UNL     1       9.938   1.605  -2.752  0.00  0.00    -0.274 OA
ATOM     10  N   UNL     1       9.305   2.368  -4.823  0.00  0.00    -0.328 N 
ATOM     27  C   UNL     1       9.873   2.514  -3.575  0.00  0.00    +0.231 C 
ATOM     34  H   UNL     1       8.928   1.475  -5.122  0.00  0.00    +0.145 HD
ATOM     35  H   UNL     1       9.239   3.133  -5.486  0.00  0.00    +0.145 HD
ENDBRANCH  25  27
ENDBRANCH   9  25
ENDBRANCH  12  18
BRANCH  12   1
ATOM      1  O   UNL     1      13.201   3.094  -0.633  0.00  0.00    -0.379 OA
ATOM     29  H   UNL     1      12.468   2.761  -0.086  0.00  0.00    +0.211 HD
ENDBRANCH  12   1
BRANCH  14   2
ATOM      2  O   UNL     1      15.140   5.182   2.887  0.00  0.00    -0.387 OA
ATOM     31  H   UNL     1      14.989   4.239   3.068  0.00  0.00    +0.210 HD
ENDBRANCH  14   2
BRANCH  16   3
ATOM      3  O   UNL     1      16.451   5.714   0.416  0.00  0.00    -0.389 OA
ATOM     32  H   UNL     1      16.438   6.392   1.114  0.00  0.00    +0.210 HD
ENDBRANCH  16   3
TORSDOF 8
ENDMDL
MODEL 6
REMARK VINA RESULT:      -6.7     26.104     28.770
REMARK  Name = 7049255
REMARK  9 active torsions:
REMARK  status: ('A' for Active; 'I' for Inactive)
REMARK    1  A    between atoms: O_1  and  C_12
REMARK    2  A    between atoms: O_2  and  C_14
REMARK    3  A    between atoms: O_3  and  C_16
REMARK    4  A    between atoms: N_7  and  C_11
REMARK    5  A    between atoms: N_8  and  C_17
REMARK    6  A    between atoms: N_9  and  C_25
REMARK    7  A    between atoms: C_12  and  C_18
REMARK    8  A    between atoms: C_25  and  C_26
REMARK    9  A    between atoms: C_25  and  C_27
REMARK                            x       y       z     vdW  Elec       q    Type
REMARK                         _______ _______ _______ _____ _____    ______ ____
ROOT
ATOM     11  C   UNL     1     -15.752   4.734  24.122  0.00  0.00    +0.109 C 
ATOM     12  C   UNL     1     -14.638   5.993  22.215  0.00  0.00    +0.146 C 
ATOM     13  C   UNL     1     -14.426   5.160  23.481  0.00  0.00    +0.069 C 
ATOM     14  C   UNL     1     -16.669   4.023  23.117  0.00  0.00    +0.163 C 
ATOM     15  C   UNL     1     -15.535   5.266  21.217  0.00  0.00    +0.078 C 
ATOM     16  C   UNL     1     -16.867   4.844  21.840  0.00  0.00    +0.148 C 
ENDROOT
BRANCH  11   7
ATOM      5  O   UNL     1     -17.216   4.686  26.595  0.00  0.00    -0.253 OA
ATOM      7  N   UNL     1     -15.493   3.885  25.263  0.00  0.00    -0.294 N 
ATOM      8  N   UNL     1     -15.800   3.016  27.366  0.00  0.00    -0.297 N 
ATOM     24  C   UNL     1     -16.259   3.932  26.424  0.00  0.00    +0.300 C 
ATOM     28  H   UNL     1     -14.676   3.282  25.247  0.00  0.00    +0.151 HD
ATOM     30  H   UNL     1     -14.956   2.493  27.150  0.00  0.00    +0.151 HD
BRANCH   8  17
ATOM     17  C   UNL     1     -16.407   2.847  28.667  0.00  0.00    +0.074 C 
ATOM     19  C   UNL     1     -15.642   3.629  29.740  0.00  0.00    +0.022 C 
ATOM     20  C   UNL     1     -16.518   1.363  29.034  0.00  0.00    +0.022 C 
ATOM     21  C   UNL     1     -14.286   3.001  30.066  0.00  0.00    +0.002 C 
ATOM     22  C   UNL     1     -15.161   0.739  29.362  0.00  0.00    +0.002 C 
ATOM     23  C   UNL     1     -14.423   1.528  30.439  0.00  0.00    +0.000 C 
ENDBRANCH   8  17
ENDBRANCH  11   7
BRANCH  12  18
ATOM      4  O   UNL     1     -12.334   5.613  21.714  0.00  0.00    -0.273 OA
ATOM      9  N   UNL     1     -13.371   7.518  20.871  0.00  0.00    -0.302 N 
ATOM     18  C   UNL     1     -13.322   6.330  21.578  0.00  0.00    +0.245 C 
ATOM     33  H   UNL     1     -14.229   8.061  20.850  0.00  0.00    +0.150 HD
BRANCH   9  25
ATOM     25  C   UNL     1     -12.229   8.077  20.183  0.00  0.00    +0.156 C 
ATOM     26  C   UNL     1     -12.173   9.587  20.353  0.00  0.00    +0.038 C 
BRANCH  25  27
ATOM      6  O   UNL     1     -13.270   8.004  17.990  0.00  0.00    -0.274 OA
ATOM     10  N   UNL     1     -11.219   7.008  18.266  0.00  0.00    -0.328 N 
ATOM     27  C   UNL     1     -12.326   7.697  18.714  0.00  0.00    +0.231 C 
ATOM     34  H   UNL     1     -11.151   6.704  17.299  0.00  0.00    +0.145 HD
ATOM     35  H   UNL     1     -10.437   6.778  18.870  0.00  0.00    +0.145 HD
ENDBRANCH  25  27
ENDBRANCH   9  25
ENDBRANCH  12  18
BRANCH  12   1
ATOM      1  O   UNL     1     -15.224   7.248  22.539  0.00  0.00    -0.379 OA
ATOM     29  H   UNL     1     -14.822   7.931  21.973  0.00  0.00    +0.211 HD
ENDBRANCH  12   1
BRANCH  14   2
ATOM      2  O   UNL     1     -17.955   3.833  23.713  0.00  0.00    -0.387 OA
ATOM     31  H   UNL     1     -18.578   4.446  23.288  0.00  0.00    +0.210 HD
ENDBRANCH  14   2
BRANCH  16   3
ATOM      3  O   UNL     1     -17.585   4.046  20.898  0.00  0.00    -0.389 OA
ATOM     32  H   UNL     1     -18.516   4.327  20.928  0.00  0.00    +0.210 HD
ENDBRANCH  16   3
TORSDOF 8
ENDMDL
MODEL 7
REMARK VINA RESULT:      -6.6      4.392      8.518
REMARK  Name = 7049255
REMARK  9 active torsions:
REMARK  status: ('A' for Active; 'I' for Inactive)
REMARK    1  A    between atoms: O_1  and  C_12
REMARK    2  A    between atoms: O_2  and  C_14
REMARK    3  A    between atoms: O_3  and  C_16
REMARK    4  A    between atoms: N_7  and  C_11
REMARK    5  A    between atoms: N_8  and  C_17
REMARK    6  A    between atoms: N_9  and  C_25
REMARK    7  A    between atoms: C_12  and  C_18
REMARK    8  A    between atoms: C_25  and  C_26
REMARK    9  A    between atoms: C_25  and  C_27
REMARK                            x       y       z     vdW  Elec       q    Type
REMARK                         _______ _______ _______ _____ _____    ______ ____
ROOT
ATOM     11  C   UNL     1      18.069   7.061  21.250  0.00  0.00    +0.109 C 
ATOM     12  C   UNL     1      15.688   7.231  20.375  0.00  0.00    +0.146 C 
ATOM     13  C   UNL     1      16.848   7.966  21.052  0.00  0.00    +0.069 C 
ATOM     14  C   UNL     1      18.504   6.394  19.938  0.00  0.00    +0.163 C 
ATOM     15  C   UNL     1      16.130   6.589  19.062  0.00  0.00    +0.078 C 
ATOM     16  C   UNL     1      17.342   5.675  19.247  0.00  0.00    +0.148 C 
ENDROOT
BRANCH  11   7
ATOM      5  O   UNL     1      19.960   6.160  23.217  0.00  0.00    -0.253 OA
ATOM      7  N   UNL     1      19.157   7.826  21.817  0.00  0.00    -0.294 N 
ATOM      8  N   UNL     1      20.981   8.245  23.147  0.00  0.00    -0.297 N 
ATOM     24  C   UNL     1      20.027   7.304  22.769  0.00  0.00    +0.300 C 
ATOM     28  H   UNL     1      19.247   8.806  21.566  0.00  0.00    +0.151 HD
ATOM     30  H   UNL     1      20.900   9.183  22.768  0.00  0.00    +0.151 HD
BRANCH   8  17
ATOM     17  C   UNL     1      22.013   7.976  24.123  0.00  0.00    +0.074 C 
ATOM     19  C   UNL     1      22.290   9.209  24.989  0.00  0.00    +0.022 C 
ATOM     20  C   UNL     1      23.293   7.474  23.446  0.00  0.00    +0.022 C 
ATOM     21  C   UNL     1      23.019  10.312  24.221  0.00  0.00    +0.002 C 
ATOM     22  C   UNL     1      24.022   8.579  22.680  0.00  0.00    +0.002 C 
ATOM     23  C   UNL     1      24.295   9.791  23.565  0.00  0.00    +0.000 C 
ENDBRANCH   8  17
ENDBRANCH  11   7
BRANCH  12  18
ATOM      4  O   UNL     1      14.065   8.855  21.033  0.00  0.00    -0.273 OA
ATOM      9  N   UNL     1      14.097   8.124  18.823  0.00  0.00    -0.302 N 
ATOM     18  C   UNL     1      14.540   8.166  20.134  0.00  0.00    +0.245 C 
ATOM     33  H   UNL     1      14.532   7.490  18.161  0.00  0.00    +0.150 HD
BRANCH   9  25
ATOM     25  C   UNL     1      12.987   8.913  18.339  0.00  0.00    +0.156 C 
ATOM     26  C   UNL     1      11.662   8.358  18.837  0.00  0.00    +0.038 C 
BRANCH  25  27
ATOM      6  O   UNL     1      13.640   8.085  16.151  0.00  0.00    -0.274 OA
ATOM     10  N   UNL     1      12.297   9.944  16.264  0.00  0.00    -0.328 N 
ATOM     27  C   UNL     1      13.038   8.921  16.819  0.00  0.00    +0.231 C 
ATOM     34  H   UNL     1      12.236  10.057  15.258  0.00  0.00    +0.145 HD
ATOM     35  H   UNL     1      11.787  10.617  16.828  0.00  0.00    +0.145 HD
ENDBRANCH  25  27
ENDBRANCH   9  25
ENDBRANCH  12  18
BRANCH  12   1
ATOM      1  O   UNL     1      15.170   6.224  21.235  0.00  0.00    -0.379 OA
ATOM     29  H   UNL     1      15.741   6.164  22.020  0.00  0.00    +0.211 HD
ENDBRANCH  12   1
BRANCH  14   2
ATOM      2  O   UNL     1      19.509   5.417  20.223  0.00  0.00    -0.387 OA
ATOM     31  H   UNL     1      20.355   5.745  19.875  0.00  0.00    +0.210 HD
ENDBRANCH  14   2
BRANCH  16   3
ATOM      3  O   UNL     1      17.786   5.231  17.964  0.00  0.00    -0.389 OA
ATOM     32  H   UNL     1      17.016   5.240  17.370  0.00  0.00    +0.210 HD
ENDBRANCH  16   3
TORSDOF 8
ENDMDL
MODEL 8
REMARK VINA RESULT:      -6.3     29.530     31.653
REMARK  Name = 7049255
REMARK  9 active torsions:
REMARK  status: ('A' for Active; 'I' for Inactive)
REMARK    1  A    between atoms: O_1  and  C_12
REMARK    2  A    between atoms: O_2  and  C_14
REMARK    3  A    between atoms: O_3  and  C_16
REMARK    4  A    between atoms: N_7  and  C_11
REMARK    5  A    between atoms: N_8  and  C_17
REMARK    6  A    between atoms: N_9  and  C_25
REMARK    7  A    between atoms: C_12  and  C_18
REMARK    8  A    between atoms: C_25  and  C_26
REMARK    9  A    between atoms: C_25  and  C_27
REMARK                            x       y       z     vdW  Elec       q    Type
REMARK                         _______ _______ _______ _____ _____    ______ ____
ROOT
ATOM     11  C   UNL     1      -8.410  -5.948  39.900  0.00  0.00    +0.109 C 
ATOM     12  C   UNL     1      -5.943  -6.498  39.634  0.00  0.00    +0.146 C 
ATOM     13  C   UNL     1      -6.999  -5.779  40.476  0.00  0.00    +0.069 C 
ATOM     14  C   UNL     1      -8.763  -7.425  39.680  0.00  0.00    +0.163 C 
ATOM     15  C   UNL     1      -6.297  -7.970  39.440  0.00  0.00    +0.078 C 
ATOM     16  C   UNL     1      -7.698  -8.154  38.856  0.00  0.00    +0.148 C 
ENDROOT
BRANCH  11   7
ATOM      5  O   UNL     1     -10.784  -4.534  39.110  0.00  0.00    -0.253 OA
ATOM      7  N   UNL     1      -9.373  -5.319  40.776  0.00  0.00    -0.294 N 
ATOM      8  N   UNL     1     -11.259  -4.141  41.348  0.00  0.00    -0.297 N 
ATOM     24  C   UNL     1     -10.499  -4.654  40.301  0.00  0.00    +0.300 C 
ATOM     28  H   UNL     1      -9.185  -5.298  41.773  0.00  0.00    +0.151 HD
ATOM     30  H   UNL     1     -10.894  -4.234  42.291  0.00  0.00    +0.151 HD
BRANCH   8  17
ATOM     17  C   UNL     1     -12.485  -3.400  41.148  0.00  0.00    +0.074 C 
ATOM     19  C   UNL     1     -12.395  -2.004  41.772  0.00  0.00    +0.022 C 
ATOM     20  C   UNL     1     -13.690  -4.175  41.690  0.00  0.00    +0.022 C 
ATOM     21  C   UNL     1     -12.429  -2.043  43.300  0.00  0.00    +0.002 C 
ATOM     22  C   UNL     1     -13.723  -4.211  43.219  0.00  0.00    +0.002 C 
ATOM     23  C   UNL     1     -13.644  -2.810  43.817  0.00  0.00    +0.000 C 
ENDBRANCH   8  17
ENDBRANCH  11   7
BRANCH  12  18
ATOM      4  O   UNL     1      -4.416  -6.537  41.470  0.00  0.00    -0.273 OA
ATOM      9  N   UNL     1      -3.611  -6.031  39.346  0.00  0.00    -0.302 N 
ATOM     18  C   UNL     1      -4.588  -6.370  40.265  0.00  0.00    +0.245 C 
ATOM     33  H   UNL     1      -3.860  -5.877  38.374  0.00  0.00    +0.150 HD
BRANCH   9  25
ATOM     25  C   UNL     1      -2.226  -5.825  39.704  0.00  0.00    +0.156 C 
ATOM     26  C   UNL     1      -2.042  -4.514  40.453  0.00  0.00    +0.038 C 
BRANCH  25  27
ATOM      6  O   UNL     1      -0.305  -6.399  38.332  0.00  0.00    -0.274 OA
ATOM     10  N   UNL     1      -2.022  -5.211  37.375  0.00  0.00    -0.328 N 
ATOM     27  C   UNL     1      -1.397  -5.845  38.429  0.00  0.00    +0.231 C 
ATOM     34  H   UNL     1      -1.582  -5.162  36.462  0.00  0.00    +0.145 HD
ATOM     35  H   UNL     1      -2.934  -4.775  37.463  0.00  0.00    +0.145 HD
ENDBRANCH  25  27
ENDBRANCH   9  25
ENDBRANCH  12  18
BRANCH  12   1
ATOM      1  O   UNL     1      -5.816  -5.878  38.360  0.00  0.00    -0.379 OA
ATOM     29  H   UNL     1      -6.475  -6.268  37.760  0.00  0.00    +0.211 HD
ENDBRANCH  12   1
BRANCH  14   2
ATOM      2  O   UNL     1      -9.998  -7.507  38.961  0.00  0.00    -0.387 OA
ATOM     31  H   UNL     1      -9.916  -8.217  38.302  0.00  0.00    +0.210 HD
ENDBRANCH  14   2
BRANCH  16   3
ATOM      3  O   UNL     1      -8.014  -9.546  38.842  0.00  0.00    -0.389 OA
ATOM     32  H   UNL     1      -7.246 -10.023  39.199  0.00  0.00    +0.210 HD
ENDBRANCH  16   3
TORSDOF 8
ENDMDL
MODEL 9
REMARK VINA RESULT:      -6.3     26.459     29.221
REMARK  Name = 7049255
REMARK  9 active torsions:
REMARK  status: ('A' for Active; 'I' for Inactive)
REMARK    1  A    between atoms: O_1  and  C_12
REMARK    2  A    between atoms: O_2  and  C_14
REMARK    3  A    between atoms: O_3  and  C_16
REMARK    4  A    between atoms: N_7  and  C_11
REMARK    5  A    between atoms: N_8  and  C_17
REMARK    6  A    between atoms: N_9  and  C_25
REMARK    7  A    between atoms: C_12  and  C_18
REMARK    8  A    between atoms: C_25  and  C_26
REMARK    9  A    between atoms: C_25  and  C_27
REMARK                            x       y       z     vdW  Elec       q    Type
REMARK                         _______ _______ _______ _____ _____    ______ ____
ROOT
ATOM     11  C   UNL     1     -15.779   4.879  22.480  0.00  0.00    +0.109 C 
ATOM     12  C   UNL     1     -16.546   3.699  24.597  0.00  0.00    +0.146 C 
ATOM     13  C   UNL     1     -15.865   4.938  24.010  0.00  0.00    +0.069 C 
ATOM     14  C   UNL     1     -17.151   4.624  21.841  0.00  0.00    +0.163 C 
ATOM     15  C   UNL     1     -17.917   3.469  23.966  0.00  0.00    +0.078 C 
ATOM     16  C   UNL     1     -17.845   3.399  22.440  0.00  0.00    +0.148 C 
ENDROOT
BRANCH  11   7
ATOM      5  O   UNL     1     -12.990   5.409  22.030  0.00  0.00    -0.253 OA
ATOM      7  N   UNL     1     -15.202   6.105  21.976  0.00  0.00    -0.294 N 
ATOM      8  N   UNL     1     -13.544   7.541  21.296  0.00  0.00    -0.297 N 
ATOM     24  C   UNL     1     -13.833   6.271  21.789  0.00  0.00    +0.300 C 
ATOM     28  H   UNL     1     -15.811   6.902  21.820  0.00  0.00    +0.151 HD
ATOM     30  H   UNL     1     -14.310   8.200  21.201  0.00  0.00    +0.151 HD
BRANCH   8  17
ATOM     17  C   UNL     1     -12.200   7.990  21.008  0.00  0.00    +0.074 C 
ATOM     19  C   UNL     1     -12.155   9.509  20.813  0.00  0.00    +0.022 C 
ATOM     20  C   UNL     1     -11.623   7.256  19.793  0.00  0.00    +0.022 C 
ATOM     21  C   UNL     1     -12.802   9.949  19.500  0.00  0.00    +0.002 C 
ATOM     22  C   UNL     1     -12.270   7.700  18.480  0.00  0.00    +0.002 C 
ATOM     23  C   UNL     1     -12.204   9.214  18.303  0.00  0.00    +0.000 C 
ENDBRANCH   8  17
ENDBRANCH  11   7
BRANCH  12  18
ATOM      4  O   UNL     1     -16.943   4.896  26.625  0.00  0.00    -0.273 OA
ATOM      9  N   UNL     1     -16.438   2.627  26.736  0.00  0.00    -0.302 N 
ATOM     18  C   UNL     1     -16.676   3.825  26.087  0.00  0.00    +0.245 C 
ATOM     33  H   UNL     1     -16.185   1.802  26.202  0.00  0.00    +0.150 HD
BRANCH   9  25
ATOM     25  C   UNL     1     -16.479   2.485  28.174  0.00  0.00    +0.156 C 
ATOM     26  C   UNL     1     -15.208   3.022  28.813  0.00  0.00    +0.038 C 
BRANCH  25  27
ATOM      6  O   UNL     1     -17.697   0.385  28.239  0.00  0.00    -0.274 OA
ATOM     10  N   UNL     1     -15.564   0.443  29.087  0.00  0.00    -0.328 N 
ATOM     27  C   UNL     1     -16.675   1.013  28.502  0.00  0.00    +0.231 C 
ATOM     34  H   UNL     1     -15.557  -0.538  29.346  0.00  0.00    +0.145 HD
ATOM     35  H   UNL     1     -14.718   0.969  29.280  0.00  0.00    +0.145 HD
ENDBRANCH  25  27
ENDBRANCH   9  25
ENDBRANCH  12  18
BRANCH  12   1
ATOM      1  O   UNL     1     -15.740   2.545  24.393  0.00  0.00    -0.379 OA
ATOM     29  H   UNL     1     -15.031   2.771  23.766  0.00  0.00    +0.211 HD
ENDBRANCH  12   1
BRANCH  14   2
ATOM      2  O   UNL     1     -16.975   4.381  20.442  0.00  0.00    -0.387 OA
ATOM     31  H   UNL     1     -17.775   3.941  20.110  0.00  0.00    +0.210 HD
ENDBRANCH  14   2
BRANCH  16   3
ATOM      3  O   UNL     1     -19.172   3.331  21.917  0.00  0.00    -0.389 OA
ATOM     32  H   UNL     1     -19.445   2.398  21.933  0.00  0.00    +0.210 HD
ENDBRANCH  16   3
TORSDOF 8
ENDMDL
MODEL 10
REMARK VINA RESULT:      -6.3     27.253     29.784
REMARK  Name = 7049255
REMARK  9 active torsions:
REMARK  status: ('A' for Active; 'I' for Inactive)
REMARK    1  A    between atoms: O_1  and  C_12
REMARK    2  A    between atoms: O_2  and  C_14
REMARK    3  A    between atoms: O_3  and  C_16
REMARK    4  A    between atoms: N_7  and  C_11
REMARK    5  A    between atoms: N_8  and  C_17
REMARK    6  A    between atoms: N_9  and  C_25
REMARK    7  A    between atoms: C_12  and  C_18
REMARK    8  A    between atoms: C_25  and  C_26
REMARK    9  A    between atoms: C_25  and  C_27
REMARK                            x       y       z     vdW  Elec       q    Type
REMARK                         _______ _______ _______ _____ _____    ______ ____
ROOT
ATOM     11  C   UNL     1     -14.608   4.588  32.682  0.00  0.00    +0.109 C 
ATOM     12  C   UNL     1     -15.281   2.738  31.074  0.00  0.00    +0.146 C 
ATOM     13  C   UNL     1     -14.455   4.012  31.270  0.00  0.00    +0.069 C 
ATOM     14  C   UNL     1     -14.304   3.540  33.762  0.00  0.00    +0.163 C 
ATOM     15  C   UNL     1     -14.955   1.697  32.143  0.00  0.00    +0.078 C 
ATOM     16  C   UNL     1     -15.112   2.256  33.558  0.00  0.00    +0.148 C 
ENDROOT
BRANCH  11   7
ATOM      5  O   UNL     1     -15.340   7.342  32.309  0.00  0.00    -0.253 OA
ATOM      7  N   UNL     1     -13.747   5.740  32.835  0.00  0.00    -0.294 N 
ATOM      8  N   UNL     1     -13.167   7.961  32.844  0.00  0.00    -0.297 N 
ATOM     24  C   UNL     1     -14.192   7.043  32.633  0.00  0.00    +0.300 C 
ATOM     28  H   UNL     1     -12.761   5.590  33.027  0.00  0.00    +0.151 HD
ATOM     30  H   UNL     1     -12.238   7.601  33.038  0.00  0.00    +0.151 HD
BRANCH   8  17
ATOM     17  C   UNL     1     -13.344   9.390  32.704  0.00  0.00    +0.074 C 
ATOM     19  C   UNL     1     -13.047   9.845  31.272  0.00  0.00    +0.022 C 
ATOM     20  C   UNL     1     -12.486  10.152  33.719  0.00  0.00    +0.022 C 
ATOM     21  C   UNL     1     -11.555   9.792  30.939  0.00  0.00    +0.002 C 
ATOM     22  C   UNL     1     -10.995  10.099  33.383  0.00  0.00    +0.002 C 
ATOM     23  C   UNL     1     -10.723  10.567  31.956  0.00  0.00    +0.000 C 
ENDBRANCH   8  17
ENDBRANCH  11   7
BRANCH  12  18
ATOM      4  O   UNL     1     -14.107   1.417  29.468  0.00  0.00    -0.273 OA
ATOM      9  N   UNL     1     -15.995   2.597  28.792  0.00  0.00    -0.302 N 
ATOM     18  C   UNL     1     -15.051   2.165  29.707  0.00  0.00    +0.245 C 
ATOM     33  H   UNL     1     -16.718   3.249  29.080  0.00  0.00    +0.150 HD
BRANCH   9  25
ATOM     25  C   UNL     1     -15.984   2.208  27.401  0.00  0.00    +0.156 C 
ATOM     26  C   UNL     1     -16.452   3.349  26.509  0.00  0.00    +0.038 C 
BRANCH  25  27
ATOM      6  O   UNL     1     -17.509   0.478  28.163  0.00  0.00    -0.274 OA
ATOM     10  N   UNL     1     -16.945   0.542  25.938  0.00  0.00    -0.328 N 
ATOM     27  C   UNL     1     -16.879   0.989  27.240  0.00  0.00    +0.231 C 
ATOM     34  H   UNL     1     -17.518  -0.259  25.690  0.00  0.00    +0.145 HD
ATOM     35  H   UNL     1     -16.435   0.986  25.181  0.00  0.00    +0.145 HD
ENDBRANCH  25  27
ENDBRANCH   9  25
ENDBRANCH  12  18
BRANCH  12   1
ATOM      1  O   UNL     1     -16.671   3.034  31.122  0.00  0.00    -0.379 OA
ATOM     29  H   UNL     1     -16.921   3.196  32.048  0.00  0.00    +0.211 HD
ENDBRANCH  12   1
BRANCH  14   2
ATOM      2  O   UNL     1     -14.656   4.074  35.042  0.00  0.00    -0.387 OA
ATOM     31  H   UNL     1     -14.178   3.570  35.721  0.00  0.00    +0.210 HD
ENDBRANCH  14   2
BRANCH  16   3
ATOM      3  O   UNL     1     -14.652   1.280  34.494  0.00  0.00    -0.389 OA
ATOM     32  H   UNL     1     -13.708   1.452  34.654  0.00  0.00    +0.210 HD
ENDBRANCH  16   3
TORSDOF 8
ENDMDL
