MODEL 1
REMARK VINA RESULT:      -8.1      0.000      0.000
REMARK  Name = 11912819
REMARK  8 active torsions:
REMARK  status: ('A' for Active; 'I' for Inactive)
REMARK    1  A    between atoms: O_4  and  C_18
REMARK    2  A    between atoms: O_4  and  C_23
REMARK    3  A    between atoms: O_5  and  C_30
REMARK    4  A    between atoms: O_5  and  C_34
REMARK    5  A    between atoms: N_6  and  C_12
REMARK    6  A    between atoms: N_7  and  C_13
REMARK    7  A    between atoms: C_16  and  C_18
REMARK    8  A    between atoms: C_19  and  C_22
REMARK                            x       y       z     vdW  Elec       q    Type
REMARK                         _______ _______ _______ _____ _____    ______ ____
ROOT
ATOM      1  O   UNL     1     -17.347   4.369  23.054  0.00  0.00    -0.370 OA
ATOM      2  O   UNL     1     -14.271   4.695  23.466  0.00  0.00    -0.370 OA
ATOM     10  C   UNL     1     -15.374   4.523  24.373  0.00  0.00    +0.171 C 
ATOM     11  C   UNL     1     -16.548   5.297  23.806  0.00  0.00    +0.171 C 
ATOM     12  C   UNL     1     -15.842   3.086  24.366  0.00  0.00    +0.130 C 
ATOM     13  C   UNL     1     -15.913   6.310  22.883  0.00  0.00    +0.130 C 
ATOM     14  C   UNL     1     -16.780   3.056  23.172  0.00  0.00    +0.185 C 
ATOM     15  C   UNL     1     -14.658   5.594  22.418  0.00  0.00    +0.185 C 
ENDROOT
BRANCH  13   7
ATOM      7  N   UNL     1     -15.563   7.503  23.622  0.00  0.00    -0.306 N 
ATOM      8  N   UNL     1     -13.978   8.130  22.046  0.00  0.00    -0.214 NA
ATOM      9  N   UNL     1     -14.391   9.472  24.003  0.00  0.00    -0.223 NA
ATOM     17  C   UNL     1     -14.602   8.408  23.205  0.00  0.00    +0.216 A 
ATOM     19  C   UNL     1     -13.048   9.032  21.669  0.00  0.00    +0.076 A 
ATOM     20  C   UNL     1     -13.449  10.333  23.567  0.00  0.00    +0.116 A 
ATOM     21  C   UNL     1     -12.738  10.163  22.397  0.00  0.00    +0.048 A 
ATOM     36  H   UNL     1     -16.074   7.733  24.467  0.00  0.00    +0.149 HD
BRANCH  19  22
ATOM     22  C   UNL     1     -12.376   8.738  20.426  0.00  0.00    +0.001 A 
ATOM     24  C   UNL     1     -11.963   7.435  20.148  0.00  0.00    +0.013 A 
ATOM     25  C   UNL     1     -12.139   9.757  19.502  0.00  0.00    +0.013 A 
ATOM     28  C   UNL     1     -11.313   7.150  18.947  0.00  0.00    +0.046 A 
ATOM     29  C   UNL     1     -11.489   9.473  18.303  0.00  0.00    +0.046 A 
ATOM     30  C   UNL     1     -11.075   8.169  18.025  0.00  0.00    +0.120 A 
BRANCH  30   5
ATOM      5  O   UNL     1     -10.444   7.890  16.852  0.00  0.00    -0.495 OA
ATOM     34  C   UNL     1     -10.667   8.787  15.765  0.00  0.00    +0.277 C 
ENDBRANCH  30   5
ENDBRANCH  19  22
ENDBRANCH  13   7
BRANCH  12   6
ATOM      3  O   UNL     1     -16.394   0.443  25.416  0.00  0.00    -0.272 OA
ATOM      6  N   UNL     1     -16.538   2.758  25.586  0.00  0.00    -0.305 N 
ATOM     16  C   UNL     1     -16.756   1.455  26.010  0.00  0.00    +0.251 C 
ATOM     35  H   UNL     1     -16.837   3.523  26.185  0.00  0.00    +0.149 HD
BRANCH  16  18
ATOM     18  C   UNL     1     -17.511   1.409  27.321  0.00  0.00    +0.324 C 
BRANCH  18   4
ATOM      4  O   UNL     1     -16.837   0.594  28.256  0.00  0.00    -0.483 OA
BRANCH   4  23
ATOM     23  C   UNL     1     -15.811   1.170  28.967  0.00  0.00    +0.121 A 
ATOM     26  C   UNL     1     -15.799   2.548  29.181  0.00  0.00    +0.045 A 
ATOM     27  C   UNL     1     -14.782   0.377  29.473  0.00  0.00    +0.045 A 
ATOM     31  C   UNL     1     -14.759   3.134  29.902  0.00  0.00    +0.004 A 
ATOM     32  C   UNL     1     -13.741   0.962  30.194  0.00  0.00    +0.004 A 
ATOM     33  C   UNL     1     -13.729   2.340  30.409  0.00  0.00    +0.000 A 
ENDBRANCH   4  23
ENDBRANCH  18   4
ENDBRANCH  16  18
ENDBRANCH  12   6
TORSDOF 7
ENDMDL
MODEL 2
REMARK VINA RESULT:      -8.0     21.545     24.937
REMARK  Name = 11912819
REMARK  8 active torsions:
REMARK  status: ('A' for Active; 'I' for Inactive)
REMARK    1  A    between atoms: O_4  and  C_18
REMARK    2  A    between atoms: O_4  and  C_23
REMARK    3  A    between atoms: O_5  and  C_30
REMARK    4  A    between atoms: O_5  and  C_34
REMARK    5  A    between atoms: N_6  and  C_12
REMARK    6  A    between atoms: N_7  and  C_13
REMARK    7  A    between atoms: C_16  and  C_18
REMARK    8  A    between atoms: C_19  and  C_22
REMARK                            x       y       z     vdW  Elec       q    Type
REMARK                         _______ _______ _______ _____ _____    ______ ____
ROOT
ATOM      1  O   UNL     1      -6.480 -11.621  10.460  0.00  0.00    -0.370 OA
ATOM      2  O   UNL     1      -5.269  -8.745  10.504  0.00  0.00    -0.370 OA
ATOM     10  C   UNL     1      -4.983  -9.923   9.729  0.00  0.00    +0.171 C 
ATOM     11  C   UNL     1      -5.146 -11.118  10.649  0.00  0.00    +0.171 C 
ATOM     12  C   UNL     1      -6.042 -10.125   8.670  0.00  0.00    +0.130 C 
ATOM     13  C   UNL     1      -4.996 -10.539  12.037  0.00  0.00    +0.130 C 
ATOM     14  C   UNL     1      -7.131 -10.856   9.436  0.00  0.00    +0.185 C 
ATOM     15  C   UNL     1      -5.515  -9.124  11.865  0.00  0.00    +0.185 C 
ENDROOT
BRANCH  13   7
ATOM      7  N   UNL     1      -3.600 -10.518  12.415  0.00  0.00    -0.306 N 
ATOM      8  N   UNL     1      -4.114 -10.610  14.677  0.00  0.00    -0.214 NA
ATOM      9  N   UNL     1      -1.829 -10.529  13.917  0.00  0.00    -0.223 NA
ATOM     17  C   UNL     1      -3.162 -10.554  13.727  0.00  0.00    +0.216 A 
ATOM     19  C   UNL     1      -3.652 -10.643  15.945  0.00  0.00    +0.076 A 
ATOM     20  C   UNL     1      -1.437 -10.565  15.208  0.00  0.00    +0.116 A 
ATOM     21  C   UNL     1      -2.311 -10.624  16.273  0.00  0.00    +0.048 A 
ATOM     36  H   UNL     1      -2.888 -10.529  11.693  0.00  0.00    +0.149 HD
BRANCH  19  22
ATOM     22  C   UNL     1      -4.669 -10.704  16.966  0.00  0.00    +0.001 A 
ATOM     24  C   UNL     1      -4.425 -11.396  18.153  0.00  0.00    +0.013 A 
ATOM     25  C   UNL     1      -5.899 -10.073  16.768  0.00  0.00    +0.013 A 
ATOM     28  C   UNL     1      -5.408 -11.457  19.141  0.00  0.00    +0.046 A 
ATOM     29  C   UNL     1      -6.881 -10.134  17.755  0.00  0.00    +0.046 A 
ATOM     30  C   UNL     1      -6.636 -10.826  18.942  0.00  0.00    +0.120 A 
BRANCH  30   5
ATOM      5  O   UNL     1      -7.593 -10.884  19.907  0.00  0.00    -0.495 OA
ATOM     34  C   UNL     1      -8.813 -11.545  19.573  0.00  0.00    +0.277 C 
ENDBRANCH  30   5
ENDBRANCH  19  22
ENDBRANCH  13   7
BRANCH  12   6
ATOM      3  O   UNL     1      -6.327  -9.604   5.835  0.00  0.00    -0.272 OA
ATOM      6  N   UNL     1      -5.543 -10.927   7.579  0.00  0.00    -0.305 N 
ATOM     16  C   UNL     1      -5.729 -10.595   6.245  0.00  0.00    +0.251 C 
ATOM     35  H   UNL     1      -4.985 -11.746   7.806  0.00  0.00    +0.149 HD
BRANCH  16  18
ATOM     18  C   UNL     1      -5.099 -11.614   5.319  0.00  0.00    +0.324 C 
BRANCH  18   4
ATOM      4  O   UNL     1      -3.863 -12.057   5.834  0.00  0.00    -0.483 OA
BRANCH   4  23
ATOM     23  C   UNL     1      -3.020 -12.712   4.967  0.00  0.00    +0.121 A 
ATOM     26  C   UNL     1      -2.087 -13.625   5.457  0.00  0.00    +0.045 A 
ATOM     27  C   UNL     1      -3.097 -12.462   3.597  0.00  0.00    +0.045 A 
ATOM     31  C   UNL     1      -1.232 -14.290   4.578  0.00  0.00    +0.004 A 
ATOM     32  C   UNL     1      -2.243 -13.126   2.717  0.00  0.00    +0.004 A 
ATOM     33  C   UNL     1      -1.309 -14.040   3.208  0.00  0.00    +0.000 A 
ENDBRANCH   4  23
ENDBRANCH  18   4
ENDBRANCH  16  18
ENDBRANCH  12   6
TORSDOF 7
ENDMDL
MODEL 3
REMARK VINA RESULT:      -8.0     26.136     29.568
REMARK  Name = 11912819
REMARK  8 active torsions:
REMARK  status: ('A' for Active; 'I' for Inactive)
REMARK    1  A    between atoms: O_4  and  C_18
REMARK    2  A    between atoms: O_4  and  C_23
REMARK    3  A    between atoms: O_5  and  C_30
REMARK    4  A    between atoms: O_5  and  C_34
REMARK    5  A    between atoms: N_6  and  C_12
REMARK    6  A    between atoms: N_7  and  C_13
REMARK    7  A    between atoms: C_16  and  C_18
REMARK    8  A    between atoms: C_19  and  C_22
REMARK                            x       y       z     vdW  Elec       q    Type
REMARK                         _______ _______ _______ _____ _____    ______ ____
ROOT
ATOM      1  O   UNL     1      12.836  12.972  21.242  0.00  0.00    -0.370 OA
ATOM      2  O   UNL     1      12.932  12.438  24.314  0.00  0.00    -0.370 OA
ATOM     10  C   UNL     1      13.579  11.823  23.188  0.00  0.00    +0.171 C 
ATOM     11  C   UNL     1      12.581  11.808  22.047  0.00  0.00    +0.171 C 
ATOM     12  C   UNL     1      14.702  12.701  22.683  0.00  0.00    +0.130 C 
ATOM     13  C   UNL     1      11.238  11.928  22.729  0.00  0.00    +0.130 C 
ATOM     14  C   UNL     1      13.970  13.671  21.772  0.00  0.00    +0.185 C 
ATOM     15  C   UNL     1      11.568  12.728  23.975  0.00  0.00    +0.185 C 
ENDROOT
BRANCH  13   7
ATOM      7  N   UNL     1      10.749  10.616  23.092  0.00  0.00    -0.306 N 
ATOM      8  N   UNL     1      11.525   9.676  21.116  0.00  0.00    -0.214 NA
ATOM      9  N   UNL     1      10.385   8.345  22.769  0.00  0.00    -0.223 NA
ATOM     17  C   UNL     1      10.893   9.496  22.291  0.00  0.00    +0.216 A 
ATOM     19  C   UNL     1      11.647   8.565  20.360  0.00  0.00    +0.076 A 
ATOM     20  C   UNL     1      10.543   7.274  21.963  0.00  0.00    +0.116 A 
ATOM     21  C   UNL     1      11.172   7.325  20.736  0.00  0.00    +0.048 A 
ATOM     36  H   UNL     1      10.321  10.478  24.001  0.00  0.00    +0.149 HD
BRANCH  19  22
ATOM     22  C   UNL     1      12.325   8.753  19.100  0.00  0.00    +0.001 A 
ATOM     24  C   UNL     1      12.885   9.991  18.787  0.00  0.00    +0.013 A 
ATOM     25  C   UNL     1      12.419   7.696  18.192  0.00  0.00    +0.013 A 
ATOM     28  C   UNL     1      13.540  10.174  17.569  0.00  0.00    +0.046 A 
ATOM     29  C   UNL     1      13.072   7.879  16.975  0.00  0.00    +0.046 A 
ATOM     30  C   UNL     1      13.633   9.119  16.662  0.00  0.00    +0.120 A 
BRANCH  30   5
ATOM      5  O   UNL     1      14.273   9.297  15.475  0.00  0.00    -0.495 OA
ATOM     34  C   UNL     1      14.806  10.595  15.213  0.00  0.00    +0.277 C 
ENDBRANCH  30   5
ENDBRANCH  19  22
ENDBRANCH  13   7
BRANCH  12   6
ATOM      3  O   UNL     1      17.370  11.974  23.545  0.00  0.00    -0.272 OA
ATOM      6  N   UNL     1      15.678  11.931  21.951  0.00  0.00    -0.305 N 
ATOM     16  C   UNL     1      16.938  11.631  22.448  0.00  0.00    +0.251 C 
ATOM     35  H   UNL     1      15.405  11.550  21.049  0.00  0.00    +0.149 HD
BRANCH  16  18
ATOM     18  C   UNL     1      17.749  10.811  21.468  0.00  0.00    +0.324 C 
BRANCH  18   4
ATOM      4  O   UNL     1      17.913   9.491  21.937  0.00  0.00    -0.483 OA
BRANCH   4  23
ATOM     23  C   UNL     1      17.463   8.476  21.127  0.00  0.00    +0.121 A 
ATOM     26  C   UNL     1      18.236   7.328  20.953  0.00  0.00    +0.045 A 
ATOM     27  C   UNL     1      16.235   8.593  20.478  0.00  0.00    +0.045 A 
ATOM     31  C   UNL     1      17.781   6.297  20.132  0.00  0.00    +0.004 A 
ATOM     32  C   UNL     1      15.779   7.563  19.656  0.00  0.00    +0.004 A 
ATOM     33  C   UNL     1      16.552   6.414  19.482  0.00  0.00    +0.000 A 
ENDBRANCH   4  23
ENDBRANCH  18   4
ENDBRANCH  16  18
ENDBRANCH  12   6
TORSDOF 7
ENDMDL
MODEL 4
REMARK VINA RESULT:      -7.6     15.564     19.480
REMARK  Name = 11912819
REMARK  8 active torsions:
REMARK  status: ('A' for Active; 'I' for Inactive)
REMARK    1  A    between atoms: O_4  and  C_18
REMARK    2  A    between atoms: O_4  and  C_23
REMARK    3  A    between atoms: O_5  and  C_30
REMARK    4  A    between atoms: O_5  and  C_34
REMARK    5  A    between atoms: N_6  and  C_12
REMARK    6  A    between atoms: N_7  and  C_13
REMARK    7  A    between atoms: C_16  and  C_18
REMARK    8  A    between atoms: C_19  and  C_22
REMARK                            x       y       z     vdW  Elec       q    Type
REMARK                         _______ _______ _______ _____ _____    ______ ____
ROOT
ATOM      1  O   UNL     1     -12.219  -7.924  14.387  0.00  0.00    -0.370 OA
ATOM      2  O   UNL     1     -10.975  -6.322  16.758  0.00  0.00    -0.370 OA
ATOM     10  C   UNL     1     -10.891  -6.190  15.329  0.00  0.00    +0.171 C 
ATOM     11  C   UNL     1     -10.868  -7.590  14.747  0.00  0.00    +0.171 C 
ATOM     12  C   UNL     1     -12.164  -5.585  14.782  0.00  0.00    +0.130 C 
ATOM     13  C   UNL     1     -10.400  -8.458  15.891  0.00  0.00    +0.130 C 
ATOM     14  C   UNL     1     -13.068  -6.797  14.647  0.00  0.00    +0.185 C 
ATOM     15  C   UNL     1     -10.918  -7.712  17.107  0.00  0.00    +0.185 C 
ENDROOT
BRANCH  13   7
ATOM      7  N   UNL     1      -8.955  -8.510  15.914  0.00  0.00    -0.306 N 
ATOM      8  N   UNL     1      -8.946 -10.150  17.558  0.00  0.00    -0.214 NA
ATOM      9  N   UNL     1      -6.892  -9.285  16.645  0.00  0.00    -0.223 NA
ATOM     17  C   UNL     1      -8.233  -9.353  16.742  0.00  0.00    +0.216 A 
ATOM     19  C   UNL     1      -8.211 -10.957  18.351  0.00  0.00    +0.076 A 
ATOM     20  C   UNL     1      -6.219 -10.119  17.466  0.00  0.00    +0.116 A 
ATOM     21  C   UNL     1      -6.831 -10.985  18.348  0.00  0.00    +0.048 A 
ATOM     36  H   UNL     1      -8.426  -7.945  15.260  0.00  0.00    +0.149 HD
BRANCH  19  22
ATOM     22  C   UNL     1      -8.972 -11.815  19.227  0.00  0.00    +0.001 A 
ATOM     24  C   UNL     1     -10.237 -11.420  19.663  0.00  0.00    +0.013 A 
ATOM     25  C   UNL     1      -8.443 -13.039  19.640  0.00  0.00    +0.013 A 
ATOM     28  C   UNL     1     -10.973 -12.248  20.511  0.00  0.00    +0.046 A 
ATOM     29  C   UNL     1      -9.178 -13.865  20.488  0.00  0.00    +0.046 A 
ATOM     30  C   UNL     1     -10.444 -13.470  20.924  0.00  0.00    +0.120 A 
BRANCH  30   5
ATOM      5  O   UNL     1     -11.163 -14.278  21.749  0.00  0.00    -0.495 OA
ATOM     34  C   UNL     1     -12.498 -13.873  22.054  0.00  0.00    +0.277 C 
ENDBRANCH  30   5
ENDBRANCH  19  22
ENDBRANCH  13   7
BRANCH  12   6
ATOM      3  O   UNL     1     -13.855  -3.645  13.451  0.00  0.00    -0.272 OA
ATOM      6  N   UNL     1     -11.936  -4.958  13.503  0.00  0.00    -0.305 N 
ATOM     16  C   UNL     1     -12.808  -4.035  12.942  0.00  0.00    +0.251 C 
ATOM     35  H   UNL     1     -11.069  -5.169  13.016  0.00  0.00    +0.149 HD
BRANCH  16  18
ATOM     18  C   UNL     1     -12.317  -3.543  11.597  0.00  0.00    +0.324 C 
BRANCH  18   4
ATOM      4  O   UNL     1     -12.640  -4.467  10.581  0.00  0.00    -0.483 OA
BRANCH   4  23
ATOM     23  C   UNL     1     -11.593  -5.041   9.899  0.00  0.00    +0.121 A 
ATOM     26  C   UNL     1     -11.472  -6.429   9.846  0.00  0.00    +0.045 A 
ATOM     27  C   UNL     1     -10.651  -4.236   9.260  0.00  0.00    +0.045 A 
ATOM     31  C   UNL     1     -10.411  -7.013   9.155  0.00  0.00    +0.004 A 
ATOM     32  C   UNL     1      -9.589  -4.817   8.568  0.00  0.00    +0.004 A 
ATOM     33  C   UNL     1      -9.468  -6.207   8.515  0.00  0.00    +0.000 A 
ENDBRANCH   4  23
ENDBRANCH  18   4
ENDBRANCH  16  18
ENDBRANCH  12   6
TORSDOF 7
ENDMDL
MODEL 5
REMARK VINA RESULT:      -7.5     30.243     34.189
REMARK  Name = 11912819
REMARK  8 active torsions:
REMARK  status: ('A' for Active; 'I' for Inactive)
REMARK    1  A    between atoms: O_4  and  C_18
REMARK    2  A    between atoms: O_4  and  C_23
REMARK    3  A    between atoms: O_5  and  C_30
REMARK    4  A    between atoms: O_5  and  C_34
REMARK    5  A    between atoms: N_6  and  C_12
REMARK    6  A    between atoms: N_7  and  C_13
REMARK    7  A    between atoms: C_16  and  C_18
REMARK    8  A    between atoms: C_19  and  C_22
REMARK                            x       y       z     vdW  Elec       q    Type
REMARK                         _______ _______ _______ _____ _____    ______ ____
ROOT
ATOM      1  O   UNL     1      13.494   8.339   2.039  0.00  0.00    -0.370 OA
ATOM      2  O   UNL     1      15.429   6.687   3.845  0.00  0.00    -0.370 OA
ATOM     10  C   UNL     1      14.528   6.330   2.782  0.00  0.00    +0.171 C 
ATOM     11  C   UNL     1      13.303   7.214   2.913  0.00  0.00    +0.171 C 
ATOM     12  C   UNL     1      15.118   6.715   1.443  0.00  0.00    +0.130 C 
ATOM     13  C   UNL     1      13.324   7.662   4.356  0.00  0.00    +0.130 C 
ATOM     14  C   UNL     1      14.727   8.177   1.325  0.00  0.00    +0.185 C 
ATOM     15  C   UNL     1      14.806   7.673   4.679  0.00  0.00    +0.185 C 
ENDROOT
BRANCH  13   7
ATOM      7  N   UNL     1      12.639   6.694   5.184  0.00  0.00    -0.306 N 
ATOM      8  N   UNL     1      10.554   7.385   4.431  0.00  0.00    -0.214 NA
ATOM      9  N   UNL     1      10.774   5.608   6.042  0.00  0.00    -0.223 NA
ATOM     17  C   UNL     1      11.261   6.556   5.220  0.00  0.00    +0.216 A 
ATOM     19  C   UNL     1       9.215   7.225   4.491  0.00  0.00    +0.076 A 
ATOM     20  C   UNL     1       9.429   5.500   6.053  0.00  0.00    +0.116 A 
ATOM     21  C   UNL     1       8.591   6.289   5.291  0.00  0.00    +0.048 A 
ATOM     36  H   UNL     1      13.180   6.038   5.736  0.00  0.00    +0.149 HD
BRANCH  19  22
ATOM     22  C   UNL     1       8.452   8.111   3.646  0.00  0.00    +0.001 A 
ATOM     24  C   UNL     1       7.445   8.903   4.197  0.00  0.00    +0.013 A 
ATOM     25  C   UNL     1       8.720   8.174   2.277  0.00  0.00    +0.013 A 
ATOM     28  C   UNL     1       6.706   9.760   3.380  0.00  0.00    +0.046 A 
ATOM     29  C   UNL     1       7.981   9.030   1.462  0.00  0.00    +0.046 A 
ATOM     30  C   UNL     1       6.973   9.823   2.013  0.00  0.00    +0.120 A 
BRANCH  30   5
ATOM      5  O   UNL     1       6.254  10.660   1.218  0.00  0.00    -0.495 OA
ATOM     34  C   UNL     1       6.239  10.374  -0.181  0.00  0.00    +0.277 C 
ENDBRANCH  30   5
ENDBRANCH  19  22
ENDBRANCH  13   7
BRANCH  12   6
ATOM      3  O   UNL     1      15.922   4.070   0.575  0.00  0.00    -0.272 OA
ATOM      6  N   UNL     1      14.542   5.932   0.376  0.00  0.00    -0.305 N 
ATOM     16  C   UNL     1      14.997   4.668   0.031  0.00  0.00    +0.251 C 
ATOM     35  H   UNL     1      13.733   6.310  -0.109  0.00  0.00    +0.149 HD
BRANCH  16  18
ATOM     18  C   UNL     1      14.210   4.083  -1.122  0.00  0.00    +0.324 C 
BRANCH  18   4
ATOM      4  O   UNL     1      13.246   3.166  -0.653  0.00  0.00    -0.483 OA
BRANCH   4  23
ATOM     23  C   UNL     1      12.318   3.635   0.246  0.00  0.00    +0.121 A 
ATOM     26  C   UNL     1      11.261   4.431  -0.195  0.00  0.00    +0.045 A 
ATOM     27  C   UNL     1      12.433   3.317   1.598  0.00  0.00    +0.045 A 
ATOM     31  C   UNL     1      10.318   4.908   0.716  0.00  0.00    +0.004 A 
ATOM     32  C   UNL     1      11.492   3.793   2.510  0.00  0.00    +0.004 A 
ATOM     33  C   UNL     1      10.434   4.590   2.070  0.00  0.00    +0.000 A 
ENDBRANCH   4  23
ENDBRANCH  18   4
ENDBRANCH  16  18
ENDBRANCH  12   6
TORSDOF 7
ENDMDL
MODEL 6
REMARK VINA RESULT:      -7.4     20.529     22.505
REMARK  Name = 11912819
REMARK  8 active torsions:
REMARK  status: ('A' for Active; 'I' for Inactive)
REMARK    1  A    between atoms: O_4  and  C_18
REMARK    2  A    between atoms: O_4  and  C_23
REMARK    3  A    between atoms: O_5  and  C_30
REMARK    4  A    between atoms: O_5  and  C_34
REMARK    5  A    between atoms: N_6  and  C_12
REMARK    6  A    between atoms: N_7  and  C_13
REMARK    7  A    between atoms: C_16  and  C_18
REMARK    8  A    between atoms: C_19  and  C_22
REMARK                            x       y       z     vdW  Elec       q    Type
REMARK                         _______ _______ _______ _____ _____    ______ ____
ROOT
ATOM      1  O   UNL     1      -5.039 -11.713  10.033  0.00  0.00    -0.370 OA
ATOM      2  O   UNL     1      -3.760  -8.869   9.922  0.00  0.00    -0.370 OA
ATOM     10  C   UNL     1      -4.373  -9.633  10.975  0.00  0.00    +0.171 C 
ATOM     11  C   UNL     1      -5.527 -10.401  10.362  0.00  0.00    +0.171 C 
ATOM     12  C   UNL     1      -3.429 -10.710  11.459  0.00  0.00    +0.130 C 
ATOM     13  C   UNL     1      -5.855  -9.633   9.103  0.00  0.00    +0.130 C 
ATOM     14  C   UNL     1      -3.676 -11.829  10.463  0.00  0.00    +0.185 C 
ATOM     15  C   UNL     1      -4.511  -9.045   8.713  0.00  0.00    +0.185 C 
ENDROOT
BRANCH  13   7
ATOM      7  N   UNL     1      -6.797  -8.576   9.399  0.00  0.00    -0.306 N 
ATOM      8  N   UNL     1      -7.549  -8.501   7.204  0.00  0.00    -0.214 NA
ATOM      9  N   UNL     1      -8.461  -7.039   8.887  0.00  0.00    -0.223 NA
ATOM     17  C   UNL     1      -7.639  -8.015   8.455  0.00  0.00    +0.216 A 
ATOM     19  C   UNL     1      -8.383  -7.932   6.309  0.00  0.00    +0.076 A 
ATOM     20  C   UNL     1      -9.268  -6.514   7.941  0.00  0.00    +0.116 A 
ATOM     21  C   UNL     1      -9.273  -6.925   6.624  0.00  0.00    +0.048 A 
ATOM     36  H   UNL     1      -6.897  -8.251  10.354  0.00  0.00    +0.149 HD
BRANCH  19  22
ATOM     22  C   UNL     1      -8.289  -8.451   4.966  0.00  0.00    +0.001 A 
ATOM     24  C   UNL     1      -7.756  -9.721   4.746  0.00  0.00    +0.013 A 
ATOM     25  C   UNL     1      -8.731  -7.683   3.887  0.00  0.00    +0.013 A 
ATOM     28  C   UNL     1      -7.664 -10.224   3.448  0.00  0.00    +0.046 A 
ATOM     29  C   UNL     1      -8.639  -8.186   2.590  0.00  0.00    +0.046 A 
ATOM     30  C   UNL     1      -8.105  -9.456   2.370  0.00  0.00    +0.120 A 
BRANCH  30   5
ATOM      5  O   UNL     1      -8.018  -9.948   1.105  0.00  0.00    -0.495 OA
ATOM     34  C   UNL     1      -8.982  -9.485   0.159  0.00  0.00    +0.277 C 
ENDBRANCH  30   5
ENDBRANCH  19  22
ENDBRANCH  13   7
BRANCH  12   6
ATOM      3  O   UNL     1      -1.929 -10.170  13.878  0.00  0.00    -0.272 OA
ATOM      6  N   UNL     1      -3.756 -11.125  12.802  0.00  0.00    -0.305 N 
ATOM     16  C   UNL     1      -2.972 -10.817  13.905  0.00  0.00    +0.251 C 
ATOM     35  H   UNL     1      -4.631 -11.623  12.948  0.00  0.00    +0.149 HD
BRANCH  16  18
ATOM     18  C   UNL     1      -3.555 -11.379  15.184  0.00  0.00    +0.324 C 
BRANCH  18   4
ATOM      4  O   UNL     1      -4.270 -10.385  15.885  0.00  0.00    -0.483 OA
BRANCH   4  23
ATOM     23  C   UNL     1      -4.756 -10.718  17.127  0.00  0.00    +0.121 A 
ATOM     26  C   UNL     1      -6.013 -10.268  17.528  0.00  0.00    +0.045 A 
ATOM     27  C   UNL     1      -3.991 -11.506  17.987  0.00  0.00    +0.045 A 
ATOM     31  C   UNL     1      -6.507 -10.606  18.788  0.00  0.00    +0.004 A 
ATOM     32  C   UNL     1      -4.484 -11.844  19.247  0.00  0.00    +0.004 A 
ATOM     33  C   UNL     1      -5.742 -11.394  19.648  0.00  0.00    +0.000 A 
ENDBRANCH   4  23
ENDBRANCH  18   4
ENDBRANCH  16  18
ENDBRANCH  12   6
TORSDOF 7
ENDMDL
MODEL 7
REMARK VINA RESULT:      -7.3     18.552     20.507
REMARK  Name = 11912819
REMARK  8 active torsions:
REMARK  status: ('A' for Active; 'I' for Inactive)
REMARK    1  A    between atoms: O_4  and  C_18
REMARK    2  A    between atoms: O_4  and  C_23
REMARK    3  A    between atoms: O_5  and  C_30
REMARK    4  A    between atoms: O_5  and  C_34
REMARK    5  A    between atoms: N_6  and  C_12
REMARK    6  A    between atoms: N_7  and  C_13
REMARK    7  A    between atoms: C_16  and  C_18
REMARK    8  A    between atoms: C_19  and  C_22
REMARK                            x       y       z     vdW  Elec       q    Type
REMARK                         _______ _______ _______ _____ _____    ______ ____
ROOT
ATOM      1  O   UNL     1      -7.055 -12.120  15.788  0.00  0.00    -0.370 OA
ATOM      2  O   UNL     1      -6.101 -12.054  18.758  0.00  0.00    -0.370 OA
ATOM     10  C   UNL     1      -6.535 -11.036  17.841  0.00  0.00    +0.171 C 
ATOM     11  C   UNL     1      -6.007 -11.410  16.469  0.00  0.00    +0.171 C 
ATOM     12  C   UNL     1      -8.038 -11.079  17.680  0.00  0.00    +0.130 C 
ATOM     13  C   UNL     1      -4.849 -12.336  16.759  0.00  0.00    +0.130 C 
ATOM     14  C   UNL     1      -8.221 -12.153  16.623  0.00  0.00    +0.185 C 
ATOM     15  C   UNL     1      -5.265 -12.990  18.064  0.00  0.00    +0.185 C 
ENDROOT
BRANCH  13   7
ATOM      7  N   UNL     1      -3.637 -11.569  16.949  0.00  0.00    -0.306 N 
ATOM      8  N   UNL     1      -3.354 -11.273  14.664  0.00  0.00    -0.214 NA
ATOM      9  N   UNL     1      -1.792 -10.347  16.246  0.00  0.00    -0.223 NA
ATOM     17  C   UNL     1      -2.895 -11.040  15.907  0.00  0.00    +0.216 A 
ATOM     19  C   UNL     1      -2.607 -10.744  13.673  0.00  0.00    +0.076 A 
ATOM     20  C   UNL     1      -1.092  -9.846  15.207  0.00  0.00    +0.116 A 
ATOM     21  C   UNL     1      -1.455 -10.014  13.887  0.00  0.00    +0.048 A 
ATOM     36  H   UNL     1      -3.327 -11.352  17.890  0.00  0.00    +0.149 HD
BRANCH  19  22
ATOM     22  C   UNL     1      -3.095 -10.991  12.337  0.00  0.00    +0.001 A 
ATOM     24  C   UNL     1      -3.431  -9.920  11.509  0.00  0.00    +0.013 A 
ATOM     25  C   UNL     1      -3.233 -12.301  11.875  0.00  0.00    +0.013 A 
ATOM     28  C   UNL     1      -3.905 -10.158  10.219  0.00  0.00    +0.046 A 
ATOM     29  C   UNL     1      -3.707 -12.538  10.585  0.00  0.00    +0.046 A 
ATOM     30  C   UNL     1      -4.043 -11.466   9.757  0.00  0.00    +0.120 A 
BRANCH  30   5
ATOM      5  O   UNL     1      -4.503 -11.698   8.497  0.00  0.00    -0.495 OA
ATOM     34  C   UNL     1      -5.545 -10.847   8.020  0.00  0.00    +0.277 C 
ENDBRANCH  30   5
ENDBRANCH  19  22
ENDBRANCH  13   7
BRANCH  12   6
ATOM      3  O   UNL     1     -10.427  -9.724  18.601  0.00  0.00    -0.272 OA
ATOM      6  N   UNL     1      -8.551  -9.808  17.229  0.00  0.00    -0.305 N 
ATOM     16  C   UNL     1      -9.711  -9.235  17.732  0.00  0.00    +0.251 C 
ATOM     35  H   UNL     1      -8.005  -9.289  16.546  0.00  0.00    +0.149 HD
BRANCH  16  18
ATOM     18  C   UNL     1     -10.009  -7.903  17.077  0.00  0.00    +0.324 C 
BRANCH  18   4
ATOM      4  O   UNL     1     -11.374  -7.575  17.215  0.00  0.00    -0.483 OA
BRANCH   4  23
ATOM     23  C   UNL     1     -11.966  -6.900  16.173  0.00  0.00    +0.121 A 
ATOM     26  C   UNL     1     -13.340  -7.010  15.963  0.00  0.00    +0.045 A 
ATOM     27  C   UNL     1     -11.193  -6.107  15.327  0.00  0.00    +0.045 A 
ATOM     31  C   UNL     1     -13.942  -6.326  14.907  0.00  0.00    +0.004 A 
ATOM     32  C   UNL     1     -11.794  -5.422  14.271  0.00  0.00    +0.004 A 
ATOM     33  C   UNL     1     -13.169  -5.532  14.060  0.00  0.00    +0.000 A 
ENDBRANCH   4  23
ENDBRANCH  18   4
ENDBRANCH  16  18
ENDBRANCH  12   6
TORSDOF 7
ENDMDL
MODEL 8
REMARK VINA RESULT:      -7.2     16.878     19.317
REMARK  Name = 11912819
REMARK  8 active torsions:
REMARK  status: ('A' for Active; 'I' for Inactive)
REMARK    1  A    between atoms: O_4  and  C_18
REMARK    2  A    between atoms: O_4  and  C_23
REMARK    3  A    between atoms: O_5  and  C_30
REMARK    4  A    between atoms: O_5  and  C_34
REMARK    5  A    between atoms: N_6  and  C_12
REMARK    6  A    between atoms: N_7  and  C_13
REMARK    7  A    between atoms: C_16  and  C_18
REMARK    8  A    between atoms: C_19  and  C_22
REMARK                            x       y       z     vdW  Elec       q    Type
REMARK                         _______ _______ _______ _____ _____    ______ ____
ROOT
ATOM      1  O   UNL     1     -10.035  -9.523  14.183  0.00  0.00    -0.370 OA
ATOM      2  O   UNL     1     -11.740 -11.367  16.034  0.00  0.00    -0.370 OA
ATOM     10  C   UNL     1     -11.532  -9.946  15.983  0.00  0.00    +0.171 C 
ATOM     11  C   UNL     1     -10.081  -9.716  15.607  0.00  0.00    +0.171 C 
ATOM     12  C   UNL     1     -12.309  -9.342  14.836  0.00  0.00    +0.130 C 
ATOM     13  C   UNL     1      -9.393 -11.008  15.982  0.00  0.00    +0.130 C 
ATOM     14  C   UNL     1     -11.371  -9.552  13.661  0.00  0.00    +0.185 C 
ATOM     15  C   UNL     1     -10.493 -12.036  15.799  0.00  0.00    +0.185 C 
ENDROOT
BRANCH  13   7
ATOM      7  N   UNL     1      -8.977 -10.962  17.367  0.00  0.00    -0.306 N 
ATOM      8  N   UNL     1      -6.732 -10.837  16.786  0.00  0.00    -0.214 NA
ATOM      9  N   UNL     1      -7.427 -10.841  19.093  0.00  0.00    -0.223 NA
ATOM     17  C   UNL     1      -7.654 -10.876  17.766  0.00  0.00    +0.216 A 
ATOM     19  C   UNL     1      -5.454 -10.754  17.210  0.00  0.00    +0.076 A 
ATOM     20  C   UNL     1      -6.128 -10.757  19.447  0.00  0.00    +0.116 A 
ATOM     21  C   UNL     1      -5.089 -10.710  18.541  0.00  0.00    +0.048 A 
ATOM     36  H   UNL     1      -9.679 -10.938  18.098  0.00  0.00    +0.149 HD
BRANCH  19  22
ATOM     22  C   UNL     1      -4.462 -10.711  16.163  0.00  0.00    +0.001 A 
ATOM     24  C   UNL     1      -3.105 -10.701  16.489  0.00  0.00    +0.013 A 
ATOM     25  C   UNL     1      -4.858 -10.678  14.825  0.00  0.00    +0.013 A 
ATOM     28  C   UNL     1      -2.145 -10.658  15.477  0.00  0.00    +0.046 A 
ATOM     29  C   UNL     1      -3.899 -10.635  13.815  0.00  0.00    +0.046 A 
ATOM     30  C   UNL     1      -2.542 -10.625  14.141  0.00  0.00    +0.120 A 
BRANCH  30   5
ATOM      5  O   UNL     1      -1.605 -10.585  13.155  0.00  0.00    -0.495 OA
ATOM     34  C   UNL     1      -2.062 -10.286  11.836  0.00  0.00    +0.277 C 
ENDBRANCH  30   5
ENDBRANCH  19  22
ENDBRANCH  13   7
BRANCH  12   6
ATOM      3  O   UNL     1     -14.557  -7.787  13.874  0.00  0.00    -0.272 OA
ATOM      6  N   UNL     1     -12.561  -7.938  15.059  0.00  0.00    -0.305 N 
ATOM     16  C   UNL     1     -13.672  -7.276  14.554  0.00  0.00    +0.251 C 
ATOM     35  H   UNL     1     -11.917  -7.427  15.656  0.00  0.00    +0.149 HD
BRANCH  16  18
ATOM     18  C   UNL     1     -13.679  -5.813  14.944  0.00  0.00    +0.324 C 
BRANCH  18   4
ATOM      4  O   UNL     1     -12.722  -5.094  14.196  0.00  0.00    -0.483 OA
BRANCH   4  23
ATOM     23  C   UNL     1     -13.170  -4.422  13.084  0.00  0.00    +0.121 A 
ATOM     26  C   UNL     1     -14.462  -3.897  13.059  0.00  0.00    +0.045 A 
ATOM     27  C   UNL     1     -12.334  -4.266  11.979  0.00  0.00    +0.045 A 
ATOM     31  C   UNL     1     -14.917  -3.215  11.931  0.00  0.00    +0.004 A 
ATOM     32  C   UNL     1     -12.788  -3.585  10.850  0.00  0.00    +0.004 A 
ATOM     33  C   UNL     1     -14.080  -3.059  10.826  0.00  0.00    +0.000 A 
ENDBRANCH   4  23
ENDBRANCH  18   4
ENDBRANCH  16  18
ENDBRANCH  12   6
TORSDOF 7
ENDMDL
MODEL 9
REMARK VINA RESULT:      -7.2     26.775     30.448
REMARK  Name = 11912819
REMARK  8 active torsions:
REMARK  status: ('A' for Active; 'I' for Inactive)
REMARK    1  A    between atoms: O_4  and  C_18
REMARK    2  A    between atoms: O_4  and  C_23
REMARK    3  A    between atoms: O_5  and  C_30
REMARK    4  A    between atoms: O_5  and  C_34
REMARK    5  A    between atoms: N_6  and  C_12
REMARK    6  A    between atoms: N_7  and  C_13
REMARK    7  A    between atoms: C_16  and  C_18
REMARK    8  A    between atoms: C_19  and  C_22
REMARK                            x       y       z     vdW  Elec       q    Type
REMARK                         _______ _______ _______ _____ _____    ______ ____
ROOT
ATOM      1  O   UNL     1      -2.007 -14.422   4.898  0.00  0.00    -0.370 OA
ATOM      2  O   UNL     1      -4.520 -15.390   3.322  0.00  0.00    -0.370 OA
ATOM     10  C   UNL     1      -3.430 -14.511   2.994  0.00  0.00    +0.171 C 
ATOM     11  C   UNL     1      -3.087 -13.731   4.248  0.00  0.00    +0.171 C 
ATOM     12  C   UNL     1      -2.180 -15.310   2.704  0.00  0.00    +0.130 C 
ATOM     13  C   UNL     1      -4.341 -13.811   5.088  0.00  0.00    +0.130 C 
ATOM     14  C   UNL     1      -1.614 -15.543   4.093  0.00  0.00    +0.185 C 
ATOM     15  C   UNL     1      -4.933 -15.146   4.673  0.00  0.00    +0.185 C 
ENDROOT
BRANCH  13   7
ATOM      7  N   UNL     1      -5.240 -12.734   4.738  0.00  0.00    -0.306 N 
ATOM      8  N   UNL     1      -4.821 -11.612   6.727  0.00  0.00    -0.214 NA
ATOM      9  N   UNL     1      -6.342 -10.720   5.086  0.00  0.00    -0.223 NA
ATOM     17  C   UNL     1      -5.478 -11.641   5.553  0.00  0.00    +0.216 A 
ATOM     19  C   UNL     1      -5.077 -10.534   7.497  0.00  0.00    +0.076 A 
ATOM     20  C   UNL     1      -6.551  -9.668   5.905  0.00  0.00    +0.116 A 
ATOM     21  C   UNL     1      -5.940  -9.520   7.133  0.00  0.00    +0.048 A 
ATOM     36  H   UNL     1      -5.690 -12.736   3.830  0.00  0.00    +0.149 HD
BRANCH  19  22
ATOM     22  C   UNL     1      -4.374 -10.499   8.757  0.00  0.00    +0.001 A 
ATOM     24  C   UNL     1      -4.134 -11.683   9.454  0.00  0.00    +0.013 A 
ATOM     25  C   UNL     1      -3.936  -9.281   9.279  0.00  0.00    +0.013 A 
ATOM     28  C   UNL     1      -3.456 -11.650  10.673  0.00  0.00    +0.046 A 
ATOM     29  C   UNL     1      -3.259  -9.248  10.497  0.00  0.00    +0.046 A 
ATOM     30  C   UNL     1      -3.019 -10.434  11.195  0.00  0.00    +0.120 A 
BRANCH  30   5
ATOM      5  O   UNL     1      -2.356 -10.403  12.382  0.00  0.00    -0.495 OA
ATOM     34  C   UNL     1      -2.259 -11.630  13.105  0.00  0.00    +0.277 C 
ENDBRANCH  30   5
ENDBRANCH  19  22
ENDBRANCH  13   7
BRANCH  12   6
ATOM      3  O   UNL     1      -0.058 -16.360   1.034  0.00  0.00    -0.272 OA
ATOM      6  N   UNL     1      -1.260 -14.560   1.884  0.00  0.00    -0.305 N 
ATOM     16  C   UNL     1      -0.270 -15.153   1.114  0.00  0.00    +0.251 C 
ATOM     35  H   UNL     1      -1.380 -13.551   1.833  0.00  0.00    +0.149 HD
BRANCH  16  18
ATOM     18  C   UNL     1       0.546 -14.127   0.358  0.00  0.00    +0.324 C 
BRANCH  18   4
ATOM      4  O   UNL     1       1.651 -13.704   1.126  0.00  0.00    -0.483 OA
BRANCH   4  23
ATOM     23  C   UNL     1       2.885 -14.198   0.776  0.00  0.00    +0.121 A 
ATOM     26  C   UNL     1       3.434 -15.269   1.480  0.00  0.00    +0.045 A 
ATOM     27  C   UNL     1       3.590 -13.627  -0.284  0.00  0.00    +0.045 A 
ATOM     31  C   UNL     1       4.686 -15.770   1.125  0.00  0.00    +0.004 A 
ATOM     32  C   UNL     1       4.842 -14.128  -0.640  0.00  0.00    +0.004 A 
ATOM     33  C   UNL     1       5.391 -15.200   0.065  0.00  0.00    +0.000 A 
ENDBRANCH   4  23
ENDBRANCH  18   4
ENDBRANCH  16  18
ENDBRANCH  12   6
TORSDOF 7
ENDMDL
MODEL 10
REMARK VINA RESULT:      -7.0     27.587     33.333
REMARK  Name = 11912819
REMARK  8 active torsions:
REMARK  status: ('A' for Active; 'I' for Inactive)
REMARK    1  A    between atoms: O_4  and  C_18
REMARK    2  A    between atoms: O_4  and  C_23
REMARK    3  A    between atoms: O_5  and  C_30
REMARK    4  A    between atoms: O_5  and  C_34
REMARK    5  A    between atoms: N_6  and  C_12
REMARK    6  A    between atoms: N_7  and  C_13
REMARK    7  A    between atoms: C_16  and  C_18
REMARK    8  A    between atoms: C_19  and  C_22
REMARK                            x       y       z     vdW  Elec       q    Type
REMARK                         _______ _______ _______ _____ _____    ______ ____
ROOT
ATOM      1  O   UNL     1      10.930   5.674   5.972  0.00  0.00    -0.370 OA
ATOM      2  O   UNL     1      10.435   7.984   3.934  0.00  0.00    -0.370 OA
ATOM     10  C   UNL     1      11.365   6.889   3.973  0.00  0.00    +0.171 C 
ATOM     11  C   UNL     1      11.775   6.698   5.421  0.00  0.00    +0.171 C 
ATOM     12  C   UNL     1      10.670   5.595   3.614  0.00  0.00    +0.130 C 
ATOM     13  C   UNL     1      11.476   8.029   6.068  0.00  0.00    +0.130 C 
ATOM     14  C   UNL     1      10.067   5.171   4.942  0.00  0.00    +0.185 C 
ATOM     15  C   UNL     1      10.306   8.542   5.249  0.00  0.00    +0.185 C 
ENDROOT
BRANCH  13   7
ATOM      7  N   UNL     1      12.611   8.914   5.928  0.00  0.00    -0.306 N 
ATOM      8  N   UNL     1      11.944  10.210   7.736  0.00  0.00    -0.214 NA
ATOM      9  N   UNL     1      13.946  10.726   6.500  0.00  0.00    -0.223 NA
ATOM     17  C   UNL     1      12.844   9.998   6.758  0.00  0.00    +0.216 A 
ATOM     19  C   UNL     1      12.201  11.274   8.525  0.00  0.00    +0.076 A 
ATOM     20  C   UNL     1      14.143  11.775   7.327  0.00  0.00    +0.116 A 
ATOM     21  C   UNL     1      13.296  12.099   8.366  0.00  0.00    +0.048 A 
ATOM     36  H   UNL     1      13.312   8.717   5.223  0.00  0.00    +0.149 HD
BRANCH  19  22
ATOM     22  C   UNL     1      11.239  11.505   9.575  0.00  0.00    +0.001 A 
ATOM     24  C   UNL     1       9.893  11.207   9.365  0.00  0.00    +0.013 A 
ATOM     25  C   UNL     1      11.655  12.029  10.801  0.00  0.00    +0.013 A 
ATOM     28  C   UNL     1       8.962  11.431  10.380  0.00  0.00    +0.046 A 
ATOM     29  C   UNL     1      10.724  12.253  11.814  0.00  0.00    +0.046 A 
ATOM     30  C   UNL     1       9.377  11.955  11.604  0.00  0.00    +0.120 A 
BRANCH  30   5
ATOM      5  O   UNL     1       8.469  12.171  12.594  0.00  0.00    -0.495 OA
ATOM     34  C   UNL     1       8.817  13.124  13.598  0.00  0.00    +0.277 C 
ENDBRANCH  30   5
ENDBRANCH  19  22
ENDBRANCH  13   7
BRANCH  12   6
ATOM      3  O   UNL     1      10.456   3.994   1.209  0.00  0.00    -0.272 OA
ATOM      6  N   UNL     1      11.611   4.614   3.130  0.00  0.00    -0.305 N 
ATOM     16  C   UNL     1      11.421   3.892   1.961  0.00  0.00    +0.251 C 
ATOM     35  H   UNL     1      12.476   4.486   3.649  0.00  0.00    +0.149 HD
BRANCH  16  18
ATOM     18  C   UNL     1      12.566   2.936   1.699  0.00  0.00    +0.324 C 
BRANCH  18   4
ATOM      4  O   UNL     1      13.801   3.617   1.727  0.00  0.00    -0.483 OA
BRANCH   4  23
ATOM     23  C   UNL     1      14.399   3.884   0.519  0.00  0.00    +0.121 A 
ATOM     26  C   UNL     1      15.781   4.055   0.447  0.00  0.00    +0.045 A 
ATOM     27  C   UNL     1      13.624   3.986  -0.636  0.00  0.00    +0.045 A 
ATOM     31  C   UNL     1      16.389   4.326  -0.779  0.00  0.00    +0.004 A 
ATOM     32  C   UNL     1      14.230   4.257  -1.862  0.00  0.00    +0.004 A 
ATOM     33  C   UNL     1      15.613   4.427  -1.934  0.00  0.00    +0.000 A 
ENDBRANCH   4  23
ENDBRANCH  18   4
ENDBRANCH  16  18
ENDBRANCH  12   6
TORSDOF 7
ENDMDL
