MODEL 1
REMARK VINA RESULT:      -6.9      0.000      0.000
REMARK  Name = 51137402
REMARK  4 active torsions:
REMARK  status: ('A' for Active; 'I' for Inactive)
REMARK    1  A    between atoms: N_3  and  C_6
REMARK    2  A    between atoms: C_7  and  C_15
REMARK    3  A    between atoms: C_16  and  C_17
REMARK    4  A    between atoms: C_17  and  C_18
REMARK                            x       y       z     vdW  Elec       q    Type
REMARK                         _______ _______ _______ _____ _____    ______ ____
ROOT
ATOM      2  O   UNL     1      13.835   7.762  20.317  0.00  0.00    -0.424 OA
ATOM      4  N   UNL     1      13.672   8.388  18.176  0.00  0.00    -0.112 NA
ATOM      5  N   UNL     1      14.723   7.496  18.282  0.00  0.00    -0.112 NA
ATOM     15  C   UNL     1      13.183   8.513  19.387  0.00  0.00    +0.222 A 
ATOM     16  C   UNL     1      14.781   7.157  19.549  0.00  0.00    +0.222 A 
ENDROOT
BRANCH  15   7
ATOM      3  N   UNL     1      11.323  10.699  21.664  0.00  0.00    -0.298 NA
ATOM      7  C   UNL     1      12.026   9.354  19.878  0.00  0.00    +0.092 C 
ATOM      8  C   UNL     1      12.471  10.517  20.774  0.00  0.00    +0.097 C 
ATOM      9  C   UNL     1      10.916   9.344  22.038  0.00  0.00    +0.085 C 
ATOM     10  C   UNL     1      10.984   8.593  20.716  0.00  0.00    +0.029 C 
BRANCH   3   6
ATOM      1  O   UNL     1      12.515  11.696  25.564  0.00  0.00    -0.380 OA
ATOM      6  C   UNL     1      11.643  11.525  22.826  0.00  0.00    +0.061 C 
ATOM     11  C   UNL     1      13.110  11.360  23.233  0.00  0.00    +0.047 C 
ATOM     12  C   UNL     1      10.730  11.166  24.002  0.00  0.00    +0.047 C 
ATOM     13  C   UNL     1      13.392  12.123  24.523  0.00  0.00    +0.161 C 
ATOM     14  C   UNL     1      11.143  11.939  25.250  0.00  0.00    +0.161 C 
ENDBRANCH   3   6
ENDBRANCH  15   7
BRANCH  16  17
ATOM     17  C   UNL     1      15.700   6.237  20.230  0.00  0.00    +0.132 C 
BRANCH  17  18
ATOM     18  C   UNL     1      17.044   6.847  20.615  0.00  0.00    -0.038 A 
ATOM     19  C   UNL     1      17.094   8.121  21.182  0.00  0.00    +0.004 A 
ATOM     20  C   UNL     1      18.222   6.133  20.400  0.00  0.00    +0.004 A 
ATOM     21  C   UNL     1      18.323   8.679  21.535  0.00  0.00    +0.000 A 
ATOM     22  C   UNL     1      19.450   6.691  20.752  0.00  0.00    +0.000 A 
ATOM     23  C   UNL     1      19.501   7.964  21.320  0.00  0.00    +0.000 A 
ENDBRANCH  17  18
ENDBRANCH  16  17
TORSDOF 4
ENDMDL
MODEL 2
REMARK VINA RESULT:      -6.5      1.578      2.272
REMARK  Name = 51137402
REMARK  4 active torsions:
REMARK  status: ('A' for Active; 'I' for Inactive)
REMARK    1  A    between atoms: N_3  and  C_6
REMARK    2  A    between atoms: C_7  and  C_15
REMARK    3  A    between atoms: C_16  and  C_17
REMARK    4  A    between atoms: C_17  and  C_18
REMARK                            x       y       z     vdW  Elec       q    Type
REMARK                         _______ _______ _______ _____ _____    ______ ____
ROOT
ATOM      2  O   UNL     1      12.882   8.754  19.796  0.00  0.00    -0.424 OA
ATOM      4  N   UNL     1      11.448   7.102  20.265  0.00  0.00    -0.112 NA
ATOM      5  N   UNL     1      12.486   6.569  19.523  0.00  0.00    -0.112 NA
ATOM     15  C   UNL     1      11.721   8.379  20.399  0.00  0.00    +0.222 A 
ATOM     16  C   UNL     1      13.299   7.569  19.272  0.00  0.00    +0.222 A 
ENDROOT
BRANCH  15   7
ATOM      3  N   UNL     1      11.200  11.370  22.451  0.00  0.00    -0.298 NA
ATOM      7  C   UNL     1      10.944   9.460  21.115  0.00  0.00    +0.092 C 
ATOM      8  C   UNL     1      11.712  10.785  21.210  0.00  0.00    +0.097 C 
ATOM      9  C   UNL     1      11.151  10.257  23.400  0.00  0.00    +0.085 C 
ATOM     10  C   UNL     1      10.561   9.127  22.568  0.00  0.00    +0.029 C 
BRANCH   3   6
ATOM      1  O   UNL     1      14.585  13.415  23.860  0.00  0.00    -0.380 OA
ATOM      6  C   UNL     1      12.029  12.474  22.931  0.00  0.00    +0.061 C 
ATOM     11  C   UNL     1      13.202  12.737  21.981  0.00  0.00    +0.047 C 
ATOM     12  C   UNL     1      12.550  12.176  24.339  0.00  0.00    +0.047 C 
ATOM     13  C   UNL     1      14.127  13.799  22.564  0.00  0.00    +0.161 C 
ATOM     14  C   UNL     1      13.513  13.269  24.791  0.00  0.00    +0.161 C 
ENDBRANCH   3   6
ENDBRANCH  15   7
BRANCH  16  17
ATOM     17  C   UNL     1      14.563   7.582  18.526  0.00  0.00    +0.132 C 
BRANCH  17  18
ATOM     18  C   UNL     1      15.799   7.265  19.361  0.00  0.00    -0.038 A 
ATOM     19  C   UNL     1      16.590   6.160  19.044  0.00  0.00    +0.004 A 
ATOM     20  C   UNL     1      16.139   8.079  20.441  0.00  0.00    +0.004 A 
ATOM     21  C   UNL     1      17.721   5.871  19.808  0.00  0.00    +0.000 A 
ATOM     22  C   UNL     1      17.270   7.788  21.204  0.00  0.00    +0.000 A 
ATOM     23  C   UNL     1      18.061   6.684  20.888  0.00  0.00    +0.000 A 
ENDBRANCH  17  18
ENDBRANCH  16  17
TORSDOF 4
ENDMDL
MODEL 3
REMARK VINA RESULT:      -6.5      1.989      6.436
REMARK  Name = 51137402
REMARK  4 active torsions:
REMARK  status: ('A' for Active; 'I' for Inactive)
REMARK    1  A    between atoms: N_3  and  C_6
REMARK    2  A    between atoms: C_7  and  C_15
REMARK    3  A    between atoms: C_16  and  C_17
REMARK    4  A    between atoms: C_17  and  C_18
REMARK                            x       y       z     vdW  Elec       q    Type
REMARK                         _______ _______ _______ _____ _____    ______ ____
ROOT
ATOM      2  O   UNL     1      12.320   8.362  21.627  0.00  0.00    -0.424 OA
ATOM      4  N   UNL     1      10.936   6.645  21.250  0.00  0.00    -0.112 NA
ATOM      5  N   UNL     1      10.313   7.510  22.129  0.00  0.00    -0.112 NA
ATOM     15  C   UNL     1      12.104   7.182  20.984  0.00  0.00    +0.222 A 
ATOM     16  C   UNL     1      11.157   8.498  22.321  0.00  0.00    +0.222 A 
ENDROOT
BRANCH  15   7
ATOM      3  N   UNL     1      15.486   6.971  19.588  0.00  0.00    -0.298 NA
ATOM      7  C   UNL     1      13.212   6.683  20.085  0.00  0.00    +0.092 C 
ATOM      8  C   UNL     1      14.599   6.776  20.737  0.00  0.00    +0.097 C 
ATOM      9  C   UNL     1      14.794   7.941  18.738  0.00  0.00    +0.085 C 
ATOM     10  C   UNL     1      13.356   7.441  18.754  0.00  0.00    +0.029 C 
BRANCH   3   6
ATOM      1  O   UNL     1      18.902   7.526  21.964  0.00  0.00    -0.380 OA
ATOM      6  C   UNL     1      16.817   7.426  19.982  0.00  0.00    +0.061 C 
ATOM     11  C   UNL     1      17.747   6.241  20.256  0.00  0.00    +0.047 C 
ATOM     12  C   UNL     1      16.728   8.321  21.222  0.00  0.00    +0.047 C 
ATOM     13  C   UNL     1      19.087   6.732  20.794  0.00  0.00    +0.161 C 
ATOM     14  C   UNL     1      18.125   8.696  21.707  0.00  0.00    +0.161 C 
ENDBRANCH   3   6
ENDBRANCH  15   7
BRANCH  16  17
ATOM     17  C   UNL     1      11.018   9.697  23.156  0.00  0.00    +0.132 C 
BRANCH  17  18
ATOM     18  C   UNL     1      11.829  10.900  22.685  0.00  0.00    -0.038 A 
ATOM     19  C   UNL     1      11.369  11.676  21.621  0.00  0.00    +0.004 A 
ATOM     20  C   UNL     1      13.029  11.224  23.317  0.00  0.00    +0.004 A 
ATOM     21  C   UNL     1      12.111  12.777  21.190  0.00  0.00    +0.000 A 
ATOM     22  C   UNL     1      13.770  12.323  22.885  0.00  0.00    +0.000 A 
ATOM     23  C   UNL     1      13.311  13.100  21.822  0.00  0.00    +0.000 A 
ENDBRANCH  17  18
ENDBRANCH  16  17
TORSDOF 4
ENDMDL
MODEL 4
REMARK VINA RESULT:      -6.3     18.261     21.304
REMARK  Name = 51137402
REMARK  4 active torsions:
REMARK  status: ('A' for Active; 'I' for Inactive)
REMARK    1  A    between atoms: N_3  and  C_6
REMARK    2  A    between atoms: C_7  and  C_15
REMARK    3  A    between atoms: C_16  and  C_17
REMARK    4  A    between atoms: C_17  and  C_18
REMARK                            x       y       z     vdW  Elec       q    Type
REMARK                         _______ _______ _______ _____ _____    ______ ____
ROOT
ATOM      2  O   UNL     1      11.445   4.737   2.810  0.00  0.00    -0.424 OA
ATOM      4  N   UNL     1      12.727   6.536   3.163  0.00  0.00    -0.112 NA
ATOM      5  N   UNL     1      11.808   6.457   4.193  0.00  0.00    -0.112 NA
ATOM     15  C   UNL     1      12.478   5.512   2.380  0.00  0.00    +0.222 A 
ATOM     16  C   UNL     1      11.081   5.392   3.946  0.00  0.00    +0.222 A 
ENDROOT
BRANCH  15   7
ATOM      3  N   UNL     1      12.747   4.298  -1.067  0.00  0.00    -0.298 NA
ATOM      7  C   UNL     1      13.164   5.088   1.101  0.00  0.00    +0.092 C 
ATOM      8  C   UNL     1      12.315   5.354  -0.149  0.00  0.00    +0.097 C 
ATOM      9  C   UNL     1      12.830   3.092  -0.242  0.00  0.00    +0.085 C 
ATOM     10  C   UNL     1      13.515   3.592   1.022  0.00  0.00    +0.029 C 
BRANCH   3   6
ATOM      1  O   UNL     1       9.343   3.145  -3.236  0.00  0.00    -0.380 OA
ATOM      6  C   UNL     1      11.838   4.136  -2.199  0.00  0.00    +0.061 C 
ATOM     11  C   UNL     1      10.504   4.842  -1.941  0.00  0.00    +0.047 C 
ATOM     12  C   UNL     1      11.600   2.651  -2.483  0.00  0.00    +0.047 C 
ATOM     13  C   UNL     1       9.523   4.551  -3.071  0.00  0.00    +0.161 C 
ATOM     14  C   UNL     1      10.558   2.481  -3.584  0.00  0.00    +0.161 C 
ENDBRANCH   3   6
ENDBRANCH  15   7
BRANCH  16  17
ATOM     17  C   UNL     1       9.961   4.826   4.708  0.00  0.00    +0.132 C 
BRANCH  17  18
ATOM     18  C   UNL     1       9.541   5.643   5.926  0.00  0.00    -0.038 A 
ATOM     19  C   UNL     1       8.718   6.759   5.766  0.00  0.00    +0.004 A 
ATOM     20  C   UNL     1       9.980   5.277   7.198  0.00  0.00    +0.004 A 
ATOM     21  C   UNL     1       8.334   7.506   6.880  0.00  0.00    +0.000 A 
ATOM     22  C   UNL     1       9.596   6.025   8.310  0.00  0.00    +0.000 A 
ATOM     23  C   UNL     1       8.773   7.139   8.152  0.00  0.00    +0.000 A 
ENDBRANCH  17  18
ENDBRANCH  16  17
TORSDOF 4
ENDMDL
MODEL 5
REMARK VINA RESULT:      -6.3     27.045     28.455
REMARK  Name = 51137402
REMARK  4 active torsions:
REMARK  status: ('A' for Active; 'I' for Inactive)
REMARK    1  A    between atoms: N_3  and  C_6
REMARK    2  A    between atoms: C_7  and  C_15
REMARK    3  A    between atoms: C_16  and  C_17
REMARK    4  A    between atoms: C_17  and  C_18
REMARK                            x       y       z     vdW  Elec       q    Type
REMARK                         _______ _______ _______ _____ _____    ______ ____
ROOT
ATOM      2  O   UNL     1      -3.393 -12.150  15.070  0.00  0.00    -0.424 OA
ATOM      4  N   UNL     1      -2.504 -10.656  16.478  0.00  0.00    -0.112 NA
ATOM      5  N   UNL     1      -1.720 -10.691  15.341  0.00  0.00    -0.112 NA
ATOM     15  C   UNL     1      -3.469 -11.523  16.276  0.00  0.00    +0.222 A 
ATOM     16  C   UNL     1      -2.276 -11.576  14.546  0.00  0.00    +0.222 A 
ENDROOT
BRANCH  15   7
ATOM      3  N   UNL     1      -6.601 -11.089  18.128  0.00  0.00    -0.298 NA
ATOM      7  C   UNL     1      -4.622 -11.909  17.174  0.00  0.00    +0.092 C 
ATOM      8  C   UNL     1      -5.920 -11.165  16.833  0.00  0.00    +0.097 C 
ATOM      9  C   UNL     1      -5.553 -10.734  19.085  0.00  0.00    +0.085 C 
ATOM     10  C   UNL     1      -4.396 -11.633  18.671  0.00  0.00    +0.029 C 
BRANCH   3   6
ATOM      1  O   UNL     1     -10.189  -9.232  16.989  0.00  0.00    -0.380 OA
ATOM      6  C   UNL     1      -7.701 -10.127  18.125  0.00  0.00    +0.061 C 
ATOM     11  C   UNL     1      -9.035 -10.814  18.428  0.00  0.00    +0.047 C 
ATOM     12  C   UNL     1      -7.775  -9.409  16.775  0.00  0.00    +0.047 C 
ATOM     13  C   UNL     1     -10.185  -9.823  18.288  0.00  0.00    +0.161 C 
ATOM     14  C   UNL     1      -8.995  -8.495  16.726  0.00  0.00    +0.161 C 
ENDBRANCH   3   6
ENDBRANCH  15   7
BRANCH  16  17
ATOM     17  C   UNL     1      -1.869 -12.016  13.206  0.00  0.00    +0.132 C 
BRANCH  17  18
ATOM     18  C   UNL     1      -2.430 -11.179  12.062  0.00  0.00    -0.038 A 
ATOM     19  C   UNL     1      -3.580 -11.596  11.391  0.00  0.00    +0.004 A 
ATOM     20  C   UNL     1      -1.793  -9.996  11.685  0.00  0.00    +0.004 A 
ATOM     21  C   UNL     1      -4.093 -10.829  10.344  0.00  0.00    +0.000 A 
ATOM     22  C   UNL     1      -2.306  -9.231  10.638  0.00  0.00    +0.000 A 
ATOM     23  C   UNL     1      -3.456  -9.647   9.968  0.00  0.00    +0.000 A 
ENDBRANCH  17  18
ENDBRANCH  16  17
TORSDOF 4
ENDMDL
MODEL 6
REMARK VINA RESULT:      -6.2      4.563      6.626
REMARK  Name = 51137402
REMARK  4 active torsions:
REMARK  status: ('A' for Active; 'I' for Inactive)
REMARK    1  A    between atoms: N_3  and  C_6
REMARK    2  A    between atoms: C_7  and  C_15
REMARK    3  A    between atoms: C_16  and  C_17
REMARK    4  A    between atoms: C_17  and  C_18
REMARK                            x       y       z     vdW  Elec       q    Type
REMARK                         _______ _______ _______ _____ _____    ______ ____
ROOT
ATOM      2  O   UNL     1      14.346   9.127  18.133  0.00  0.00    -0.424 OA
ATOM      4  N   UNL     1      13.566   8.448  16.149  0.00  0.00    -0.112 NA
ATOM      5  N   UNL     1      13.582   7.357  16.998  0.00  0.00    -0.112 NA
ATOM     15  C   UNL     1      14.020   9.459  16.854  0.00  0.00    +0.222 A 
ATOM     16  C   UNL     1      14.044   7.800  18.144  0.00  0.00    +0.222 A 
ENDROOT
BRANCH  15   7
ATOM      3  N   UNL     1      15.880  12.484  15.953  0.00  0.00    -0.298 NA
ATOM      7  C   UNL     1      14.224  10.901  16.450  0.00  0.00    +0.092 C 
ATOM      8  C   UNL     1      15.492  11.114  15.612  0.00  0.00    +0.097 C 
ATOM      9  C   UNL     1      15.700  12.578  17.402  0.00  0.00    +0.085 C 
ATOM     10  C   UNL     1      14.362  11.887  17.623  0.00  0.00    +0.029 C 
BRANCH   3   6
ATOM      1  O   UNL     1      20.033  12.075  15.496  0.00  0.00    -0.380 OA
ATOM      6  C   UNL     1      17.247  12.795  15.540  0.00  0.00    +0.061 C 
ATOM     11  C   UNL     1      17.801  11.715  14.606  0.00  0.00    +0.047 C 
ATOM     12  C   UNL     1      18.152  12.943  16.766  0.00  0.00    +0.047 C 
ATOM     13  C   UNL     1      19.268  11.987  14.294  0.00  0.00    +0.161 C 
ATOM     14  C   UNL     1      19.601  13.146  16.335  0.00  0.00    +0.161 C 
ENDBRANCH   3   6
ENDBRANCH  15   7
BRANCH  16  17
ATOM     17  C   UNL     1      14.270   7.078  19.402  0.00  0.00    +0.132 C 
BRANCH  17  18
ATOM     18  C   UNL     1      15.736   6.827  19.739  0.00  0.00    -0.038 A 
ATOM     19  C   UNL     1      16.514   6.019  18.908  0.00  0.00    +0.004 A 
ATOM     20  C   UNL     1      16.300   7.403  20.877  0.00  0.00    +0.004 A 
ATOM     21  C   UNL     1      17.855   5.789  19.216  0.00  0.00    +0.000 A 
ATOM     22  C   UNL     1      17.640   7.172  21.185  0.00  0.00    +0.000 A 
ATOM     23  C   UNL     1      18.418   6.365  20.355  0.00  0.00    +0.000 A 
ENDBRANCH  17  18
ENDBRANCH  16  17
TORSDOF 4
ENDMDL
MODEL 7
REMARK VINA RESULT:      -6.2     28.475     31.165
REMARK  Name = 51137402
REMARK  4 active torsions:
REMARK  status: ('A' for Active; 'I' for Inactive)
REMARK    1  A    between atoms: N_3  and  C_6
REMARK    2  A    between atoms: C_7  and  C_15
REMARK    3  A    between atoms: C_16  and  C_17
REMARK    4  A    between atoms: C_17  and  C_18
REMARK                            x       y       z     vdW  Elec       q    Type
REMARK                         _______ _______ _______ _____ _____    ______ ____
ROOT
ATOM      2  O   UNL     1     -14.215   5.499  32.556  0.00  0.00    -0.424 OA
ATOM      4  N   UNL     1     -14.058   4.549  34.575  0.00  0.00    -0.112 NA
ATOM      5  N   UNL     1     -14.373   5.883  34.754  0.00  0.00    -0.112 NA
ATOM     15  C   UNL     1     -13.976   4.370  33.277  0.00  0.00    +0.222 A 
ATOM     16  C   UNL     1     -14.455   6.398  33.549  0.00  0.00    +0.222 A 
ENDROOT
BRANCH  15   7
ATOM      3  N   UNL     1     -14.311   1.877  30.612  0.00  0.00    -0.298 NA
ATOM      7  C   UNL     1     -13.662   3.115  32.495  0.00  0.00    +0.092 C 
ATOM      8  C   UNL     1     -13.974   3.249  30.999  0.00  0.00    +0.097 C 
ATOM      9  C   UNL     1     -15.159   1.377  31.695  0.00  0.00    +0.085 C 
ATOM     10  C   UNL     1     -14.435   1.863  32.944  0.00  0.00    +0.029 C 
BRANCH   3   6
ATOM      1  O   UNL     1     -17.300   2.330  27.700  0.00  0.00    -0.380 OA
ATOM      6  C   UNL     1     -14.973   1.810  29.312  0.00  0.00    +0.061 C 
ATOM     11  C   UNL     1     -15.318   3.210  28.796  0.00  0.00    +0.047 C 
ATOM     12  C   UNL     1     -16.241   0.957  29.403  0.00  0.00    +0.047 C 
ATOM     13  C   UNL     1     -16.125   3.115  27.505  0.00  0.00    +0.161 C 
ATOM     14  C   UNL     1     -16.997   0.987  28.079  0.00  0.00    +0.161 C 
ENDBRANCH   3   6
ENDBRANCH  15   7
BRANCH  16  17
ATOM     17  C   UNL     1     -14.764   7.773  33.140  0.00  0.00    +0.132 C 
BRANCH  17  18
ATOM     18  C   UNL     1     -13.670   8.459  32.328  0.00  0.00    -0.038 A 
ATOM     19  C   UNL     1     -14.012   9.375  31.332  0.00  0.00    +0.004 A 
ATOM     20  C   UNL     1     -12.329   8.170  32.580  0.00  0.00    +0.004 A 
ATOM     21  C   UNL     1     -13.011  10.002  30.590  0.00  0.00    +0.000 A 
ATOM     22  C   UNL     1     -11.330   8.797  31.837  0.00  0.00    +0.000 A 
ATOM     23  C   UNL     1     -11.670   9.713  30.842  0.00  0.00    +0.000 A 
ENDBRANCH  17  18
ENDBRANCH  16  17
TORSDOF 4
ENDMDL
MODEL 8
REMARK VINA RESULT:      -6.2     27.002     28.873
REMARK  Name = 51137402
REMARK  4 active torsions:
REMARK  status: ('A' for Active; 'I' for Inactive)
REMARK    1  A    between atoms: N_3  and  C_6
REMARK    2  A    between atoms: C_7  and  C_15
REMARK    3  A    between atoms: C_16  and  C_17
REMARK    4  A    between atoms: C_17  and  C_18
REMARK                            x       y       z     vdW  Elec       q    Type
REMARK                         _______ _______ _______ _____ _____    ______ ____
ROOT
ATOM      2  O   UNL     1      -3.315 -11.219  14.703  0.00  0.00    -0.424 OA
ATOM      4  N   UNL     1      -1.869 -10.745  16.343  0.00  0.00    -0.112 NA
ATOM      5  N   UNL     1      -1.151 -11.238  15.271  0.00  0.00    -0.112 NA
ATOM     15  C   UNL     1      -3.127 -10.751  15.968  0.00  0.00    +0.222 A 
ATOM     16  C   UNL     1      -2.035 -11.501  14.336  0.00  0.00    +0.222 A 
ENDROOT
BRANCH  15   7
ATOM      3  N   UNL     1      -6.384 -11.118  17.607  0.00  0.00    -0.298 NA
ATOM      7  C   UNL     1      -4.362 -10.321  16.727  0.00  0.00    +0.092 C 
ATOM      8  C   UNL     1      -4.957 -11.445  17.587  0.00  0.00    +0.097 C 
ATOM      9  C   UNL     1      -6.703 -10.737  16.230  0.00  0.00    +0.085 C 
ATOM     10  C   UNL     1      -5.530  -9.846  15.844  0.00  0.00    +0.029 C 
BRANCH   3   6
ATOM      1  O   UNL     1      -9.686 -13.161  19.203  0.00  0.00    -0.380 OA
ATOM      6  C   UNL     1      -7.204 -12.231  18.080  0.00  0.00    +0.061 C 
ATOM     11  C   UNL     1      -8.482 -12.368  17.247  0.00  0.00    +0.047 C 
ATOM     12  C   UNL     1      -7.559 -12.040  19.557  0.00  0.00    +0.047 C 
ATOM     13  C   UNL     1      -9.386 -13.445  17.837  0.00  0.00    +0.161 C 
ATOM     14  C   UNL     1      -8.515 -13.135  20.020  0.00  0.00    +0.161 C 
ENDBRANCH   3   6
ENDBRANCH  15   7
BRANCH  16  17
ATOM     17  C   UNL     1      -1.836 -12.041  12.986  0.00  0.00    +0.132 C 
BRANCH  17  18
ATOM     18  C   UNL     1      -2.486 -11.228  11.871  0.00  0.00    -0.038 A 
ATOM     19  C   UNL     1      -3.591 -11.738  11.189  0.00  0.00    +0.004 A 
ATOM     20  C   UNL     1      -1.975  -9.975  11.533  0.00  0.00    +0.004 A 
ATOM     21  C   UNL     1      -4.185 -10.994  10.170  0.00  0.00    +0.000 A 
ATOM     22  C   UNL     1      -2.570  -9.232  10.513  0.00  0.00    +0.000 A 
ATOM     23  C   UNL     1      -3.675  -9.741   9.831  0.00  0.00    +0.000 A 
ENDBRANCH  17  18
ENDBRANCH  16  17
TORSDOF 4
ENDMDL
MODEL 9
REMARK VINA RESULT:      -6.1     27.177     30.177
REMARK  Name = 51137402
REMARK  4 active torsions:
REMARK  status: ('A' for Active; 'I' for Inactive)
REMARK    1  A    between atoms: N_3  and  C_6
REMARK    2  A    between atoms: C_7  and  C_15
REMARK    3  A    between atoms: C_16  and  C_17
REMARK    4  A    between atoms: C_17  and  C_18
REMARK                            x       y       z     vdW  Elec       q    Type
REMARK                         _______ _______ _______ _____ _____    ______ ____
ROOT
ATOM      2  O   UNL     1     -15.638   5.878  23.586  0.00  0.00    -0.424 OA
ATOM      4  N   UNL     1     -15.606   3.988  22.390  0.00  0.00    -0.112 NA
ATOM      5  N   UNL     1     -14.863   4.936  21.711  0.00  0.00    -0.112 NA
ATOM     15  C   UNL     1     -16.039   4.582  23.478  0.00  0.00    +0.222 A 
ATOM     16  C   UNL     1     -14.909   6.023  22.446  0.00  0.00    +0.222 A 
ENDROOT
BRANCH  15   7
ATOM      3  N   UNL     1     -16.800   2.840  26.611  0.00  0.00    -0.298 NA
ATOM      7  C   UNL     1     -16.897   4.037  24.597  0.00  0.00    +0.092 C 
ATOM      8  C   UNL     1     -16.158   3.973  25.940  0.00  0.00    +0.097 C 
ATOM      9  C   UNL     1     -16.933   1.815  25.575  0.00  0.00    +0.085 C 
ATOM     10  C   UNL     1     -17.423   2.609  24.372  0.00  0.00    +0.029 C 
BRANCH   3   6
ATOM      1  O   UNL     1     -15.861   1.988  30.612  0.00  0.00    -0.380 OA
ATOM      6  C   UNL     1     -16.038   2.370  27.765  0.00  0.00    +0.061 C 
ATOM     11  C   UNL     1     -16.774   1.239  28.489  0.00  0.00    +0.047 C 
ATOM     12  C   UNL     1     -15.771   3.526  28.733  0.00  0.00    +0.047 C 
ATOM     13  C   UNL     1     -16.031   0.854  29.763  0.00  0.00    +0.161 C 
ATOM     14  C   UNL     1     -15.084   3.014  29.995  0.00  0.00    +0.161 C 
ENDBRANCH   3   6
ENDBRANCH  15   7
BRANCH  16  17
ATOM     17  C   UNL     1     -14.296   7.336  22.212  0.00  0.00    +0.132 C 
BRANCH  17  18
ATOM     18  C   UNL     1     -13.521   7.455  20.904  0.00  0.00    -0.038 A 
ATOM     19  C   UNL     1     -14.168   7.897  19.749  0.00  0.00    +0.004 A 
ATOM     20  C   UNL     1     -12.168   7.120  20.861  0.00  0.00    +0.004 A 
ATOM     21  C   UNL     1     -13.460   8.005  18.552  0.00  0.00    +0.000 A 
ATOM     22  C   UNL     1     -11.461   7.228  19.664  0.00  0.00    +0.000 A 
ATOM     23  C   UNL     1     -12.106   7.671  18.509  0.00  0.00    +0.000 A 
ENDBRANCH  17  18
ENDBRANCH  16  17
TORSDOF 4
ENDMDL
MODEL 10
REMARK VINA RESULT:      -6.1     27.368     28.757
REMARK  Name = 51137402
REMARK  4 active torsions:
REMARK  status: ('A' for Active; 'I' for Inactive)
REMARK    1  A    between atoms: N_3  and  C_6
REMARK    2  A    between atoms: C_7  and  C_15
REMARK    3  A    between atoms: C_16  and  C_17
REMARK    4  A    between atoms: C_17  and  C_18
REMARK                            x       y       z     vdW  Elec       q    Type
REMARK                         _______ _______ _______ _____ _____    ______ ____
ROOT
ATOM      2  O   UNL     1      -3.227 -10.991  13.832  0.00  0.00    -0.424 OA
ATOM      4  N   UNL     1      -2.472 -13.028  14.364  0.00  0.00    -0.112 NA
ATOM      5  N   UNL     1      -1.763 -12.583  13.264  0.00  0.00    -0.112 NA
ATOM     15  C   UNL     1      -3.315 -12.067  14.661  0.00  0.00    +0.222 A 
ATOM     16  C   UNL     1      -2.237 -11.390  12.989  0.00  0.00    +0.222 A 
ENDROOT
BRANCH  15   7
ATOM      3  N   UNL     1      -6.125 -10.704  16.578  0.00  0.00    -0.298 NA
ATOM      7  C   UNL     1      -4.342 -11.993  15.769  0.00  0.00    +0.092 C 
ATOM      8  C   UNL     1      -5.643 -11.306  15.333  0.00  0.00    +0.097 C 
ATOM      9  C   UNL     1      -4.936 -10.125  17.203  0.00  0.00    +0.085 C 
ATOM     10  C   UNL     1      -3.890 -11.216  17.018  0.00  0.00    +0.029 C 
BRANCH   3   6
ATOM      1  O   UNL     1      -9.974  -9.080  16.166  0.00  0.00    -0.380 OA
ATOM      6  C   UNL     1      -7.172  -9.711  16.348  0.00  0.00    +0.061 C 
ATOM     11  C   UNL     1      -8.059  -9.547  17.586  0.00  0.00    +0.047 C 
ATOM     12  C   UNL     1      -8.025 -10.106  15.140  0.00  0.00    +0.047 C 
ATOM     13  C   UNL     1      -9.223  -8.610  17.284  0.00  0.00    +0.161 C 
ATOM     14  C   UNL     1      -9.191  -9.138  14.973  0.00  0.00    +0.161 C 
ENDBRANCH   3   6
ENDBRANCH  15   7
BRANCH  16  17
ATOM     17  C   UNL     1      -1.852 -10.454  11.926  0.00  0.00    +0.132 C 
BRANCH  17  18
ATOM     18  C   UNL     1      -2.862 -10.329  10.789  0.00  0.00    -0.038 A 
ATOM     19  C   UNL     1      -3.523 -11.463  10.317  0.00  0.00    +0.004 A 
ATOM     20  C   UNL     1      -3.123  -9.082  10.221  0.00  0.00    +0.004 A 
ATOM     21  C   UNL     1      -4.447 -11.349   9.278  0.00  0.00    +0.000 A 
ATOM     22  C   UNL     1      -4.045  -8.969   9.181  0.00  0.00    +0.000 A 
ATOM     23  C   UNL     1      -4.708 -10.102   8.710  0.00  0.00    +0.000 A 
ENDBRANCH  17  18
ENDBRANCH  16  17
TORSDOF 4
ENDMDL
