MODEL 1
REMARK VINA RESULT:      -6.9      0.000      0.000
REMARK  Name = 45361412
REMARK  15 active torsions:
REMARK  status: ('A' for Active; 'I' for Inactive)
REMARK    1  A    between atoms: O_1  and  C_9
REMARK    2  A    between atoms: N_4  and  C_13
REMARK    3  A    between atoms: N_5  and  C_24
REMARK    4  A    between atoms: N_5  and  C_25
REMARK    5  A    between atoms: C_6  and  C_16
REMARK    6  A    between atoms: C_8  and  C_18
REMARK    7  A    between atoms: C_12  and  C_17
REMARK    8  A    between atoms: C_17  and  C_19
REMARK    9  A    between atoms: C_17  and  C_20
REMARK   10  A    between atoms: C_21  and  C_22
REMARK   11  A    between atoms: C_22  and  C_23
REMARK   12  A    between atoms: C_23  and  C_26
REMARK   13  A    between atoms: C_23  and  C_27
REMARK   14  A    between atoms: C_23  and  C_28
REMARK   15  A    between atoms: C_24  and  C_29
REMARK                            x       y       z     vdW  Elec       q    Type
REMARK                         _______ _______ _______ _____ _____    ______ ____
ROOT
ATOM      6  C   UNL     1      -5.498 -11.190  17.749  0.00  0.00    -0.027 C 
ATOM      7  C   UNL     1      -6.067 -10.426  16.508  0.00  0.00    +0.028 C 
ATOM      8  C   UNL     1      -7.638 -10.448  16.511  0.00  0.00    +0.012 C 
ATOM      9  C   UNL     1      -5.395 -10.909  15.190  0.00  0.00    +0.122 C 
ATOM     10  C   UNL     1      -3.957 -11.053  17.777  0.00  0.00    +0.007 C 
ATOM     11  C   UNL     1      -6.051 -10.541  19.038  0.00  0.00    +0.009 C 
ATOM     12  C   UNL     1      -3.851 -10.867  15.262  0.00  0.00    +0.029 C 
ATOM     13  C   UNL     1      -8.183  -9.862  17.844  0.00  0.00    +0.076 C 
ATOM     14  C   UNL     1      -3.292 -11.562  16.505  0.00  0.00    +0.007 C 
ATOM     15  C   UNL     1      -7.573 -10.510  19.086  0.00  0.00    +0.023 C 
ATOM     16  C   UNL     1      -5.863 -12.697  17.738  0.00  0.00    +0.011 C 
ATOM     18  C   UNL     1      -8.267  -9.688  15.330  0.00  0.00    +0.010 C 
ENDROOT
BRANCH  13   4
ATOM      3  O   UNL     1     -10.127  -7.733  17.577  0.00  0.00    -0.276 OA
ATOM      4  N   UNL     1      -9.624  -9.973  17.929  0.00  0.00    -0.312 N 
ATOM     21  C   UNL     1     -10.475  -8.892  17.788  0.00  0.00    +0.214 C 
ATOM     35  H   UNL     1     -10.014 -10.887  18.138  0.00  0.00    +0.149 HD
BRANCH  21  22
ATOM     22  C   UNL     1     -11.941  -9.270  17.928  0.00  0.00    +0.102 C 
BRANCH  22  23
ATOM     23  C   UNL     1     -12.749  -9.223  16.609  0.00  0.00    -0.029 C 
ATOM     26  C   UNL     1     -14.017 -10.079  16.797  0.00  0.00    +0.011 C 
ATOM     27  C   UNL     1     -13.177  -7.788  16.262  0.00  0.00    +0.011 C 
ATOM     28  C   UNL     1     -11.937  -9.807  15.442  0.00  0.00    +0.011 C 
ENDBRANCH  22  23
ENDBRANCH  21  22
ENDBRANCH  13   4
BRANCH   9   1
ATOM      1  O   UNL     1      -5.777 -10.049  14.117  0.00  0.00    -0.391 OA
ATOM     36  H   UNL     1      -5.508  -9.142  14.345  0.00  0.00    +0.210 HD
ENDBRANCH   9   1
BRANCH  12  17
ATOM     17  C   UNL     1      -3.206 -11.469  14.007  0.00  0.00    +0.078 C 
ATOM     19  C   UNL     1      -2.548 -12.803  14.362  0.00  0.00    +0.017 C 
BRANCH  17  20
ATOM      2  O   UNL     1      -1.459  -9.843  14.192  0.00  0.00    -0.275 OA
ATOM      5  N   UNL     1      -2.130 -10.349  12.036  0.00  0.00    -0.300 N 
ATOM     20  C   UNL     1      -2.184 -10.488  13.427  0.00  0.00    +0.219 C 
ATOM     25  C   UNL     1      -1.182  -9.406  11.452  0.00  0.00    +0.132 C 
BRANCH   5  24
ATOM     24  C   UNL     1      -2.924 -11.097  11.064  0.00  0.00    +0.142 C 
BRANCH  24  29
ATOM     29  C   UNL     1      -3.952 -10.231  10.394  0.00  0.00    -0.030 A 
ATOM     30  C   UNL     1      -4.680  -9.307  11.142  0.00  0.00    +0.005 A 
ATOM     31  C   UNL     1      -4.178 -10.353   9.022  0.00  0.00    +0.005 A 
ATOM     32  C   UNL     1      -5.635  -8.502  10.519  0.00  0.00    +0.000 A 
ATOM     33  C   UNL     1      -5.133  -9.548   8.400  0.00  0.00    +0.000 A 
ATOM     34  C   UNL     1      -5.861  -8.623   9.148  0.00  0.00    +0.000 A 
ENDBRANCH  24  29
ENDBRANCH   5  24
ENDBRANCH  17  20
ENDBRANCH  12  17
TORSDOF 8
ENDMDL
MODEL 2
REMARK VINA RESULT:      -6.8      2.902      7.719
REMARK  Name = 45361412
REMARK  15 active torsions:
REMARK  status: ('A' for Active; 'I' for Inactive)
REMARK    1  A    between atoms: O_1  and  C_9
REMARK    2  A    between atoms: N_4  and  C_13
REMARK    3  A    between atoms: N_5  and  C_24
REMARK    4  A    between atoms: N_5  and  C_25
REMARK    5  A    between atoms: C_6  and  C_16
REMARK    6  A    between atoms: C_8  and  C_18
REMARK    7  A    between atoms: C_12  and  C_17
REMARK    8  A    between atoms: C_17  and  C_19
REMARK    9  A    between atoms: C_17  and  C_20
REMARK   10  A    between atoms: C_21  and  C_22
REMARK   11  A    between atoms: C_22  and  C_23
REMARK   12  A    between atoms: C_23  and  C_26
REMARK   13  A    between atoms: C_23  and  C_27
REMARK   14  A    between atoms: C_23  and  C_28
REMARK   15  A    between atoms: C_24  and  C_29
REMARK                            x       y       z     vdW  Elec       q    Type
REMARK                         _______ _______ _______ _____ _____    ______ ____
ROOT
ATOM      6  C   UNL     1      -3.720 -10.445  10.533  0.00  0.00    -0.027 C 
ATOM      7  C   UNL     1      -5.061 -10.273  11.321  0.00  0.00    +0.028 C 
ATOM      8  C   UNL     1      -5.923  -9.111  10.709  0.00  0.00    +0.012 C 
ATOM      9  C   UNL     1      -4.807 -10.181  12.854  0.00  0.00    +0.122 C 
ATOM     10  C   UNL     1      -2.949 -11.667  11.088  0.00  0.00    +0.007 C 
ATOM     11  C   UNL     1      -4.041 -10.726   9.047  0.00  0.00    +0.009 C 
ATOM     12  C   UNL     1      -3.948 -11.352  13.384  0.00  0.00    +0.029 C 
ATOM     13  C   UNL     1      -6.176  -9.366   9.196  0.00  0.00    +0.076 C 
ATOM     14  C   UNL     1      -2.665 -11.562  12.580  0.00  0.00    +0.007 C 
ATOM     15  C   UNL     1      -4.898  -9.645   8.406  0.00  0.00    +0.023 C 
ATOM     16  C   UNL     1      -2.808  -9.195  10.631  0.00  0.00    +0.011 C 
ATOM     18  C   UNL     1      -7.272  -8.905  11.419  0.00  0.00    +0.010 C 
ENDROOT
BRANCH  13   4
ATOM      3  O   UNL     1      -8.194  -9.498   7.124  0.00  0.00    -0.276 OA
ATOM      4  N   UNL     1      -6.869  -8.258   8.574  0.00  0.00    -0.312 N 
ATOM     21  C   UNL     1      -7.823  -8.421   7.586  0.00  0.00    +0.214 C 
ATOM     35  H   UNL     1      -6.607  -7.320   8.860  0.00  0.00    +0.149 HD
BRANCH  21  22
ATOM     22  C   UNL     1      -8.395  -7.103   7.091  0.00  0.00    +0.102 C 
BRANCH  22  23
ATOM     23  C   UNL     1      -9.605  -6.579   7.900  0.00  0.00    -0.029 C 
ATOM     26  C   UNL     1     -10.812  -6.485   6.947  0.00  0.00    +0.011 C 
ATOM     27  C   UNL     1      -9.967  -7.531   9.052  0.00  0.00    +0.011 C 
ATOM     28  C   UNL     1      -9.326  -5.178   8.469  0.00  0.00    +0.011 C 
ENDBRANCH  22  23
ENDBRANCH  21  22
ENDBRANCH  13   4
BRANCH   9   1
ATOM      1  O   UNL     1      -6.054 -10.243  13.548  0.00  0.00    -0.391 OA
ATOM     36  H   UNL     1      -6.041 -11.026  14.124  0.00  0.00    +0.210 HD
ENDBRANCH   9   1
BRANCH  12  17
ATOM     17  C   UNL     1      -3.599 -11.175  14.867  0.00  0.00    +0.078 C 
ATOM     19  C   UNL     1      -2.099 -10.913  15.010  0.00  0.00    +0.017 C 
BRANCH  17  20
ATOM      2  O   UNL     1      -3.887 -13.537  15.134  0.00  0.00    -0.275 OA
ATOM      5  N   UNL     1      -4.554 -12.238  16.930  0.00  0.00    -0.300 N 
ATOM     20  C   UNL     1      -4.016 -12.421  15.651  0.00  0.00    +0.219 C 
ATOM     25  C   UNL     1      -4.983 -13.404  17.695  0.00  0.00    +0.132 C 
BRANCH   5  24
ATOM     24  C   UNL     1      -4.709 -10.962  17.625  0.00  0.00    +0.142 C 
BRANCH  24  29
ATOM     29  C   UNL     1      -6.141 -10.512  17.661  0.00  0.00    -0.030 A 
ATOM     30  C   UNL     1      -6.606  -9.593  16.721  0.00  0.00    +0.005 A 
ATOM     31  C   UNL     1      -7.005 -11.013  18.634  0.00  0.00    +0.005 A 
ATOM     32  C   UNL     1      -7.937  -9.174  16.754  0.00  0.00    +0.000 A 
ATOM     33  C   UNL     1      -8.336 -10.596  18.666  0.00  0.00    +0.000 A 
ATOM     34  C   UNL     1      -8.802  -9.676  17.726  0.00  0.00    +0.000 A 
ENDBRANCH  24  29
ENDBRANCH   5  24
ENDBRANCH  17  20
ENDBRANCH  12  17
TORSDOF 8
ENDMDL
MODEL 3
REMARK VINA RESULT:      -6.6     24.439     27.655
REMARK  Name = 45361412
REMARK  15 active torsions:
REMARK  status: ('A' for Active; 'I' for Inactive)
REMARK    1  A    between atoms: O_1  and  C_9
REMARK    2  A    between atoms: N_4  and  C_13
REMARK    3  A    between atoms: N_5  and  C_24
REMARK    4  A    between atoms: N_5  and  C_25
REMARK    5  A    between atoms: C_6  and  C_16
REMARK    6  A    between atoms: C_8  and  C_18
REMARK    7  A    between atoms: C_12  and  C_17
REMARK    8  A    between atoms: C_17  and  C_19
REMARK    9  A    between atoms: C_17  and  C_20
REMARK   10  A    between atoms: C_21  and  C_22
REMARK   11  A    between atoms: C_22  and  C_23
REMARK   12  A    between atoms: C_23  and  C_26
REMARK   13  A    between atoms: C_23  and  C_27
REMARK   14  A    between atoms: C_23  and  C_28
REMARK   15  A    between atoms: C_24  and  C_29
REMARK                            x       y       z     vdW  Elec       q    Type
REMARK                         _______ _______ _______ _____ _____    ______ ____
ROOT
ATOM      6  C   UNL     1       9.751   6.713   6.656  0.00  0.00    -0.027 C 
ATOM      7  C   UNL     1      10.315   7.576   5.478  0.00  0.00    +0.028 C 
ATOM      8  C   UNL     1      11.345   6.751   4.625  0.00  0.00    +0.012 C 
ATOM      9  C   UNL     1      10.821   8.958   5.984  0.00  0.00    +0.122 C 
ATOM     10  C   UNL     1       8.660   7.514   7.405  0.00  0.00    +0.007 C 
ATOM     11  C   UNL     1       9.088   5.442   6.077  0.00  0.00    +0.009 C 
ATOM     12  C   UNL     1       9.760   9.709   6.821  0.00  0.00    +0.029 C 
ATOM     13  C   UNL     1      10.689   5.439   4.111  0.00  0.00    +0.076 C 
ATOM     14  C   UNL     1       9.163   8.850   7.936  0.00  0.00    +0.007 C 
ATOM     15  C   UNL     1      10.032   4.614   5.217  0.00  0.00    +0.023 C 
ATOM     16  C   UNL     1      10.849   6.299   7.669  0.00  0.00    +0.011 C 
ATOM     18  C   UNL     1      11.919   7.532   3.430  0.00  0.00    +0.010 C 
ENDROOT
BRANCH  13   4
ATOM      3  O   UNL     1      10.349   4.142   1.544  0.00  0.00    -0.276 OA
ATOM      4  N   UNL     1      11.644   4.599   3.418  0.00  0.00    -0.312 N 
ATOM     21  C   UNL     1      11.389   4.020   2.188  0.00  0.00    +0.214 C 
ATOM     35  H   UNL     1      12.524   4.404   3.883  0.00  0.00    +0.149 HD
BRANCH  21  22
ATOM     22  C   UNL     1      12.546   3.177   1.678  0.00  0.00    +0.102 C 
BRANCH  22  23
ATOM     23  C   UNL     1      13.507   3.916   0.714  0.00  0.00    -0.029 C 
ATOM     26  C   UNL     1      14.950   3.651   1.185  0.00  0.00    +0.011 C 
ATOM     27  C   UNL     1      13.364   3.401  -0.727  0.00  0.00    +0.011 C 
ATOM     28  C   UNL     1      13.258   5.433   0.739  0.00  0.00    +0.011 C 
ENDBRANCH  22  23
ENDBRANCH  21  22
ENDBRANCH  13   4
BRANCH   9   1
ATOM      1  O   UNL     1      11.124   9.793   4.865  0.00  0.00    -0.391 OA
ATOM     36  H   UNL     1      10.607   9.479   4.104  0.00  0.00    +0.210 HD
ENDBRANCH   9   1
BRANCH  12  17
ATOM     17  C   UNL     1      10.320  11.005   7.419  0.00  0.00    +0.078 C 
ATOM     19  C   UNL     1      11.140  10.678   8.668  0.00  0.00    +0.017 C 
BRANCH  17  20
ATOM      2  O   UNL     1       8.835  12.124   8.928  0.00  0.00    -0.275 OA
ATOM      5  N   UNL     1       8.532  12.606   6.685  0.00  0.00    -0.300 N 
ATOM     20  C   UNL     1       9.172  11.962   7.750  0.00  0.00    +0.219 C 
ATOM     25  C   UNL     1       7.419  13.507   6.965  0.00  0.00    +0.132 C 
BRANCH   5  24
ATOM     24  C   UNL     1       8.889  12.497   5.273  0.00  0.00    +0.142 C 
BRANCH  24  29
ATOM     29  C   UNL     1       7.791  11.873   4.462  0.00  0.00    -0.030 A 
ATOM     30  C   UNL     1       7.124  12.625   3.495  0.00  0.00    +0.005 A 
ATOM     31  C   UNL     1       7.437  10.540   4.675  0.00  0.00    +0.005 A 
ATOM     32  C   UNL     1       6.103  12.044   2.741  0.00  0.00    +0.000 A 
ATOM     33  C   UNL     1       6.418   9.959   3.920  0.00  0.00    +0.000 A 
ATOM     34  C   UNL     1       5.751  10.712   2.954  0.00  0.00    +0.000 A 
ENDBRANCH  24  29
ENDBRANCH   5  24
ENDBRANCH  17  20
ENDBRANCH  12  17
TORSDOF 8
ENDMDL
MODEL 4
REMARK VINA RESULT:      -6.5     24.289     27.745
REMARK  Name = 45361412
REMARK  15 active torsions:
REMARK  status: ('A' for Active; 'I' for Inactive)
REMARK    1  A    between atoms: O_1  and  C_9
REMARK    2  A    between atoms: N_4  and  C_13
REMARK    3  A    between atoms: N_5  and  C_24
REMARK    4  A    between atoms: N_5  and  C_25
REMARK    5  A    between atoms: C_6  and  C_16
REMARK    6  A    between atoms: C_8  and  C_18
REMARK    7  A    between atoms: C_12  and  C_17
REMARK    8  A    between atoms: C_17  and  C_19
REMARK    9  A    between atoms: C_17  and  C_20
REMARK   10  A    between atoms: C_21  and  C_22
REMARK   11  A    between atoms: C_22  and  C_23
REMARK   12  A    between atoms: C_23  and  C_26
REMARK   13  A    between atoms: C_23  and  C_27
REMARK   14  A    between atoms: C_23  and  C_28
REMARK   15  A    between atoms: C_24  and  C_29
REMARK                            x       y       z     vdW  Elec       q    Type
REMARK                         _______ _______ _______ _____ _____    ______ ____
ROOT
ATOM      6  C   UNL     1      13.733   5.099   0.689  0.00  0.00    -0.027 C 
ATOM      7  C   UNL     1      12.173   5.060   0.807  0.00  0.00    +0.028 C 
ATOM      8  C   UNL     1      11.729   4.988   2.312  0.00  0.00    +0.012 C 
ATOM      9  C   UNL     1      11.564   3.970  -0.122  0.00  0.00    +0.122 C 
ATOM     10  C   UNL     1      14.134   5.283  -0.794  0.00  0.00    +0.007 C 
ATOM     11  C   UNL     1      14.269   6.318   1.475  0.00  0.00    +0.009 C 
ATOM     12  C   UNL     1      12.051   4.097  -1.584  0.00  0.00    +0.029 C 
ATOM     13  C   UNL     1      12.335   6.178   3.110  0.00  0.00    +0.076 C 
ATOM     14  C   UNL     1      13.572   4.196  -1.701  0.00  0.00    +0.007 C 
ATOM     15  C   UNL     1      13.847   6.318   2.938  0.00  0.00    +0.023 C 
ATOM     16  C   UNL     1      14.403   3.809   1.228  0.00  0.00    +0.011 C 
ATOM     18  C   UNL     1      10.203   4.976   2.504  0.00  0.00    +0.010 C 
ENDROOT
BRANCH  13   4
ATOM      3  O   UNL     1      10.922   8.103   4.748  0.00  0.00    -0.276 OA
ATOM      4  N   UNL     1      12.041   6.080   4.524  0.00  0.00    -0.312 N 
ATOM     21  C   UNL     1      11.357   7.057   5.224  0.00  0.00    +0.214 C 
ATOM     35  H   UNL     1      12.391   5.267   5.022  0.00  0.00    +0.149 HD
BRANCH  21  22
ATOM     22  C   UNL     1      11.184   6.721   6.696  0.00  0.00    +0.102 C 
BRANCH  22  23
ATOM     23  C   UNL     1       9.738   6.360   7.112  0.00  0.00    -0.029 C 
ATOM     26  C   UNL     1       9.811   5.253   8.181  0.00  0.00    +0.011 C 
ATOM     27  C   UNL     1       9.007   7.571   7.715  0.00  0.00    +0.011 C 
ATOM     28  C   UNL     1       8.934   5.828   5.914  0.00  0.00    +0.011 C 
ENDBRANCH  22  23
ENDBRANCH  21  22
ENDBRANCH  13   4
BRANCH   9   1
ATOM      1  O   UNL     1      10.143   4.108  -0.150  0.00  0.00    -0.391 OA
ATOM     36  H   UNL     1       9.791   3.790   0.698  0.00  0.00    +0.210 HD
ENDBRANCH   9   1
BRANCH  12  17
ATOM     17  C   UNL     1      11.545   2.940  -2.455  0.00  0.00    +0.078 C 
ATOM     19  C   UNL     1      12.412   1.704  -2.212  0.00  0.00    +0.017 C 
BRANCH  17  20
ATOM      2  O   UNL     1      12.647   3.367  -4.537  0.00  0.00    -0.275 OA
ATOM      5  N   UNL     1      10.359   3.713  -4.527  0.00  0.00    -0.300 N 
ATOM     20  C   UNL     1      11.571   3.350  -3.929  0.00  0.00    +0.219 C 
ATOM     25  C   UNL     1      10.353   4.130  -5.925  0.00  0.00    +0.132 C 
BRANCH   5  24
ATOM     24  C   UNL     1       9.044   3.687  -3.892  0.00  0.00    +0.142 C 
BRANCH  24  29
ATOM     29  C   UNL     1       8.495   5.068  -3.681  0.00  0.00    -0.030 A 
ATOM     30  C   UNL     1       7.314   5.453  -4.315  0.00  0.00    +0.005 A 
ATOM     31  C   UNL     1       9.166   5.967  -2.850  0.00  0.00    +0.005 A 
ATOM     32  C   UNL     1       6.803   6.737  -4.119  0.00  0.00    +0.000 A 
ATOM     33  C   UNL     1       8.654   7.250  -2.653  0.00  0.00    +0.000 A 
ATOM     34  C   UNL     1       7.473   7.635  -3.288  0.00  0.00    +0.000 A 
ENDBRANCH  24  29
ENDBRANCH   5  24
ENDBRANCH  17  20
ENDBRANCH  12  17
TORSDOF 8
ENDMDL
MODEL 5
REMARK VINA RESULT:      -6.5      1.838      2.588
REMARK  Name = 45361412
REMARK  15 active torsions:
REMARK  status: ('A' for Active; 'I' for Inactive)
REMARK    1  A    between atoms: O_1  and  C_9
REMARK    2  A    between atoms: N_4  and  C_13
REMARK    3  A    between atoms: N_5  and  C_24
REMARK    4  A    between atoms: N_5  and  C_25
REMARK    5  A    between atoms: C_6  and  C_16
REMARK    6  A    between atoms: C_8  and  C_18
REMARK    7  A    between atoms: C_12  and  C_17
REMARK    8  A    between atoms: C_17  and  C_19
REMARK    9  A    between atoms: C_17  and  C_20
REMARK   10  A    between atoms: C_21  and  C_22
REMARK   11  A    between atoms: C_22  and  C_23
REMARK   12  A    between atoms: C_23  and  C_26
REMARK   13  A    between atoms: C_23  and  C_27
REMARK   14  A    between atoms: C_23  and  C_28
REMARK   15  A    between atoms: C_24  and  C_29
REMARK                            x       y       z     vdW  Elec       q    Type
REMARK                         _______ _______ _______ _____ _____    ______ ____
ROOT
ATOM      6  C   UNL     1      -4.641 -11.734  17.090  0.00  0.00    -0.027 C 
ATOM      7  C   UNL     1      -5.503 -10.620  16.409  0.00  0.00    +0.028 C 
ATOM      8  C   UNL     1      -6.900 -10.486  17.115  0.00  0.00    +0.012 C 
ATOM      9  C   UNL     1      -5.550 -10.808  14.865  0.00  0.00    +0.122 C 
ATOM     10  C   UNL     1      -3.234 -11.764  16.446  0.00  0.00    +0.007 C 
ATOM     11  C   UNL     1      -4.466 -11.392  18.587  0.00  0.00    +0.009 C 
ATOM     12  C   UNL     1      -4.142 -10.940  14.240  0.00  0.00    +0.029 C 
ATOM     13  C   UNL     1      -6.712 -10.217  18.634  0.00  0.00    +0.076 C 
ATOM     14  C   UNL     1      -3.275 -11.987  14.940  0.00  0.00    +0.007 C 
ATOM     15  C   UNL     1      -5.790 -11.223  19.320  0.00  0.00    +0.023 C 
ATOM     16  C   UNL     1      -5.277 -13.142  16.959  0.00  0.00    +0.011 C 
ATOM     18  C   UNL     1      -7.791  -9.385  16.512  0.00  0.00    +0.010 C 
ENDROOT
BRANCH  13   4
ATOM      3  O   UNL     1      -8.739 -12.285  18.646  0.00  0.00    -0.276 OA
ATOM      4  N   UNL     1      -7.978 -10.202  19.337  0.00  0.00    -0.312 N 
ATOM     21  C   UNL     1      -8.887 -11.243  19.280  0.00  0.00    +0.214 C 
ATOM     35  H   UNL     1      -8.215  -9.366  19.863  0.00  0.00    +0.149 HD
BRANCH  21  22
ATOM     22  C   UNL     1     -10.142 -10.980  20.097  0.00  0.00    +0.102 C 
BRANCH  22  23
ATOM     23  C   UNL     1     -11.373 -10.543  19.267  0.00  0.00    -0.029 C 
ATOM     26  C   UNL     1     -11.915 -11.782  18.529  0.00  0.00    +0.011 C 
ATOM     27  C   UNL     1     -12.488  -9.985  20.166  0.00  0.00    +0.011 C 
ATOM     28  C   UNL     1     -10.987  -9.484  18.220  0.00  0.00    +0.011 C 
ENDBRANCH  22  23
ENDBRANCH  21  22
ENDBRANCH  13   4
BRANCH   9   1
ATOM      1  O   UNL     1      -6.157  -9.663  14.264  0.00  0.00    -0.391 OA
ATOM     36  H   UNL     1      -6.094  -8.923  14.891  0.00  0.00    +0.210 HD
ENDBRANCH   9   1
BRANCH  12  17
ATOM     17  C   UNL     1      -4.212 -11.255  12.740  0.00  0.00    +0.078 C 
ATOM     19  C   UNL     1      -3.892 -12.733  12.514  0.00  0.00    +0.017 C 
BRANCH  17  20
ATOM      2  O   UNL     1      -2.108 -10.153  12.438  0.00  0.00    -0.275 OA
ATOM      5  N   UNL     1      -3.678  -9.785  10.778  0.00  0.00    -0.300 N 
ATOM     20  C   UNL     1      -3.235 -10.358  11.976  0.00  0.00    +0.219 C 
ATOM     25  C   UNL     1      -2.779  -8.907  10.036  0.00  0.00    +0.132 C 
BRANCH   5  24
ATOM     24  C   UNL     1      -4.977 -10.003  10.147  0.00  0.00    +0.142 C 
BRANCH  24  29
ATOM     29  C   UNL     1      -4.857 -10.785   8.871  0.00  0.00    -0.030 A 
ATOM     30  C   UNL     1      -4.360 -12.087   8.895  0.00  0.00    +0.005 A 
ATOM     31  C   UNL     1      -5.244 -10.208   7.661  0.00  0.00    +0.005 A 
ATOM     32  C   UNL     1      -4.249 -12.815   7.709  0.00  0.00    +0.000 A 
ATOM     33  C   UNL     1      -5.135 -10.936   6.475  0.00  0.00    +0.000 A 
ATOM     34  C   UNL     1      -4.637 -12.238   6.499  0.00  0.00    +0.000 A 
ENDBRANCH  24  29
ENDBRANCH   5  24
ENDBRANCH  17  20
ENDBRANCH  12  17
TORSDOF 8
ENDMDL
MODEL 6
REMARK VINA RESULT:      -6.3     24.700     27.517
REMARK  Name = 45361412
REMARK  15 active torsions:
REMARK  status: ('A' for Active; 'I' for Inactive)
REMARK    1  A    between atoms: O_1  and  C_9
REMARK    2  A    between atoms: N_4  and  C_13
REMARK    3  A    between atoms: N_5  and  C_24
REMARK    4  A    between atoms: N_5  and  C_25
REMARK    5  A    between atoms: C_6  and  C_16
REMARK    6  A    between atoms: C_8  and  C_18
REMARK    7  A    between atoms: C_12  and  C_17
REMARK    8  A    between atoms: C_17  and  C_19
REMARK    9  A    between atoms: C_17  and  C_20
REMARK   10  A    between atoms: C_21  and  C_22
REMARK   11  A    between atoms: C_22  and  C_23
REMARK   12  A    between atoms: C_23  and  C_26
REMARK   13  A    between atoms: C_23  and  C_27
REMARK   14  A    between atoms: C_23  and  C_28
REMARK   15  A    between atoms: C_24  and  C_29
REMARK                            x       y       z     vdW  Elec       q    Type
REMARK                         _______ _______ _______ _____ _____    ______ ____
ROOT
ATOM      6  C   UNL     1       9.541   6.219   5.908  0.00  0.00    -0.027 C 
ATOM      7  C   UNL     1      10.473   7.311   5.285  0.00  0.00    +0.028 C 
ATOM      8  C   UNL     1       9.935   8.752   5.603  0.00  0.00    +0.012 C 
ATOM      9  C   UNL     1      10.757   7.019   3.783  0.00  0.00    +0.122 C 
ATOM     10  C   UNL     1      10.157   4.820   5.675  0.00  0.00    +0.007 C 
ATOM     11  C   UNL     1       9.450   6.445   7.435  0.00  0.00    +0.009 C 
ATOM     12  C   UNL     1      11.275   5.582   3.544  0.00  0.00    +0.029 C 
ATOM     13  C   UNL     1       9.777   8.942   7.138  0.00  0.00    +0.076 C 
ATOM     14  C   UNL     1      10.400   4.516   4.202  0.00  0.00    +0.007 C 
ATOM     15  C   UNL     1       8.960   7.837   7.806  0.00  0.00    +0.023 C 
ATOM     16  C   UNL     1       8.113   6.241   5.304  0.00  0.00    +0.011 C 
ATOM     18  C   UNL     1      10.822   9.878   5.043  0.00  0.00    +0.010 C 
ENDROOT
BRANCH  13   4
ATOM      3  O   UNL     1      10.988  11.139   8.584  0.00  0.00    -0.276 OA
ATOM      4  N   UNL     1       9.175  10.218   7.461  0.00  0.00    -0.312 N 
ATOM     21  C   UNL     1       9.836  11.211   8.161  0.00  0.00    +0.214 C 
ATOM     35  H   UNL     1       8.209  10.365   7.187  0.00  0.00    +0.149 HD
BRANCH  21  22
ATOM     22  C   UNL     1       8.984  12.450   8.379  0.00  0.00    +0.102 C 
BRANCH  22  23
ATOM     23  C   UNL     1       8.679  12.772   9.862  0.00  0.00    -0.029 C 
ATOM     26  C   UNL     1       7.275  13.404   9.934  0.00  0.00    +0.011 C 
ATOM     27  C   UNL     1       8.685  11.501  10.727  0.00  0.00    +0.011 C 
ATOM     28  C   UNL     1       9.694  13.777  10.431  0.00  0.00    +0.011 C 
ENDBRANCH  22  23
ENDBRANCH  21  22
ENDBRANCH  13   4
BRANCH   9   1
ATOM      1  O   UNL     1      11.773   7.904   3.310  0.00  0.00    -0.391 OA
ATOM     36  H   UNL     1      12.452   7.983   4.002  0.00  0.00    +0.210 HD
ENDBRANCH   9   1
BRANCH  12  17
ATOM     17  C   UNL     1      11.423   5.272   2.049  0.00  0.00    +0.078 C 
ATOM     19  C   UNL     1      10.146   4.605   1.538  0.00  0.00    +0.017 C 
BRANCH  17  20
ATOM      2  O   UNL     1      12.539   3.153   2.003  0.00  0.00    -0.275 OA
ATOM      5  N   UNL     1      13.841   4.982   1.443  0.00  0.00    -0.300 N 
ATOM     20  C   UNL     1      12.641   4.372   1.825  0.00  0.00    +0.219 C 
ATOM     25  C   UNL     1      15.027   4.156   1.242  0.00  0.00    +0.132 C 
BRANCH   5  24
ATOM     24  C   UNL     1      14.038   6.405   1.179  0.00  0.00    +0.142 C 
BRANCH  24  29
ATOM     29  C   UNL     1      15.081   7.004   2.078  0.00  0.00    -0.030 A 
ATOM     30  C   UNL     1      16.184   7.656   1.528  0.00  0.00    +0.005 A 
ATOM     31  C   UNL     1      14.946   6.909   3.463  0.00  0.00    +0.005 A 
ATOM     32  C   UNL     1      17.154   8.214   2.363  0.00  0.00    +0.000 A 
ATOM     33  C   UNL     1      15.915   7.467   4.298  0.00  0.00    +0.000 A 
ATOM     34  C   UNL     1      17.018   8.119   3.748  0.00  0.00    +0.000 A 
ENDBRANCH  24  29
ENDBRANCH   5  24
ENDBRANCH  17  20
ENDBRANCH  12  17
TORSDOF 8
ENDMDL
MODEL 7
REMARK VINA RESULT:      -6.3     23.749     27.544
REMARK  Name = 45361412
REMARK  15 active torsions:
REMARK  status: ('A' for Active; 'I' for Inactive)
REMARK    1  A    between atoms: O_1  and  C_9
REMARK    2  A    between atoms: N_4  and  C_13
REMARK    3  A    between atoms: N_5  and  C_24
REMARK    4  A    between atoms: N_5  and  C_25
REMARK    5  A    between atoms: C_6  and  C_16
REMARK    6  A    between atoms: C_8  and  C_18
REMARK    7  A    between atoms: C_12  and  C_17
REMARK    8  A    between atoms: C_17  and  C_19
REMARK    9  A    between atoms: C_17  and  C_20
REMARK   10  A    between atoms: C_21  and  C_22
REMARK   11  A    between atoms: C_22  and  C_23
REMARK   12  A    between atoms: C_23  and  C_26
REMARK   13  A    between atoms: C_23  and  C_27
REMARK   14  A    between atoms: C_23  and  C_28
REMARK   15  A    between atoms: C_24  and  C_29
REMARK                            x       y       z     vdW  Elec       q    Type
REMARK                         _______ _______ _______ _____ _____    ______ ____
ROOT
ATOM      6  C   UNL     1       9.453   8.400   0.625  0.00  0.00    -0.027 C 
ATOM      7  C   UNL     1       9.628   6.894   1.013  0.00  0.00    +0.028 C 
ATOM      8  C   UNL     1      10.001   6.749   2.532  0.00  0.00    +0.012 C 
ATOM      9  C   UNL     1      10.577   6.163   0.019  0.00  0.00    +0.122 C 
ATOM     10  C   UNL     1       8.978   8.503  -0.844  0.00  0.00    +0.007 C 
ATOM     11  C   UNL     1       8.358   9.027   1.519  0.00  0.00    +0.009 C 
ATOM     12  C   UNL     1      10.155   6.356  -1.456  0.00  0.00    +0.029 C 
ATOM     13  C   UNL     1       8.931   7.448   3.418  0.00  0.00    +0.076 C 
ATOM     14  C   UNL     1       9.924   7.822  -1.823  0.00  0.00    +0.007 C 
ATOM     15  C   UNL     1       8.651   8.892   3.006  0.00  0.00    +0.023 C 
ATOM     16  C   UNL     1      10.765   9.211   0.781  0.00  0.00    +0.011 C 
ATOM     18  C   UNL     1      10.160   5.288   2.989  0.00  0.00    +0.010 C 
ENDROOT
BRANCH  13   4
ATOM      3  O   UNL     1       7.537   6.135   5.590  0.00  0.00    -0.276 OA
ATOM      4  N   UNL     1       9.302   7.433   4.817  0.00  0.00    -0.312 N 
ATOM     21  C   UNL     1       8.568   6.774   5.788  0.00  0.00    +0.214 C 
ATOM     35  H   UNL     1      10.122   7.965   5.093  0.00  0.00    +0.149 HD
BRANCH  21  22
ATOM     22  C   UNL     1       9.162   6.918   7.179  0.00  0.00    +0.102 C 
BRANCH  22  23
ATOM     23  C   UNL     1      10.118   5.774   7.595  0.00  0.00    -0.029 C 
ATOM     26  C   UNL     1       9.778   5.371   9.043  0.00  0.00    +0.011 C 
ATOM     27  C   UNL     1       9.946   4.541   6.693  0.00  0.00    +0.011 C 
ATOM     28  C   UNL     1      11.584   6.235   7.550  0.00  0.00    +0.011 C 
ENDBRANCH  22  23
ENDBRANCH  21  22
ENDBRANCH  13   4
BRANCH   9   1
ATOM      1  O   UNL     1      10.542   4.758   0.273  0.00  0.00    -0.391 OA
ATOM     36  H   UNL     1       9.689   4.547   0.690  0.00  0.00    +0.210 HD
ENDBRANCH   9   1
BRANCH  12  17
ATOM     17  C   UNL     1      11.173   5.740  -2.424  0.00  0.00    +0.078 C 
ATOM     19  C   UNL     1      11.042   6.408  -3.793  0.00  0.00    +0.017 C 
BRANCH  17  20
ATOM      2  O   UNL     1       9.799   3.797  -2.690  0.00  0.00    -0.275 OA
ATOM      5  N   UNL     1      12.059   3.392  -2.403  0.00  0.00    -0.300 N 
ATOM     20  C   UNL     1      10.945   4.230  -2.525  0.00  0.00    +0.219 C 
ATOM     25  C   UNL     1      11.873   1.947  -2.473  0.00  0.00    +0.132 C 
BRANCH   5  24
ATOM     24  C   UNL     1      13.446   3.822  -2.242  0.00  0.00    +0.142 C 
BRANCH  24  29
ATOM     29  C   UNL     1      13.742   4.246  -0.833  0.00  0.00    -0.030 A 
ATOM     30  C   UNL     1      14.187   5.543  -0.574  0.00  0.00    +0.005 A 
ATOM     31  C   UNL     1      13.573   3.344   0.218  0.00  0.00    +0.005 A 
ATOM     32  C   UNL     1      14.462   5.938   0.736  0.00  0.00    +0.000 A 
ATOM     33  C   UNL     1      13.847   3.739   1.528  0.00  0.00    +0.000 A 
ATOM     34  C   UNL     1      14.292   5.036   1.786  0.00  0.00    +0.000 A 
ENDBRANCH  24  29
ENDBRANCH   5  24
ENDBRANCH  17  20
ENDBRANCH  12  17
TORSDOF 8
ENDMDL
MODEL 8
REMARK VINA RESULT:      -6.2      1.707      2.636
REMARK  Name = 45361412
REMARK  15 active torsions:
REMARK  status: ('A' for Active; 'I' for Inactive)
REMARK    1  A    between atoms: O_1  and  C_9
REMARK    2  A    between atoms: N_4  and  C_13
REMARK    3  A    between atoms: N_5  and  C_24
REMARK    4  A    between atoms: N_5  and  C_25
REMARK    5  A    between atoms: C_6  and  C_16
REMARK    6  A    between atoms: C_8  and  C_18
REMARK    7  A    between atoms: C_12  and  C_17
REMARK    8  A    between atoms: C_17  and  C_19
REMARK    9  A    between atoms: C_17  and  C_20
REMARK   10  A    between atoms: C_21  and  C_22
REMARK   11  A    between atoms: C_22  and  C_23
REMARK   12  A    between atoms: C_23  and  C_26
REMARK   13  A    between atoms: C_23  and  C_27
REMARK   14  A    between atoms: C_23  and  C_28
REMARK   15  A    between atoms: C_24  and  C_29
REMARK                            x       y       z     vdW  Elec       q    Type
REMARK                         _______ _______ _______ _____ _____    ______ ____
ROOT
ATOM      6  C   UNL     1      -8.396 -11.530  18.337  0.00  0.00    -0.027 C 
ATOM      7  C   UNL     1      -8.155 -10.311  17.387  0.00  0.00    +0.028 C 
ATOM      8  C   UNL     1      -9.519  -9.666  16.949  0.00  0.00    +0.012 C 
ATOM      9  C   UNL     1      -7.189 -10.684  16.225  0.00  0.00    +0.122 C 
ATOM     10  C   UNL     1      -7.035 -12.071  18.838  0.00  0.00    +0.007 C 
ATOM     11  C   UNL     1      -9.197 -11.057  19.572  0.00  0.00    +0.009 C 
ATOM     12  C   UNL     1      -5.873 -11.320  16.728  0.00  0.00    +0.029 C 
ATOM     13  C   UNL     1     -10.349  -9.262  18.200  0.00  0.00    +0.076 C 
ATOM     14  C   UNL     1      -6.103 -12.474  17.704  0.00  0.00    +0.007 C 
ATOM     15  C   UNL     1     -10.520 -10.397  19.209  0.00  0.00    +0.023 C 
ATOM     16  C   UNL     1      -9.164 -12.684  17.643  0.00  0.00    +0.011 C 
ATOM     18  C   UNL     1      -9.355  -8.440  16.034  0.00  0.00    +0.010 C 
ENDROOT
BRANCH  13   4
ATOM      3  O   UNL     1     -12.390 -10.653  16.688  0.00  0.00    -0.276 OA
ATOM      4  N   UNL     1     -11.661  -8.769  17.837  0.00  0.00    -0.312 N 
ATOM     21  C   UNL     1     -12.573  -9.512  17.107  0.00  0.00    +0.214 C 
ATOM     35  H   UNL     1     -11.898  -7.819  18.104  0.00  0.00    +0.149 HD
BRANCH  21  22
ATOM     22  C   UNL     1     -13.872  -8.767  16.849  0.00  0.00    +0.102 C 
BRANCH  22  23
ATOM     23  C   UNL     1     -13.820  -7.767  15.668  0.00  0.00    -0.029 C 
ATOM     26  C   UNL     1     -13.463  -8.555  14.393  0.00  0.00    +0.011 C 
ATOM     27  C   UNL     1     -15.179  -7.081  15.452  0.00  0.00    +0.011 C 
ATOM     28  C   UNL     1     -12.741  -6.697  15.897  0.00  0.00    +0.011 C 
ENDBRANCH  22  23
ENDBRANCH  21  22
ENDBRANCH  13   4
BRANCH   9   1
ATOM      1  O   UNL     1      -6.825  -9.503  15.510  0.00  0.00    -0.391 OA
ATOM     36  H   UNL     1      -6.555  -9.763  14.613  0.00  0.00    +0.210 HD
ENDBRANCH   9   1
BRANCH  12  17
ATOM     17  C   UNL     1      -4.992 -11.800  15.567  0.00  0.00    +0.078 C 
ATOM     19  C   UNL     1      -4.764 -13.307  15.690  0.00  0.00    +0.017 C 
BRANCH  17  20
ATOM      2  O   UNL     1      -3.256 -10.538  16.628  0.00  0.00    -0.275 OA
ATOM      5  N   UNL     1      -2.970 -10.927  14.365  0.00  0.00    -0.300 N 
ATOM     20  C   UNL     1      -3.664 -11.040  15.575  0.00  0.00    +0.219 C 
ATOM     25  C   UNL     1      -1.711 -10.190  14.332  0.00  0.00    +0.132 C 
BRANCH   5  24
ATOM     24  C   UNL     1      -3.364 -11.518  13.088  0.00  0.00    +0.142 C 
BRANCH  24  29
ATOM     29  C   UNL     1      -3.832 -10.479  12.109  0.00  0.00    -0.030 A 
ATOM     30  C   UNL     1      -3.017 -10.112  11.039  0.00  0.00    +0.005 A 
ATOM     31  C   UNL     1      -5.082  -9.882  12.271  0.00  0.00    +0.005 A 
ATOM     32  C   UNL     1      -3.452  -9.147  10.129  0.00  0.00    +0.000 A 
ATOM     33  C   UNL     1      -5.518  -8.918  11.361  0.00  0.00    +0.000 A 
ATOM     34  C   UNL     1      -4.702  -8.551  10.290  0.00  0.00    +0.000 A 
ENDBRANCH  24  29
ENDBRANCH   5  24
ENDBRANCH  17  20
ENDBRANCH  12  17
TORSDOF 8
ENDMDL
MODEL 9
REMARK VINA RESULT:      -6.1     24.855     27.105
REMARK  Name = 45361412
REMARK  15 active torsions:
REMARK  status: ('A' for Active; 'I' for Inactive)
REMARK    1  A    between atoms: O_1  and  C_9
REMARK    2  A    between atoms: N_4  and  C_13
REMARK    3  A    between atoms: N_5  and  C_24
REMARK    4  A    between atoms: N_5  and  C_25
REMARK    5  A    between atoms: C_6  and  C_16
REMARK    6  A    between atoms: C_8  and  C_18
REMARK    7  A    between atoms: C_12  and  C_17
REMARK    8  A    between atoms: C_17  and  C_19
REMARK    9  A    between atoms: C_17  and  C_20
REMARK   10  A    between atoms: C_21  and  C_22
REMARK   11  A    between atoms: C_22  and  C_23
REMARK   12  A    between atoms: C_23  and  C_26
REMARK   13  A    between atoms: C_23  and  C_27
REMARK   14  A    between atoms: C_23  and  C_28
REMARK   15  A    between atoms: C_24  and  C_29
REMARK                            x       y       z     vdW  Elec       q    Type
REMARK                         _______ _______ _______ _____ _____    ______ ____
ROOT
ATOM      6  C   UNL     1       9.473   6.449   6.129  0.00  0.00    -0.027 C 
ATOM      7  C   UNL     1      10.446   7.479   5.464  0.00  0.00    +0.028 C 
ATOM      8  C   UNL     1      10.001   8.952   5.780  0.00  0.00    +0.012 C 
ATOM      9  C   UNL     1      10.665   7.156   3.958  0.00  0.00    +0.122 C 
ATOM     10  C   UNL     1      10.001   5.014   5.894  0.00  0.00    +0.007 C 
ATOM     11  C   UNL     1       9.443   6.696   7.655  0.00  0.00    +0.009 C 
ATOM     12  C   UNL     1      11.094   5.689   3.721  0.00  0.00    +0.029 C 
ATOM     13  C   UNL     1       9.902   9.166   7.317  0.00  0.00    +0.076 C 
ATOM     14  C   UNL     1      10.180   4.681   4.419  0.00  0.00    +0.007 C 
ATOM     15  C   UNL     1       9.044   8.118   8.023  0.00  0.00    +0.023 C 
ATOM     16  C   UNL     1       8.031   6.546   5.569  0.00  0.00    +0.011 C 
ATOM     18  C   UNL     1      10.933  10.019   5.180  0.00  0.00    +0.010 C 
ENDROOT
BRANCH  13   4
ATOM      3  O   UNL     1      11.207  11.235   8.868  0.00  0.00    -0.276 OA
ATOM      4  N   UNL     1       9.384  10.478   7.643  0.00  0.00    -0.312 N 
ATOM     21  C   UNL     1      10.085  11.404   8.395  0.00  0.00    +0.214 C 
ATOM     35  H   UNL     1       8.445  10.705   7.329  0.00  0.00    +0.149 HD
BRANCH  21  22
ATOM     22  C   UNL     1       9.320  12.700   8.604  0.00  0.00    +0.102 C 
BRANCH  22  23
ATOM     23  C   UNL     1       8.709  12.870  10.016  0.00  0.00    -0.029 C 
ATOM     26  C   UNL     1       7.259  13.367   9.851  0.00  0.00    +0.011 C 
ATOM     27  C   UNL     1       8.682  11.537  10.781  0.00  0.00    +0.011 C 
ATOM     28  C   UNL     1       9.490  13.910  10.835  0.00  0.00    +0.011 C 
ENDBRANCH  22  23
ENDBRANCH  21  22
ENDBRANCH  13   4
BRANCH   9   1
ATOM      1  O   UNL     1      11.716   7.975   3.443  0.00  0.00    -0.391 OA
ATOM     36  H   UNL     1      12.097   7.527   2.669  0.00  0.00    +0.210 HD
ENDBRANCH   9   1
BRANCH  12  17
ATOM     17  C   UNL     1      11.177   5.354   2.227  0.00  0.00    +0.078 C 
ATOM     19  C   UNL     1      10.773   3.896   2.008  0.00  0.00    +0.017 C 
BRANCH  17  20
ATOM      2  O   UNL     1      13.537   5.639   2.517  0.00  0.00    -0.275 OA
ATOM      5  N   UNL     1      12.765   5.838   0.345  0.00  0.00    -0.300 N 
ATOM     20  C   UNL     1      12.596   5.614   1.715  0.00  0.00    +0.219 C 
ATOM     25  C   UNL     1      14.102   6.111  -0.173  0.00  0.00    +0.132 C 
BRANCH   5  24
ATOM     24  C   UNL     1      11.716   5.792  -0.671  0.00  0.00    +0.142 C 
BRANCH  24  29
ATOM     29  C   UNL     1      11.949   4.697  -1.671  0.00  0.00    -0.030 A 
ATOM     30  C   UNL     1      12.102   5.008  -3.022  0.00  0.00    +0.005 A 
ATOM     31  C   UNL     1      12.013   3.369  -1.249  0.00  0.00    +0.005 A 
ATOM     32  C   UNL     1      12.319   3.990  -3.952  0.00  0.00    +0.000 A 
ATOM     33  C   UNL     1      12.231   2.352  -2.179  0.00  0.00    +0.000 A 
ATOM     34  C   UNL     1      12.384   2.662  -3.530  0.00  0.00    +0.000 A 
ENDBRANCH  24  29
ENDBRANCH   5  24
ENDBRANCH  17  20
ENDBRANCH  12  17
TORSDOF 8
ENDMDL
MODEL 10
REMARK VINA RESULT:      -5.9      2.054      2.446
REMARK  Name = 45361412
REMARK  15 active torsions:
REMARK  status: ('A' for Active; 'I' for Inactive)
REMARK    1  A    between atoms: O_1  and  C_9
REMARK    2  A    between atoms: N_4  and  C_13
REMARK    3  A    between atoms: N_5  and  C_24
REMARK    4  A    between atoms: N_5  and  C_25
REMARK    5  A    between atoms: C_6  and  C_16
REMARK    6  A    between atoms: C_8  and  C_18
REMARK    7  A    between atoms: C_12  and  C_17
REMARK    8  A    between atoms: C_17  and  C_19
REMARK    9  A    between atoms: C_17  and  C_20
REMARK   10  A    between atoms: C_21  and  C_22
REMARK   11  A    between atoms: C_22  and  C_23
REMARK   12  A    between atoms: C_23  and  C_26
REMARK   13  A    between atoms: C_23  and  C_27
REMARK   14  A    between atoms: C_23  and  C_28
REMARK   15  A    between atoms: C_24  and  C_29
REMARK                            x       y       z     vdW  Elec       q    Type
REMARK                         _______ _______ _______ _____ _____    ______ ____
ROOT
ATOM      6  C   UNL     1      -5.133 -11.476  17.823  0.00  0.00    -0.027 C 
ATOM      7  C   UNL     1      -6.281 -11.572  16.764  0.00  0.00    +0.028 C 
ATOM      8  C   UNL     1      -7.585 -12.167  17.407  0.00  0.00    +0.012 C 
ATOM      9  C   UNL     1      -5.792 -12.280  15.467  0.00  0.00    +0.122 C 
ATOM     10  C   UNL     1      -3.903 -10.784  17.189  0.00  0.00    +0.007 C 
ATOM     11  C   UNL     1      -5.609 -10.599  19.004  0.00  0.00    +0.009 C 
ATOM     12  C   UNL     1      -4.502 -11.648  14.895  0.00  0.00    +0.029 C 
ATOM     13  C   UNL     1      -8.012 -11.321  18.639  0.00  0.00    +0.076 C 
ATOM     14  C   UNL     1      -3.398 -11.496  15.942  0.00  0.00    +0.007 C 
ATOM     15  C   UNL     1      -6.887 -11.111  19.652  0.00  0.00    +0.023 C 
ATOM     16  C   UNL     1      -4.701 -12.864  18.361  0.00  0.00    +0.011 C 
ATOM     18  C   UNL     1      -8.766 -12.264  16.426  0.00  0.00    +0.010 C 
ENDROOT
BRANCH  13   4
ATOM      3  O   UNL     1     -10.434  -9.981  19.492  0.00  0.00    -0.276 OA
ATOM      4  N   UNL     1      -9.145 -11.906  19.325  0.00  0.00    -0.312 N 
ATOM     21  C   UNL     1     -10.263 -11.181  19.695  0.00  0.00    +0.214 C 
ATOM     35  H   UNL     1      -9.088 -12.889  19.573  0.00  0.00    +0.149 HD
BRANCH  21  22
ATOM     22  C   UNL     1     -11.307 -12.024  20.409  0.00  0.00    +0.102 C 
BRANCH  22  23
ATOM     23  C   UNL     1     -12.607 -12.262  19.603  0.00  0.00    -0.029 C 
ATOM     26  C   UNL     1     -13.576 -11.103  19.909  0.00  0.00    +0.011 C 
ATOM     27  C   UNL     1     -12.336 -12.283  18.090  0.00  0.00    +0.011 C 
ATOM     28  C   UNL     1     -13.281 -13.581  20.016  0.00  0.00    +0.011 C 
ENDBRANCH  22  23
ENDBRANCH  21  22
ENDBRANCH  13   4
BRANCH   9   1
ATOM      1  O   UNL     1      -6.791 -12.158  14.453  0.00  0.00    -0.391 OA
ATOM     36  H   UNL     1      -6.840 -13.002  13.973  0.00  0.00    +0.210 HD
ENDBRANCH   9   1
BRANCH  12  17
ATOM     17  C   UNL     1      -3.965 -12.438  13.695  0.00  0.00    +0.078 C 
ATOM     19  C   UNL     1      -3.699 -13.884  14.115  0.00  0.00    +0.017 C 
BRANCH  17  20
ATOM      2  O   UNL     1      -1.588 -12.215  13.514  0.00  0.00    -0.275 OA
ATOM      5  N   UNL     1      -2.831 -10.672  12.319  0.00  0.00    -0.300 N 
ATOM     20  C   UNL     1      -2.690 -11.776  13.167  0.00  0.00    +0.219 C 
ATOM     25  C   UNL     1      -1.636 -10.004  11.815  0.00  0.00    +0.132 C 
BRANCH   5  24
ATOM     24  C   UNL     1      -4.091 -10.114  11.835  0.00  0.00    +0.142 C 
BRANCH  24  29
ATOM     29  C   UNL     1      -4.332 -10.440  10.389  0.00  0.00    -0.030 A 
ATOM     30  C   UNL     1      -4.592  -9.418   9.477  0.00  0.00    +0.005 A 
ATOM     31  C   UNL     1      -4.296 -11.767   9.958  0.00  0.00    +0.005 A 
ATOM     32  C   UNL     1      -4.816  -9.721   8.134  0.00  0.00    +0.000 A 
ATOM     33  C   UNL     1      -4.519 -12.070   8.615  0.00  0.00    +0.000 A 
ATOM     34  C   UNL     1      -4.779 -11.047   7.703  0.00  0.00    +0.000 A 
ENDBRANCH  24  29
ENDBRANCH   5  24
ENDBRANCH  17  20
ENDBRANCH  12  17
TORSDOF 8
ENDMDL
