MODEL 1
REMARK VINA RESULT:      -7.1      0.000      0.000
REMARK  Name = 51137721
REMARK  4 active torsions:
REMARK  status: ('A' for Active; 'I' for Inactive)
REMARK    1  A    between atoms: N_4  and  C_13
REMARK    2  A    between atoms: C_7  and  C_11
REMARK    3  A    between atoms: C_13  and  C_15
REMARK    4  A    between atoms: C_14  and  C_16
REMARK                            x       y       z     vdW  Elec       q    Type
REMARK                         _______ _______ _______ _____ _____    ______ ____
ROOT
ATOM      2  O   UNL     1      10.459   8.192  22.680  0.00  0.00    -0.253 OA
ATOM      3  N   UNL     1      12.515   8.158  21.637  0.00  0.00    -0.285 N 
ATOM      4  N   UNL     1      11.938   9.918  23.069  0.00  0.00    -0.295 N 
ATOM      7  C   UNL     1      13.385   6.831  19.865  0.00  0.00    +0.095 C 
ATOM      8  C   UNL     1      14.535   7.583  20.552  0.00  0.00    +0.033 C 
ATOM      9  C   UNL     1      12.278   6.907  20.925  0.00  0.00    +0.122 C 
ATOM     10  C   UNL     1      13.839   8.693  21.330  0.00  0.00    +0.110 C 
ATOM     12  C   UNL     1      11.557   8.717  22.479  0.00  0.00    +0.302 C 
ATOM     22  H   UNL     1      12.832  10.337  22.836  0.00  0.00    +0.151 HD
ENDROOT
BRANCH   7  11
ATOM      1  O   UNL     1      11.773   7.781  18.277  0.00  0.00    -0.425 OA
ATOM      5  N   UNL     1      13.860   7.645  17.482  0.00  0.00    -0.112 NA
ATOM      6  N   UNL     1      13.061   8.193  16.496  0.00  0.00    -0.113 NA
ATOM     11  C   UNL     1      13.065   7.421  18.503  0.00  0.00    +0.222 A 
ATOM     14  C   UNL     1      11.853   8.254  17.003  0.00  0.00    +0.214 A 
ATOM     16  C   UNL     1      10.609   8.752  16.401  0.00  0.00    +0.111 C 
ENDBRANCH   7  11
BRANCH   4  13
ATOM     13  C   UNL     1      11.075  10.647  23.969  0.00  0.00    +0.141 C 
BRANCH  13  15
ATOM     15  C   UNL     1      10.795  12.037  23.475  0.00  0.00    -0.030 A 
ATOM     17  C   UNL     1      10.281  12.996  24.348  0.00  0.00    +0.005 A 
ATOM     18  C   UNL     1      11.050  12.369  22.145  0.00  0.00    +0.005 A 
ATOM     19  C   UNL     1      10.022  14.288  23.888  0.00  0.00    +0.000 A 
ATOM     20  C   UNL     1      10.790  13.660  21.685  0.00  0.00    +0.000 A 
ATOM     21  C   UNL     1      10.276  14.619  22.558  0.00  0.00    +0.000 A 
ENDBRANCH  13  15
ENDBRANCH   4  13
TORSDOF 3
ENDMDL
MODEL 2
REMARK VINA RESULT:      -6.8      2.090      2.474
REMARK  Name = 51137721
REMARK  4 active torsions:
REMARK  status: ('A' for Active; 'I' for Inactive)
REMARK    1  A    between atoms: N_4  and  C_13
REMARK    2  A    between atoms: C_7  and  C_11
REMARK    3  A    between atoms: C_13  and  C_15
REMARK    4  A    between atoms: C_14  and  C_16
REMARK                            x       y       z     vdW  Elec       q    Type
REMARK                         _______ _______ _______ _____ _____    ______ ____
ROOT
ATOM      2  O   UNL     1      10.607   7.882  20.308  0.00  0.00    -0.253 OA
ATOM      3  N   UNL     1      12.772   8.130  19.554  0.00  0.00    -0.285 N 
ATOM      4  N   UNL     1      12.095   9.114  21.568  0.00  0.00    -0.295 N 
ATOM      7  C   UNL     1      13.798   7.657  17.461  0.00  0.00    +0.095 C 
ATOM      8  C   UNL     1      14.884   7.919  18.515  0.00  0.00    +0.033 C 
ATOM      9  C   UNL     1      12.575   7.353  18.336  0.00  0.00    +0.122 C 
ATOM     10  C   UNL     1      14.143   8.625  19.644  0.00  0.00    +0.110 C 
ATOM     12  C   UNL     1      11.742   8.340  20.467  0.00  0.00    +0.302 C 
ATOM     22  H   UNL     1      13.026   9.510  21.632  0.00  0.00    +0.151 HD
ENDROOT
BRANCH   7  11
ATOM      1  O   UNL     1      14.571   9.829  16.619  0.00  0.00    -0.425 OA
ATOM      5  N   UNL     1      12.805   9.004  15.519  0.00  0.00    -0.112 NA
ATOM      6  N   UNL     1      13.135  10.219  14.948  0.00  0.00    -0.113 NA
ATOM     11  C   UNL     1      13.670   8.817  16.490  0.00  0.00    +0.222 A 
ATOM     14  C   UNL     1      14.170  10.663  15.621  0.00  0.00    +0.214 A 
ATOM     16  C   UNL     1      14.936  11.905  15.447  0.00  0.00    +0.111 C 
ENDBRANCH   7  11
BRANCH   4  13
ATOM     13  C   UNL     1      11.158   9.441  22.617  0.00  0.00    +0.141 C 
BRANCH  13  15
ATOM     15  C   UNL     1      11.054  10.922  22.836  0.00  0.00    -0.030 A 
ATOM     17  C   UNL     1      10.738  11.421  24.100  0.00  0.00    +0.005 A 
ATOM     18  C   UNL     1      11.274  11.801  21.774  0.00  0.00    +0.005 A 
ATOM     19  C   UNL     1      10.642  12.798  24.302  0.00  0.00    +0.000 A 
ATOM     20  C   UNL     1      11.177  13.177  21.976  0.00  0.00    +0.000 A 
ATOM     21  C   UNL     1      10.862  13.675  23.240  0.00  0.00    +0.000 A 
ENDBRANCH  13  15
ENDBRANCH   4  13
TORSDOF 3
ENDMDL
MODEL 3
REMARK VINA RESULT:      -6.3     25.452     30.150
REMARK  Name = 51137721
REMARK  4 active torsions:
REMARK  status: ('A' for Active; 'I' for Inactive)
REMARK    1  A    between atoms: N_4  and  C_13
REMARK    2  A    between atoms: C_7  and  C_11
REMARK    3  A    between atoms: C_13  and  C_15
REMARK    4  A    between atoms: C_14  and  C_16
REMARK                            x       y       z     vdW  Elec       q    Type
REMARK                         _______ _______ _______ _____ _____    ______ ____
ROOT
ATOM      2  O   UNL     1       0.154   2.110  -3.859  0.00  0.00    -0.253 OA
ATOM      3  N   UNL     1       0.948   3.674  -5.356  0.00  0.00    -0.285 N 
ATOM      4  N   UNL     1       0.551   1.469  -6.038  0.00  0.00    -0.295 N 
ATOM      7  C   UNL     1       1.834   5.861  -5.061  0.00  0.00    +0.095 C 
ATOM      8  C   UNL     1       1.527   5.631  -6.549  0.00  0.00    +0.033 C 
ATOM      9  C   UNL     1       0.995   4.766  -4.391  0.00  0.00    +0.122 C 
ATOM     10  C   UNL     1       1.403   4.117  -6.672  0.00  0.00    +0.110 C 
ATOM     12  C   UNL     1       0.522   2.396  -5.002  0.00  0.00    +0.302 C 
ATOM     22  H   UNL     1       0.908   1.738  -6.949  0.00  0.00    +0.151 HD
ENDROOT
BRANCH   7  11
ATOM      1  O   UNL     1       3.789   6.673  -3.820  0.00  0.00    -0.425 OA
ATOM      5  N   UNL     1       4.270   5.119  -5.356  0.00  0.00    -0.112 NA
ATOM      6  N   UNL     1       5.450   5.486  -4.735  0.00  0.00    -0.113 NA
ATOM     11  C   UNL     1       3.328   5.837  -4.789  0.00  0.00    +0.222 A 
ATOM     14  C   UNL     1       5.121   6.394  -3.847  0.00  0.00    +0.214 A 
ATOM     16  C   UNL     1       5.973   7.129  -2.902  0.00  0.00    +0.111 C 
ENDBRANCH   7  11
BRANCH   4  13
ATOM     13  C   UNL     1       0.149   0.094  -5.859  0.00  0.00    +0.141 C 
BRANCH  13  15
ATOM     15  C   UNL     1      -1.118  -0.222  -6.601  0.00  0.00    -0.030 A 
ATOM     17  C   UNL     1      -1.732  -1.463  -6.435  0.00  0.00    +0.005 A 
ATOM     18  C   UNL     1      -1.679   0.726  -7.456  0.00  0.00    +0.005 A 
ATOM     19  C   UNL     1      -2.910  -1.756  -7.125  0.00  0.00    +0.000 A 
ATOM     20  C   UNL     1      -2.856   0.433  -8.146  0.00  0.00    +0.000 A 
ATOM     21  C   UNL     1      -3.470  -0.807  -7.980  0.00  0.00    +0.000 A 
ENDBRANCH  13  15
ENDBRANCH   4  13
TORSDOF 3
ENDMDL
MODEL 4
REMARK VINA RESULT:      -6.2      4.234      7.283
REMARK  Name = 51137721
REMARK  4 active torsions:
REMARK  status: ('A' for Active; 'I' for Inactive)
REMARK    1  A    between atoms: N_4  and  C_13
REMARK    2  A    between atoms: C_7  and  C_11
REMARK    3  A    between atoms: C_13  and  C_15
REMARK    4  A    between atoms: C_14  and  C_16
REMARK                            x       y       z     vdW  Elec       q    Type
REMARK                         _______ _______ _______ _____ _____    ______ ____
ROOT
ATOM      2  O   UNL     1      13.486   8.639  15.210  0.00  0.00    -0.253 OA
ATOM      3  N   UNL     1      13.024   8.863  17.458  0.00  0.00    -0.285 N 
ATOM      4  N   UNL     1      13.543  10.740  16.159  0.00  0.00    -0.295 N 
ATOM      7  C   UNL     1      12.821   7.270  19.213  0.00  0.00    +0.095 C 
ATOM      8  C   UNL     1      12.275   8.625  19.688  0.00  0.00    +0.033 C 
ATOM      9  C   UNL     1      12.807   7.439  17.688  0.00  0.00    +0.122 C 
ATOM     10  C   UNL     1      12.849   9.626  18.691  0.00  0.00    +0.110 C 
ATOM     12  C   UNL     1      13.359   9.362  16.202  0.00  0.00    +0.302 C 
ATOM     22  H   UNL     1      13.475  11.288  17.010  0.00  0.00    +0.151 HD
ENDROOT
BRANCH   7  11
ATOM      1  O   UNL     1      15.177   6.614  19.011  0.00  0.00    -0.425 OA
ATOM      5  N   UNL     1      14.507   6.957  21.118  0.00  0.00    -0.112 NA
ATOM      6  N   UNL     1      15.842   6.596  21.147  0.00  0.00    -0.113 NA
ATOM     11  C   UNL     1      14.163   6.953  19.851  0.00  0.00    +0.222 A 
ATOM     14  C   UNL     1      16.190   6.406  19.896  0.00  0.00    +0.214 A 
ATOM     16  C   UNL     1      17.491   6.013  19.338  0.00  0.00    +0.111 C 
ENDBRANCH   7  11
BRANCH   4  13
ATOM     13  C   UNL     1      13.897  11.437  14.944  0.00  0.00    +0.141 C 
BRANCH  13  15
ATOM     15  C   UNL     1      15.344  11.838  14.929  0.00  0.00    -0.030 A 
ATOM     17  C   UNL     1      16.057  11.832  13.730  0.00  0.00    +0.005 A 
ATOM     18  C   UNL     1      15.975  12.216  16.115  0.00  0.00    +0.005 A 
ATOM     19  C   UNL     1      17.402  12.205  13.717  0.00  0.00    +0.000 A 
ATOM     20  C   UNL     1      17.320  12.587  16.101  0.00  0.00    +0.000 A 
ATOM     21  C   UNL     1      18.032  12.582  14.903  0.00  0.00    +0.000 A 
ENDBRANCH  13  15
ENDBRANCH   4  13
TORSDOF 3
ENDMDL
MODEL 5
REMARK VINA RESULT:      -6.2     27.901     29.178
REMARK  Name = 51137721
REMARK  4 active torsions:
REMARK  status: ('A' for Active; 'I' for Inactive)
REMARK    1  A    between atoms: N_4  and  C_13
REMARK    2  A    between atoms: C_7  and  C_11
REMARK    3  A    between atoms: C_13  and  C_15
REMARK    4  A    between atoms: C_14  and  C_16
REMARK                            x       y       z     vdW  Elec       q    Type
REMARK                         _______ _______ _______ _____ _____    ______ ____
ROOT
ATOM      2  O   UNL     1     -16.827   1.326  24.735  0.00  0.00    -0.253 OA
ATOM      3  N   UNL     1     -16.629   2.419  26.755  0.00  0.00    -0.285 N 
ATOM      4  N   UNL     1     -15.956   3.461  24.769  0.00  0.00    -0.295 N 
ATOM      7  C   UNL     1     -16.814   1.666  29.003  0.00  0.00    +0.095 C 
ATOM      8  C   UNL     1     -16.828   3.201  28.977  0.00  0.00    +0.033 C 
ATOM      9  C   UNL     1     -17.164   1.320  27.551  0.00  0.00    +0.122 C 
ATOM     10  C   UNL     1     -16.270   3.553  27.603  0.00  0.00    +0.110 C 
ATOM     12  C   UNL     1     -16.496   2.330  25.372  0.00  0.00    +0.302 C 
ATOM     22  H   UNL     1     -15.654   4.243  25.339  0.00  0.00    +0.151 HD
ENDROOT
BRANCH   7  11
ATOM      1  O   UNL     1     -15.028  -0.017  28.968  0.00  0.00    -0.425 OA
ATOM      5  N   UNL     1     -14.717   1.605  30.476  0.00  0.00    -0.112 NA
ATOM      6  N   UNL     1     -13.648   0.733  30.560  0.00  0.00    -0.113 NA
ATOM     11  C   UNL     1     -15.497   1.128  29.534  0.00  0.00    +0.222 A 
ATOM     14  C   UNL     1     -13.872  -0.198  29.662  0.00  0.00    +0.214 A 
ATOM     16  C   UNL     1     -13.064  -1.374  29.313  0.00  0.00    +0.111 C 
ENDBRANCH   7  11
BRANCH   4  13
ATOM     13  C   UNL     1     -15.740   3.551  23.344  0.00  0.00    +0.141 C 
BRANCH  13  15
ATOM     15  C   UNL     1     -15.234   4.904  22.937  0.00  0.00    -0.030 A 
ATOM     17  C   UNL     1     -15.874   6.055  23.396  0.00  0.00    +0.005 A 
ATOM     18  C   UNL     1     -14.123   5.011  22.100  0.00  0.00    +0.005 A 
ATOM     19  C   UNL     1     -15.403   7.313  23.018  0.00  0.00    +0.000 A 
ATOM     20  C   UNL     1     -13.653   6.268  21.721  0.00  0.00    +0.000 A 
ATOM     21  C   UNL     1     -14.293   7.419  22.181  0.00  0.00    +0.000 A 
ENDBRANCH  13  15
ENDBRANCH   4  13
TORSDOF 3
ENDMDL
MODEL 6
REMARK VINA RESULT:      -6.1      3.970      7.439
REMARK  Name = 51137721
REMARK  4 active torsions:
REMARK  status: ('A' for Active; 'I' for Inactive)
REMARK    1  A    between atoms: N_4  and  C_13
REMARK    2  A    between atoms: C_7  and  C_11
REMARK    3  A    between atoms: C_13  and  C_15
REMARK    4  A    between atoms: C_14  and  C_16
REMARK                            x       y       z     vdW  Elec       q    Type
REMARK                         _______ _______ _______ _____ _____    ______ ____
ROOT
ATOM      2  O   UNL     1      16.416   9.893  22.046  0.00  0.00    -0.253 OA
ATOM      3  N   UNL     1      14.883   8.321  21.343  0.00  0.00    -0.285 N 
ATOM      4  N   UNL     1      17.150   7.767  21.539  0.00  0.00    -0.295 N 
ATOM      7  C   UNL     1      12.616   8.499  20.648  0.00  0.00    +0.095 C 
ATOM      8  C   UNL     1      12.959   7.023  20.896  0.00  0.00    +0.033 C 
ATOM      9  C   UNL     1      13.735   9.218  21.412  0.00  0.00    +0.122 C 
ATOM     10  C   UNL     1      14.483   6.990  20.891  0.00  0.00    +0.110 C 
ATOM     12  C   UNL     1      16.168   8.743  21.672  0.00  0.00    +0.302 C 
ATOM     22  H   UNL     1      16.907   6.850  21.181  0.00  0.00    +0.151 HD
ENDROOT
BRANCH   7  11
ATOM      1  O   UNL     1      11.362   8.391  18.541  0.00  0.00    -0.425 OA
ATOM      5  N   UNL     1      13.340   9.422  18.369  0.00  0.00    -0.112 NA
ATOM      6  N   UNL     1      12.743   9.431  17.122  0.00  0.00    -0.113 NA
ATOM     11  C   UNL     1      12.498   8.805  19.165  0.00  0.00    +0.222 A 
ATOM     14  C   UNL     1      11.591   8.819  17.270  0.00  0.00    +0.214 A 
ATOM     16  C   UNL     1      10.545   8.543  16.277  0.00  0.00    +0.111 C 
ENDBRANCH   7  11
BRANCH   4  13
ATOM     13  C   UNL     1      18.541   8.022  21.831  0.00  0.00    +0.141 C 
BRANCH  13  15
ATOM     15  C   UNL     1      19.405   6.832  21.529  0.00  0.00    -0.030 A 
ATOM     17  C   UNL     1      19.128   6.031  20.421  0.00  0.00    +0.005 A 
ATOM     18  C   UNL     1      20.485   6.527  22.358  0.00  0.00    +0.005 A 
ATOM     19  C   UNL     1      19.931   4.925  20.142  0.00  0.00    +0.000 A 
ATOM     20  C   UNL     1      21.288   5.420  22.079  0.00  0.00    +0.000 A 
ATOM     21  C   UNL     1      21.011   4.620  20.970  0.00  0.00    +0.000 A 
ENDBRANCH  13  15
ENDBRANCH   4  13
TORSDOF 3
ENDMDL
MODEL 7
REMARK VINA RESULT:      -6.1     26.276     27.885
REMARK  Name = 51137721
REMARK  4 active torsions:
REMARK  status: ('A' for Active; 'I' for Inactive)
REMARK    1  A    between atoms: N_4  and  C_13
REMARK    2  A    between atoms: C_7  and  C_11
REMARK    3  A    between atoms: C_13  and  C_15
REMARK    4  A    between atoms: C_14  and  C_16
REMARK                            x       y       z     vdW  Elec       q    Type
REMARK                         _______ _______ _______ _____ _____    ______ ____
ROOT
ATOM      2  O   UNL     1      -2.018 -10.372  14.843  0.00  0.00    -0.253 OA
ATOM      3  N   UNL     1      -3.672 -11.621  15.853  0.00  0.00    -0.285 N 
ATOM      4  N   UNL     1      -2.871 -12.204  13.732  0.00  0.00    -0.295 N 
ATOM      7  C   UNL     1      -5.031 -11.224  17.764  0.00  0.00    +0.095 C 
ATOM      8  C   UNL     1      -5.153 -12.698  17.349  0.00  0.00    +0.033 C 
ATOM      9  C   UNL     1      -3.737 -10.801  17.058  0.00  0.00    +0.122 C 
ATOM     10  C   UNL     1      -4.628 -12.724  15.918  0.00  0.00    +0.110 C 
ATOM     12  C   UNL     1      -2.795 -11.331  14.811  0.00  0.00    +0.302 C 
ATOM     22  H   UNL     1      -3.559 -12.950  13.730  0.00  0.00    +0.151 HD
ENDROOT
BRANCH   7  11
ATOM      1  O   UNL     1      -7.413 -10.750  18.110  0.00  0.00    -0.425 OA
ATOM      5  N   UNL     1      -6.455  -9.484  16.535  0.00  0.00    -0.112 NA
ATOM      6  N   UNL     1      -7.785  -9.117  16.627  0.00  0.00    -0.113 NA
ATOM     11  C   UNL     1      -6.284 -10.440  17.418  0.00  0.00    +0.222 A 
ATOM     14  C   UNL     1      -8.304  -9.881  17.559  0.00  0.00    +0.214 A 
ATOM     16  C   UNL     1      -9.679  -9.924  18.074  0.00  0.00    +0.111 C 
ENDBRANCH   7  11
BRANCH   4  13
ATOM     13  C   UNL     1      -2.042 -12.060  12.558  0.00  0.00    +0.141 C 
BRANCH  13  15
ATOM     15  C   UNL     1      -2.743 -11.308  11.464  0.00  0.00    -0.030 A 
ATOM     17  C   UNL     1      -2.477  -9.953  11.268  0.00  0.00    +0.005 A 
ATOM     18  C   UNL     1      -3.660 -11.965  10.644  0.00  0.00    +0.005 A 
ATOM     19  C   UNL     1      -3.130  -9.255  10.251  0.00  0.00    +0.000 A 
ATOM     20  C   UNL     1      -4.313 -11.267   9.628  0.00  0.00    +0.000 A 
ATOM     21  C   UNL     1      -4.047  -9.912   9.432  0.00  0.00    +0.000 A 
ENDBRANCH  13  15
ENDBRANCH   4  13
TORSDOF 3
ENDMDL
MODEL 8
REMARK VINA RESULT:      -6.0     26.694     28.261
REMARK  Name = 51137721
REMARK  4 active torsions:
REMARK  status: ('A' for Active; 'I' for Inactive)
REMARK    1  A    between atoms: N_4  and  C_13
REMARK    2  A    between atoms: C_7  and  C_11
REMARK    3  A    between atoms: C_13  and  C_15
REMARK    4  A    between atoms: C_14  and  C_16
REMARK                            x       y       z     vdW  Elec       q    Type
REMARK                         _______ _______ _______ _____ _____    ______ ____
ROOT
ATOM      2  O   UNL     1      -9.332 -12.266  17.942  0.00  0.00    -0.253 OA
ATOM      3  N   UNL     1      -7.296 -11.573  18.774  0.00  0.00    -0.285 N 
ATOM      4  N   UNL     1      -9.220 -10.283  19.114  0.00  0.00    -0.295 N 
ATOM      7  C   UNL     1      -5.073 -12.319  18.380  0.00  0.00    +0.095 C 
ATOM      8  C   UNL     1      -5.091 -11.396  19.608  0.00  0.00    +0.033 C 
ATOM      9  C   UNL     1      -6.549 -12.714  18.258  0.00  0.00    +0.122 C 
ATOM     10  C   UNL     1      -6.418 -10.654  19.494  0.00  0.00    +0.110 C 
ATOM     12  C   UNL     1      -8.666 -11.435  18.566  0.00  0.00    +0.302 C 
ATOM     22  H   UNL     1      -8.626  -9.605  19.577  0.00  0.00    +0.151 HD
ENDROOT
BRANCH   7  11
ATOM      1  O   UNL     1      -3.123 -11.338  17.257  0.00  0.00    -0.425 OA
ATOM      5  N   UNL     1      -4.999 -11.275  16.040  0.00  0.00    -0.112 NA
ATOM      6  N   UNL     1      -3.987 -10.696  15.296  0.00  0.00    -0.113 NA
ATOM     11  C   UNL     1      -4.448 -11.634  17.176  0.00  0.00    +0.222 A 
ATOM     14  C   UNL     1      -2.912 -10.755  16.046  0.00  0.00    +0.214 A 
ATOM     16  C   UNL     1      -1.547 -10.291  15.761  0.00  0.00    +0.111 C 
ENDBRANCH   7  11
BRANCH   4  13
ATOM     13  C   UNL     1     -10.625  -9.968  18.997  0.00  0.00    +0.141 C 
BRANCH  13  15
ATOM     15  C   UNL     1     -10.892  -9.003  17.878  0.00  0.00    -0.030 A 
ATOM     17  C   UNL     1      -9.865  -8.192  17.396  0.00  0.00    +0.005 A 
ATOM     18  C   UNL     1     -12.169  -8.919  17.320  0.00  0.00    +0.005 A 
ATOM     19  C   UNL     1     -10.115  -7.296  16.355  0.00  0.00    +0.000 A 
ATOM     20  C   UNL     1     -12.418  -8.022  16.281  0.00  0.00    +0.000 A 
ATOM     21  C   UNL     1     -11.391  -7.212  15.799  0.00  0.00    +0.000 A 
ENDBRANCH  13  15
ENDBRANCH   4  13
TORSDOF 3
ENDMDL
MODEL 9
REMARK VINA RESULT:      -5.9     26.743     27.497
REMARK  Name = 51137721
REMARK  4 active torsions:
REMARK  status: ('A' for Active; 'I' for Inactive)
REMARK    1  A    between atoms: N_4  and  C_13
REMARK    2  A    between atoms: C_7  and  C_11
REMARK    3  A    between atoms: C_13  and  C_15
REMARK    4  A    between atoms: C_14  and  C_16
REMARK                            x       y       z     vdW  Elec       q    Type
REMARK                         _______ _______ _______ _____ _____    ______ ____
ROOT
ATOM      2  O   UNL     1      -6.439 -11.493  14.221  0.00  0.00    -0.253 OA
ATOM      3  N   UNL     1      -4.393 -11.101  13.232  0.00  0.00    -0.285 N 
ATOM      4  N   UNL     1      -4.994  -9.985  15.200  0.00  0.00    -0.295 N 
ATOM      7  C   UNL     1      -3.513 -11.682  11.100  0.00  0.00    +0.095 C 
ATOM      8  C   UNL     1      -2.373 -11.198  12.009  0.00  0.00    +0.033 C 
ATOM      9  C   UNL     1      -4.609 -12.019  12.119  0.00  0.00    +0.122 C 
ATOM     10  C   UNL     1      -3.085 -10.458  13.135  0.00  0.00    +0.110 C 
ATOM     12  C   UNL     1      -5.354 -10.903  14.220  0.00  0.00    +0.302 C 
ATOM     22  H   UNL     1      -4.113  -9.489  15.132  0.00  0.00    +0.151 HD
ENDROOT
BRANCH   7  11
ATOM      1  O   UNL     1      -4.696 -11.051   9.045  0.00  0.00    -0.425 OA
ATOM      5  N   UNL     1      -3.471  -9.402   9.931  0.00  0.00    -0.112 NA
ATOM      6  N   UNL     1      -4.079  -8.916   8.789  0.00  0.00    -0.113 NA
ATOM     11  C   UNL     1      -3.860 -10.651  10.041  0.00  0.00    +0.222 A 
ATOM     14  C   UNL     1      -4.784  -9.912   8.305  0.00  0.00    +0.214 A 
ATOM     16  C   UNL     1      -5.633  -9.962   7.107  0.00  0.00    +0.111 C 
ENDBRANCH   7  11
BRANCH   4  13
ATOM     13  C   UNL     1      -5.864  -9.649  16.304  0.00  0.00    +0.141 C 
BRANCH  13  15
ATOM     15  C   UNL     1      -5.524 -10.425  17.543  0.00  0.00    -0.030 A 
ATOM     17  C   UNL     1      -4.316 -11.117  17.623  0.00  0.00    +0.005 A 
ATOM     18  C   UNL     1      -6.417 -10.452  18.615  0.00  0.00    +0.005 A 
ATOM     19  C   UNL     1      -4.001 -11.838  18.776  0.00  0.00    +0.000 A 
ATOM     20  C   UNL     1      -6.102 -11.174  19.767  0.00  0.00    +0.000 A 
ATOM     21  C   UNL     1      -4.894 -11.866  19.847  0.00  0.00    +0.000 A 
ENDBRANCH  13  15
ENDBRANCH   4  13
TORSDOF 3
ENDMDL
MODEL 10
REMARK VINA RESULT:      -5.8      2.567      4.009
REMARK  Name = 51137721
REMARK  4 active torsions:
REMARK  status: ('A' for Active; 'I' for Inactive)
REMARK    1  A    between atoms: N_4  and  C_13
REMARK    2  A    between atoms: C_7  and  C_11
REMARK    3  A    between atoms: C_13  and  C_15
REMARK    4  A    between atoms: C_14  and  C_16
REMARK                            x       y       z     vdW  Elec       q    Type
REMARK                         _______ _______ _______ _____ _____    ______ ____
ROOT
ATOM      2  O   UNL     1      13.348  11.575  19.075  0.00  0.00    -0.253 OA
ATOM      3  N   UNL     1      13.029   9.349  19.583  0.00  0.00    -0.285 N 
ATOM      4  N   UNL     1      12.016  11.019  20.873  0.00  0.00    -0.295 N 
ATOM      7  C   UNL     1      14.109   7.369  18.830  0.00  0.00    +0.095 C 
ATOM      8  C   UNL     1      12.818   6.994  19.574  0.00  0.00    +0.033 C 
ATOM      9  C   UNL     1      13.868   8.847  18.501  0.00  0.00    +0.122 C 
ATOM     10  C   UNL     1      12.471   8.250  20.366  0.00  0.00    +0.110 C 
ATOM     12  C   UNL     1      12.833  10.712  19.791  0.00  0.00    +0.302 C 
ATOM     22  H   UNL     1      11.654  10.278  21.463  0.00  0.00    +0.151 HD
ENDROOT
BRANCH   7  11
ATOM      1  O   UNL     1      16.347   6.380  19.020  0.00  0.00    -0.425 OA
ATOM      5  N   UNL     1      15.603   7.315  20.912  0.00  0.00    -0.112 NA
ATOM      6  N   UNL     1      16.863   6.801  21.156  0.00  0.00    -0.113 NA
ATOM     11  C   UNL     1      15.343   7.046  19.653  0.00  0.00    +0.222 A 
ATOM     14  C   UNL     1      17.258   6.266  20.025  0.00  0.00    +0.214 A 
ATOM     16  C   UNL     1      18.517   5.580  19.705  0.00  0.00    +0.111 C 
ENDBRANCH   7  11
BRANCH   4  13
ATOM     13  C   UNL     1      11.702  12.379  21.245  0.00  0.00    +0.141 C 
BRANCH  13  15
ATOM     15  C   UNL     1      11.338  12.494  22.697  0.00  0.00    -0.030 A 
ATOM     17  C   UNL     1      11.736  11.505  23.596  0.00  0.00    +0.005 A 
ATOM     18  C   UNL     1      10.602  13.591  23.147  0.00  0.00    +0.005 A 
ATOM     19  C   UNL     1      11.398  11.613  24.946  0.00  0.00    +0.000 A 
ATOM     20  C   UNL     1      10.262  13.698  24.495  0.00  0.00    +0.000 A 
ATOM     21  C   UNL     1      10.661  12.709  25.394  0.00  0.00    +0.000 A 
ENDBRANCH  13  15
ENDBRANCH   4  13
TORSDOF 3
ENDMDL
