MODEL 1
REMARK VINA RESULT:      -7.1      0.000      0.000
REMARK  Name = 7155413
REMARK  2 active torsions:
REMARK  status: ('A' for Active; 'I' for Inactive)
REMARK    1  A    between atoms: C_13  and  C_18
REMARK    2  A    between atoms: C_15  and  C_19
REMARK                            x       y       z     vdW  Elec       q    Type
REMARK                         _______ _______ _______ _____ _____    ______ ____
ROOT
ATOM      2  O   UNL     1      17.560   7.637  21.151  0.00  0.00    -0.268 OA
ATOM      3  O   UNL     1      14.407  10.710  23.673  0.00  0.00    -0.269 OA
ATOM      4  N   UNL     1      16.204   9.225  20.093  0.00  0.00    -0.311 N 
ATOM      5  N   UNL     1      14.342  11.393  21.438  0.00  0.00    -0.296 N 
ATOM      6  C   UNL     1      16.579  11.742  20.422  0.00  0.00    +0.027 C 
ATOM      7  C   UNL     1      14.720  10.947  19.021  0.00  0.00    +0.054 C 
ATOM      8  C   UNL     1      15.938  11.869  19.048  0.00  0.00    +0.018 C 
ATOM      9  C   UNL     1      17.068  10.303  20.598  0.00  0.00    +0.130 C 
ATOM     10  C   UNL     1      15.588  12.153  21.523  0.00  0.00    +0.113 C 
ATOM     11  C   UNL     1      13.715  11.388  20.108  0.00  0.00    +0.117 C 
ATOM     12  C   UNL     1      15.115   9.484  19.237  0.00  0.00    +0.034 A 
ATOM     13  C   UNL     1      14.440   8.451  18.669  0.00  0.00    +0.002 A 
ATOM     14  C   UNL     1      16.611   7.920  20.421  0.00  0.00    +0.252 A 
ATOM     15  C   UNL     1      13.879  10.704  22.561  0.00  0.00    +0.253 C 
ATOM     16  C   UNL     1      14.828   7.091  18.987  0.00  0.00    +0.015 A 
ATOM     17  C   UNL     1      15.832   6.814  19.819  0.00  0.00    +0.071 A 
ENDROOT
BRANCH  13  18
ATOM     18  C   UNL     1      13.306   8.677  17.745  0.00  0.00    -0.016 A 
ATOM     20  C   UNL     1      12.007   8.412  18.168  0.00  0.00    +0.008 A 
ATOM     21  C   UNL     1      13.546   9.152  16.458  0.00  0.00    +0.008 A 
ATOM     23  C   UNL     1      10.938   8.625  17.297  0.00  0.00    +0.001 A 
ATOM     24  C   UNL     1      12.478   9.364  15.588  0.00  0.00    +0.001 A 
ATOM     26  C   UNL     1      11.174   9.100  16.007  0.00  0.00    +0.000 A 
ENDBRANCH  13  18
BRANCH  15  19
ATOM      1  S   UNL     1      11.165  10.542  22.888  0.00  0.00    -0.092 S 
ATOM     19  C   UNL     1      12.671   9.881  22.423  0.00  0.00    +0.074 A 
ATOM     22  C   UNL     1      12.558   8.596  21.953  0.00  0.00    +0.021 A 
ATOM     25  C   UNL     1      11.208   8.141  21.975  0.00  0.00    +0.008 A 
ATOM     27  C   UNL     1      10.347   9.100  22.460  0.00  0.00    +0.046 A 
ENDBRANCH  15  19
TORSDOF 2
ENDMDL
MODEL 2
REMARK VINA RESULT:      -6.6     13.455     16.638
REMARK  Name = 7155413
REMARK  2 active torsions:
REMARK  status: ('A' for Active; 'I' for Inactive)
REMARK    1  A    between atoms: C_13  and  C_18
REMARK    2  A    between atoms: C_15  and  C_19
REMARK                            x       y       z     vdW  Elec       q    Type
REMARK                         _______ _______ _______ _____ _____    ______ ____
ROOT
ATOM      2  O   UNL     1       7.312   8.899   4.285  0.00  0.00    -0.268 OA
ATOM      3  O   UNL     1      11.281   9.706   7.341  0.00  0.00    -0.269 OA
ATOM      4  N   UNL     1       8.850   7.227   4.852  0.00  0.00    -0.311 N 
ATOM      5  N   UNL     1      11.252   7.411   6.894  0.00  0.00    -0.296 N 
ATOM      6  C   UNL     1       9.043   6.339   7.252  0.00  0.00    +0.027 C 
ATOM      7  C   UNL     1      10.539   5.481   5.498  0.00  0.00    +0.054 C 
ATOM      8  C   UNL     1       9.548   5.068   6.585  0.00  0.00    +0.018 C 
ATOM      9  C   UNL     1       8.287   7.165   6.210  0.00  0.00    +0.130 C 
ATOM     10  C   UNL     1      10.208   7.125   7.877  0.00  0.00    +0.113 C 
ATOM     11  C   UNL     1      11.722   6.241   6.139  0.00  0.00    +0.117 C 
ATOM     12  C   UNL     1       9.874   6.354   4.431  0.00  0.00    +0.034 A 
ATOM     13  C   UNL     1      10.256   6.338   3.128  0.00  0.00    +0.002 A 
ATOM     14  C   UNL     1       8.218   8.125   3.976  0.00  0.00    +0.252 A 
ATOM     15  C   UNL     1      11.677   8.728   6.707  0.00  0.00    +0.253 C 
ATOM     16  C   UNL     1       9.629   7.254   2.195  0.00  0.00    +0.015 A 
ATOM     17  C   UNL     1       8.682   8.114   2.569  0.00  0.00    +0.071 A 
ENDROOT
BRANCH  13  18
ATOM     18  C   UNL     1      11.309   5.421   2.637  0.00  0.00    -0.016 A 
ATOM     20  C   UNL     1      11.028   4.067   2.482  0.00  0.00    +0.008 A 
ATOM     21  C   UNL     1      12.573   5.920   2.333  0.00  0.00    +0.008 A 
ATOM     23  C   UNL     1      12.020   3.203   2.019  0.00  0.00    +0.001 A 
ATOM     24  C   UNL     1      13.564   5.055   1.871  0.00  0.00    +0.001 A 
ATOM     26  C   UNL     1      13.289   3.697   1.714  0.00  0.00    +0.000 A 
ENDBRANCH  13  18
BRANCH  15  19
ATOM      1  S   UNL     1      14.317   9.111   6.086  0.00  0.00    -0.092 S 
ATOM     19  C   UNL     1      12.666   8.997   5.656  0.00  0.00    +0.074 A 
ATOM     22  C   UNL     1      12.460   9.179   4.311  0.00  0.00    +0.021 A 
ATOM     25  C   UNL     1      13.681   9.418   3.616  0.00  0.00    +0.008 A 
ATOM     27  C   UNL     1      14.768   9.408   4.461  0.00  0.00    +0.046 A 
ENDBRANCH  15  19
TORSDOF 2
ENDMDL
MODEL 3
REMARK VINA RESULT:      -6.4     13.693     16.063
REMARK  Name = 7155413
REMARK  2 active torsions:
REMARK  status: ('A' for Active; 'I' for Inactive)
REMARK    1  A    between atoms: C_13  and  C_18
REMARK    2  A    between atoms: C_15  and  C_19
REMARK                            x       y       z     vdW  Elec       q    Type
REMARK                         _______ _______ _______ _____ _____    ______ ____
ROOT
ATOM      2  O   UNL     1      22.354  -6.842  23.486  0.00  0.00    -0.268 OA
ATOM      3  O   UNL     1      20.180  -6.789  28.071  0.00  0.00    -0.269 OA
ATOM      4  N   UNL     1      21.197  -4.991  24.331  0.00  0.00    -0.311 N 
ATOM      5  N   UNL     1      19.962  -4.624  27.214  0.00  0.00    -0.296 N 
ATOM      6  C   UNL     1      22.077  -3.663  26.342  0.00  0.00    +0.027 C 
ATOM      7  C   UNL     1      19.938  -3.041  25.297  0.00  0.00    +0.054 C 
ATOM      8  C   UNL     1      21.302  -2.505  25.731  0.00  0.00    +0.018 C 
ATOM      9  C   UNL     1      22.305  -4.718  25.259  0.00  0.00    +0.130 C 
ATOM     10  C   UNL     1      21.328  -4.235  27.558  0.00  0.00    +0.113 C 
ATOM     11  C   UNL     1      19.181  -3.584  26.529  0.00  0.00    +0.117 C 
ATOM     12  C   UNL     1      20.076  -4.141  24.241  0.00  0.00    +0.034 A 
ATOM     13  C   UNL     1      19.152  -4.339  23.265  0.00  0.00    +0.002 A 
ATOM     14  C   UNL     1      21.390  -6.078  23.461  0.00  0.00    +0.252 A 
ATOM     15  C   UNL     1      19.524  -5.920  27.497  0.00  0.00    +0.253 C 
ATOM     16  C   UNL     1      19.316  -5.454  22.352  0.00  0.00    +0.015 A 
ATOM     17  C   UNL     1      20.347  -6.295  22.432  0.00  0.00    +0.071 A 
ENDROOT
BRANCH  13  18
ATOM     18  C   UNL     1      17.973  -3.458  23.119  0.00  0.00    -0.016 A 
ATOM     20  C   UNL     1      16.725  -3.897  23.549  0.00  0.00    +0.008 A 
ATOM     21  C   UNL     1      18.121  -2.195  22.551  0.00  0.00    +0.008 A 
ATOM     23  C   UNL     1      15.613  -3.065  23.411  0.00  0.00    +0.001 A 
ATOM     24  C   UNL     1      17.009  -1.364  22.413  0.00  0.00    +0.001 A 
ATOM     26  C   UNL     1      15.755  -1.799  22.842  0.00  0.00    +0.000 A 
ENDBRANCH  13  18
BRANCH  15  19
ATOM      1  S   UNL     1      16.892  -6.222  28.191  0.00  0.00    -0.092 S 
ATOM     19  C   UNL     1      18.175  -6.308  27.066  0.00  0.00    +0.074 A 
ATOM     22  C   UNL     1      17.764  -6.751  25.833  0.00  0.00    +0.021 A 
ATOM     25  C   UNL     1      16.366  -7.027  25.809  0.00  0.00    +0.008 A 
ATOM     27  C   UNL     1      15.770  -6.783  27.026  0.00  0.00    +0.046 A 
ENDBRANCH  15  19
TORSDOF 2
ENDMDL
MODEL 4
REMARK VINA RESULT:      -6.3     14.105     16.527
REMARK  Name = 7155413
REMARK  2 active torsions:
REMARK  status: ('A' for Active; 'I' for Inactive)
REMARK    1  A    between atoms: C_13  and  C_18
REMARK    2  A    between atoms: C_15  and  C_19
REMARK                            x       y       z     vdW  Elec       q    Type
REMARK                         _______ _______ _______ _____ _____    ______ ____
ROOT
ATOM      2  O   UNL     1       8.720  10.496   3.316  0.00  0.00    -0.268 OA
ATOM      3  O   UNL     1      12.885   8.072   1.728  0.00  0.00    -0.269 OA
ATOM      4  N   UNL     1      10.143   9.321   4.757  0.00  0.00    -0.311 N 
ATOM      5  N   UNL     1      12.893   7.933   4.062  0.00  0.00    -0.296 N 
ATOM      6  C   UNL     1      12.544  10.107   5.206  0.00  0.00    +0.027 C 
ATOM      7  C   UNL     1      11.711   8.040   6.247  0.00  0.00    +0.054 C 
ATOM      8  C   UNL     1      12.377   9.385   6.534  0.00  0.00    +0.018 C 
ATOM      9  C   UNL     1      11.156  10.380   4.624  0.00  0.00    +0.130 C 
ATOM     10  C   UNL     1      13.420   9.284   4.247  0.00  0.00    +0.113 C 
ATOM     11  C   UNL     1      12.613   7.207   5.309  0.00  0.00    +0.117 C 
ATOM     12  C   UNL     1      10.327   8.219   5.616  0.00  0.00    +0.034 A 
ATOM     13  C   UNL     1       9.306   7.349   5.829  0.00  0.00    +0.002 A 
ATOM     14  C   UNL     1       8.939   9.546   4.067  0.00  0.00    +0.252 A 
ATOM     15  C   UNL     1      12.649   7.461   2.770  0.00  0.00    +0.253 C 
ATOM     16  C   UNL     1       8.050   7.547   5.132  0.00  0.00    +0.015 A 
ATOM     17  C   UNL     1       7.857   8.560   4.287  0.00  0.00    +0.071 A 
ENDROOT
BRANCH  13  18
ATOM     18  C   UNL     1       9.447   6.193   6.742  0.00  0.00    -0.016 A 
ATOM     20  C   UNL     1       9.733   4.934   6.223  0.00  0.00    +0.008 A 
ATOM     21  C   UNL     1       9.291   6.372   8.114  0.00  0.00    +0.008 A 
ATOM     23  C   UNL     1       9.866   3.844   7.084  0.00  0.00    +0.001 A 
ATOM     24  C   UNL     1       9.423   5.283   8.974  0.00  0.00    +0.001 A 
ATOM     26  C   UNL     1       9.710   4.018   8.459  0.00  0.00    +0.000 A 
ENDBRANCH  13  18
BRANCH  15  19
ATOM      1  S   UNL     1      13.019   4.834   2.089  0.00  0.00    -0.092 S 
ATOM     19  C   UNL     1      12.042   6.133   2.618  0.00  0.00    +0.074 A 
ATOM     22  C   UNL     1      10.742   5.753   2.849  0.00  0.00    +0.021 A 
ATOM     25  C   UNL     1      10.542   4.367   2.585  0.00  0.00    +0.008 A 
ATOM     27  C   UNL     1      11.699   3.748   2.165  0.00  0.00    +0.046 A 
ENDBRANCH  15  19
TORSDOF 2
ENDMDL
MODEL 5
REMARK VINA RESULT:      -6.1     27.734     29.420
REMARK  Name = 7155413
REMARK  2 active torsions:
REMARK  status: ('A' for Active; 'I' for Inactive)
REMARK    1  A    between atoms: C_13  and  C_18
REMARK    2  A    between atoms: C_15  and  C_19
REMARK                            x       y       z     vdW  Elec       q    Type
REMARK                         _______ _______ _______ _____ _____    ______ ____
ROOT
ATOM      2  O   UNL     1      -6.358 -15.021  16.444  0.00  0.00    -0.268 OA
ATOM      3  O   UNL     1      -8.191 -10.833  18.646  0.00  0.00    -0.269 OA
ATOM      4  N   UNL     1      -5.471 -12.887  16.069  0.00  0.00    -0.311 N 
ATOM      5  N   UNL     1      -6.275 -10.176  17.476  0.00  0.00    -0.296 N 
ATOM      6  C   UNL     1      -4.281 -11.582  17.931  0.00  0.00    +0.027 C 
ATOM      7  C   UNL     1      -4.571 -10.567  15.708  0.00  0.00    +0.054 C 
ATOM      8  C   UNL     1      -3.542 -10.908  16.785  0.00  0.00    +0.018 C 
ATOM      9  C   UNL     1      -4.881 -12.892  17.417  0.00  0.00    +0.130 C 
ATOM     10  C   UNL     1      -5.354 -10.645  18.510  0.00  0.00    +0.113 C 
ATOM     11  C   UNL     1      -5.626  -9.600  16.290  0.00  0.00    +0.117 C 
ATOM     12  C   UNL     1      -5.258 -11.825  15.167  0.00  0.00    +0.034 A 
ATOM     13  C   UNL     1      -5.688 -11.930  13.884  0.00  0.00    +0.002 A 
ATOM     14  C   UNL     1      -6.154 -14.060  15.704  0.00  0.00    +0.252 A 
ATOM     15  C   UNL     1      -7.650 -10.350  17.651  0.00  0.00    +0.253 C 
ATOM     16  C   UNL     1      -6.400 -13.124  13.471  0.00  0.00    +0.015 A 
ATOM     17  C   UNL     1      -6.647 -14.130  14.309  0.00  0.00    +0.071 A 
ENDROOT
BRANCH  13  18
ATOM     18  C   UNL     1      -5.463 -10.850  12.897  0.00  0.00    -0.016 A 
ATOM     20  C   UNL     1      -6.443  -9.883  12.697  0.00  0.00    +0.008 A 
ATOM     21  C   UNL     1      -4.273 -10.810  12.175  0.00  0.00    +0.008 A 
ATOM     23  C   UNL     1      -6.232  -8.865  11.766  0.00  0.00    +0.001 A 
ATOM     24  C   UNL     1      -4.062  -9.793  11.245  0.00  0.00    +0.001 A 
ATOM     26  C   UNL     1      -5.041  -8.820  11.040  0.00  0.00    +0.000 A 
ENDBRANCH  13  18
BRANCH  15  19
ATOM      1  S   UNL     1      -9.329  -8.430  16.654  0.00  0.00    -0.092 S 
ATOM     19  C   UNL     1      -8.546  -9.946  16.560  0.00  0.00    +0.074 A 
ATOM     22  C   UNL     1      -8.868 -10.634  15.416  0.00  0.00    +0.021 A 
ATOM     25  C   UNL     1      -9.777  -9.903  14.598  0.00  0.00    +0.008 A 
ATOM     27  C   UNL     1     -10.110  -8.687  15.153  0.00  0.00    +0.046 A 
ENDBRANCH  15  19
TORSDOF 2
ENDMDL
MODEL 6
REMARK VINA RESULT:      -5.9     16.613     19.478
REMARK  Name = 7155413
REMARK  2 active torsions:
REMARK  status: ('A' for Active; 'I' for Inactive)
REMARK    1  A    between atoms: C_13  and  C_18
REMARK    2  A    between atoms: C_15  and  C_19
REMARK                            x       y       z     vdW  Elec       q    Type
REMARK                         _______ _______ _______ _____ _____    ______ ____
ROOT
ATOM      2  O   UNL     1      15.570   6.671   1.489  0.00  0.00    -0.268 OA
ATOM      3  O   UNL     1      12.070   5.902  -2.103  0.00  0.00    -0.269 OA
ATOM      4  N   UNL     1      13.600   5.460   1.861  0.00  0.00    -0.311 N 
ATOM      5  N   UNL     1      11.392   4.652  -0.247  0.00  0.00    -0.296 N 
ATOM      6  C   UNL     1      13.171   3.209   0.706  0.00  0.00    +0.027 C 
ATOM      7  C   UNL     1      11.465   4.175   2.192  0.00  0.00    +0.054 C 
ATOM      8  C   UNL     1      12.294   2.921   1.916  0.00  0.00    +0.018 C 
ATOM      9  C   UNL     1      14.132   4.344   1.063  0.00  0.00    +0.130 C 
ATOM     10  C   UNL     1      12.309   3.547  -0.521  0.00  0.00    +0.113 C 
ATOM     11  C   UNL     1      10.578   4.488   0.967  0.00  0.00    +0.117 C 
ATOM     12  C   UNL     1      12.354   5.379   2.515  0.00  0.00    +0.034 A 
ATOM     13  C   UNL     1      11.972   6.365   3.367  0.00  0.00    +0.002 A 
ATOM     14  C   UNL     1      14.467   6.554   2.024  0.00  0.00    +0.252 A 
ATOM     15  C   UNL     1      11.387   5.767  -1.087  0.00  0.00    +0.253 C 
ATOM     16  C   UNL     1      12.839   7.512   3.558  0.00  0.00    +0.015 A 
ATOM     17  C   UNL     1      14.007   7.633   2.928  0.00  0.00    +0.071 A 
ENDROOT
BRANCH  13  18
ATOM     18  C   UNL     1      10.684   6.309   4.094  0.00  0.00    -0.016 A 
ATOM     20  C   UNL     1       9.623   7.108   3.680  0.00  0.00    +0.008 A 
ATOM     21  C   UNL     1      10.543   5.458   5.187  0.00  0.00    +0.008 A 
ATOM     23  C   UNL     1       8.408   7.055   4.366  0.00  0.00    +0.001 A 
ATOM     24  C   UNL     1       9.330   5.406   5.872  0.00  0.00    +0.001 A 
ATOM     26  C   UNL     1       8.262   6.205   5.462  0.00  0.00    +0.000 A 
ENDBRANCH  13  18
BRANCH  15  19
ATOM      1  S   UNL     1       9.079   7.136  -1.634  0.00  0.00    -0.092 S 
ATOM     19  C   UNL     1      10.516   6.897  -0.740  0.00  0.00    +0.074 A 
ATOM     22  C   UNL     1      10.685   7.839   0.244  0.00  0.00    +0.021 A 
ATOM     25  C   UNL     1       9.615   8.779   0.267  0.00  0.00    +0.008 A 
ATOM     27  C   UNL     1       8.672   8.513  -0.702  0.00  0.00    +0.046 A 
ENDBRANCH  15  19
TORSDOF 2
ENDMDL
MODEL 7
REMARK VINA RESULT:      -5.9     13.209     15.833
REMARK  Name = 7155413
REMARK  2 active torsions:
REMARK  status: ('A' for Active; 'I' for Inactive)
REMARK    1  A    between atoms: C_13  and  C_18
REMARK    2  A    between atoms: C_15  and  C_19
REMARK                            x       y       z     vdW  Elec       q    Type
REMARK                         _______ _______ _______ _____ _____    ______ ____
ROOT
ATOM      2  O   UNL     1      22.279  -0.765  28.587  0.00  0.00    -0.268 OA
ATOM      3  O   UNL     1      21.435  -5.769  28.570  0.00  0.00    -0.269 OA
ATOM      4  N   UNL     1      20.246  -1.717  27.920  0.00  0.00    -0.311 N 
ATOM      5  N   UNL     1      19.397  -4.757  28.032  0.00  0.00    -0.296 N 
ATOM      6  C   UNL     1      18.728  -2.942  29.587  0.00  0.00    +0.027 C 
ATOM      7  C   UNL     1      18.093  -2.804  27.214  0.00  0.00    +0.054 C 
ATOM      8  C   UNL     1      17.608  -2.539  28.639  0.00  0.00    +0.018 C 
ATOM      9  C   UNL     1      19.936  -2.042  29.321  0.00  0.00    +0.130 C 
ATOM     10  C   UNL     1      19.071  -4.432  29.420  0.00  0.00    +0.113 C 
ATOM     11  C   UNL     1      18.403  -4.308  27.046  0.00  0.00    +0.117 C 
ATOM     12  C   UNL     1      19.334  -1.974  26.877  0.00  0.00    +0.034 A 
ATOM     13  C   UNL     1      19.592  -1.518  25.624  0.00  0.00    +0.002 A 
ATOM     14  C   UNL     1      21.454  -1.028  27.713  0.00  0.00    +0.252 A 
ATOM     15  C   UNL     1      20.605  -5.395  27.742  0.00  0.00    +0.253 C 
ATOM     16  C   UNL     1      20.830  -0.806  25.371  0.00  0.00    +0.015 A 
ATOM     17  C   UNL     1      21.728  -0.577  26.329  0.00  0.00    +0.071 A 
ENDROOT
BRANCH  13  18
ATOM     18  C   UNL     1      18.651  -1.742  24.505  0.00  0.00    -0.016 A 
ATOM     20  C   UNL     1      17.588  -0.866  24.310  0.00  0.00    +0.008 A 
ATOM     21  C   UNL     1      18.836  -2.829  23.654  0.00  0.00    +0.008 A 
ATOM     23  C   UNL     1      16.701  -1.078  23.254  0.00  0.00    +0.001 A 
ATOM     24  C   UNL     1      17.948  -3.040  22.599  0.00  0.00    +0.001 A 
ATOM     26  C   UNL     1      16.881  -2.165  22.399  0.00  0.00    +0.000 A 
ENDBRANCH  13  18
BRANCH  15  19
ATOM      1  S   UNL     1      20.587  -7.157  25.645  0.00  0.00    -0.092 S 
ATOM     19  C   UNL     1      20.944  -5.634  26.333  0.00  0.00    +0.074 A 
ATOM     22  C   UNL     1      21.534  -4.777  25.436  0.00  0.00    +0.021 A 
ATOM     25  C   UNL     1      21.697  -5.382  24.157  0.00  0.00    +0.008 A 
ATOM     27  C   UNL     1      21.225  -6.675  24.131  0.00  0.00    +0.046 A 
ENDBRANCH  15  19
TORSDOF 2
ENDMDL
MODEL 8
REMARK VINA RESULT:      -5.9     13.238     15.925
REMARK  Name = 7155413
REMARK  2 active torsions:
REMARK  status: ('A' for Active; 'I' for Inactive)
REMARK    1  A    between atoms: C_13  and  C_18
REMARK    2  A    between atoms: C_15  and  C_19
REMARK                            x       y       z     vdW  Elec       q    Type
REMARK                         _______ _______ _______ _____ _____    ______ ____
ROOT
ATOM      2  O   UNL     1      19.853  -5.047  21.625  0.00  0.00    -0.268 OA
ATOM      3  O   UNL     1      20.521  -1.110  24.756  0.00  0.00    -0.269 OA
ATOM      4  N   UNL     1      18.235  -4.350  23.168  0.00  0.00    -0.311 N 
ATOM      5  N   UNL     1      18.312  -1.817  25.052  0.00  0.00    -0.296 N 
ATOM      6  C   UNL     1      17.045  -2.089  22.935  0.00  0.00    +0.027 C 
ATOM      7  C   UNL     1      16.544  -3.553  24.848  0.00  0.00    +0.054 C 
ATOM      8  C   UNL     1      15.917  -2.769  23.695  0.00  0.00    +0.018 C 
ATOM      9  C   UNL     1      17.949  -3.169  22.339  0.00  0.00    +0.130 C 
ATOM     10  C   UNL     1      17.821  -1.133  23.857  0.00  0.00    +0.113 C 
ATOM     11  C   UNL     1      17.293  -2.580  25.786  0.00  0.00    +0.117 C 
ATOM     12  C   UNL     1      17.504  -4.632  24.339  0.00  0.00    +0.034 A 
ATOM     13  C   UNL     1      17.692  -5.809  24.989  0.00  0.00    +0.002 A 
ATOM     14  C   UNL     1      19.196  -5.235  22.649  0.00  0.00    +0.252 A 
ATOM     15  C   UNL     1      19.670  -1.750  25.373  0.00  0.00    +0.253 C 
ATOM     16  C   UNL     1      18.679  -6.746  24.485  0.00  0.00    +0.015 A 
ATOM     17  C   UNL     1      19.410  -6.493  23.399  0.00  0.00    +0.071 A 
ENDROOT
BRANCH  13  18
ATOM     18  C   UNL     1      16.929  -6.157  26.208  0.00  0.00    -0.016 A 
ATOM     20  C   UNL     1      15.762  -6.908  26.101  0.00  0.00    +0.008 A 
ATOM     21  C   UNL     1      17.383  -5.730  27.453  0.00  0.00    +0.008 A 
ATOM     23  C   UNL     1      15.043  -7.236  27.251  0.00  0.00    +0.001 A 
ATOM     24  C   UNL     1      16.663  -6.058  28.601  0.00  0.00    +0.001 A 
ATOM     26  C   UNL     1      15.493  -6.811  28.501  0.00  0.00    +0.000 A 
ENDBRANCH  13  18
BRANCH  15  19
ATOM      1  S   UNL     1      20.292  -1.725  28.040  0.00  0.00    -0.092 S 
ATOM     19  C   UNL     1      20.149  -2.514  26.531  0.00  0.00    +0.074 A 
ATOM     22  C   UNL     1      20.519  -3.836  26.592  0.00  0.00    +0.021 A 
ATOM     25  C   UNL     1      20.929  -4.210  27.904  0.00  0.00    +0.008 A 
ATOM     27  C   UNL     1      20.855  -3.158  28.789  0.00  0.00    +0.046 A 
ENDBRANCH  15  19
TORSDOF 2
ENDMDL
MODEL 9
REMARK VINA RESULT:      -5.8     27.183     29.510
REMARK  Name = 7155413
REMARK  2 active torsions:
REMARK  status: ('A' for Active; 'I' for Inactive)
REMARK    1  A    between atoms: C_13  and  C_18
REMARK    2  A    between atoms: C_15  and  C_19
REMARK                            x       y       z     vdW  Elec       q    Type
REMARK                         _______ _______ _______ _____ _____    ______ ____
ROOT
ATOM      2  O   UNL     1      -7.410 -14.841  17.399  0.00  0.00    -0.268 OA
ATOM      3  O   UNL     1      -9.693 -10.741  15.468  0.00  0.00    -0.269 OA
ATOM      4  N   UNL     1      -6.423 -12.717  17.381  0.00  0.00    -0.311 N 
ATOM      5  N   UNL     1      -7.711  -9.986  16.455  0.00  0.00    -0.296 N 
ATOM      6  C   UNL     1      -7.370 -10.786  18.779  0.00  0.00    +0.027 C 
ATOM      7  C   UNL     1      -5.421 -10.412  17.325  0.00  0.00    +0.054 C 
ATOM      8  C   UNL     1      -5.943 -10.260  18.753  0.00  0.00    +0.018 C 
ATOM      9  C   UNL     1      -7.344 -12.277  18.440  0.00  0.00    +0.130 C 
ATOM     10  C   UNL     1      -8.259  -9.989  17.810  0.00  0.00    +0.113 C 
ATOM     11  C   UNL     1      -6.300  -9.583  16.363  0.00  0.00    +0.117 C 
ATOM     12  C   UNL     1      -5.405 -11.879  16.884  0.00  0.00    +0.034 A 
ATOM     13  C   UNL     1      -4.480 -12.374  16.022  0.00  0.00    +0.002 A 
ATOM     14  C   UNL     1      -6.550 -14.061  16.989  0.00  0.00    +0.252 A 
ATOM     15  C   UNL     1      -8.511 -10.403  15.388  0.00  0.00    +0.253 C 
ATOM     16  C   UNL     1      -4.581 -13.756  15.592  0.00  0.00    +0.015 A 
ATOM     17  C   UNL     1      -5.552 -14.564  16.018  0.00  0.00    +0.071 A 
ENDROOT
BRANCH  13  18
ATOM     18  C   UNL     1      -3.379 -11.537  15.495  0.00  0.00    -0.016 A 
ATOM     20  C   UNL     1      -2.357 -11.127  16.345  0.00  0.00    +0.008 A 
ATOM     21  C   UNL     1      -3.375 -11.165  14.154  0.00  0.00    +0.008 A 
ATOM     23  C   UNL     1      -1.319 -10.337  15.848  0.00  0.00    +0.001 A 
ATOM     24  C   UNL     1      -2.338 -10.376  13.658  0.00  0.00    +0.001 A 
ATOM     26  C   UNL     1      -1.310  -9.962  14.505  0.00  0.00    +0.000 A 
ENDBRANCH  13  18
BRANCH  15  19
ATOM      1  S   UNL     1      -7.270 -11.958  13.507  0.00  0.00    -0.092 S 
ATOM     19  C   UNL     1      -7.909 -10.470  14.051  0.00  0.00    +0.074 A 
ATOM     22  C   UNL     1      -7.774  -9.468  13.121  0.00  0.00    +0.021 A 
ATOM     25  C   UNL     1      -7.132  -9.930  11.936  0.00  0.00    +0.008 A 
ATOM     27  C   UNL     1      -6.804 -11.266  12.012  0.00  0.00    +0.046 A 
ENDBRANCH  15  19
TORSDOF 2
ENDMDL
MODEL 10
REMARK VINA RESULT:      -5.8     13.157     15.248
REMARK  Name = 7155413
REMARK  2 active torsions:
REMARK  status: ('A' for Active; 'I' for Inactive)
REMARK    1  A    between atoms: C_13  and  C_18
REMARK    2  A    between atoms: C_15  and  C_19
REMARK                            x       y       z     vdW  Elec       q    Type
REMARK                         _______ _______ _______ _____ _____    ______ ____
ROOT
ATOM      2  O   UNL     1       7.655  11.146   4.034  0.00  0.00    -0.268 OA
ATOM      3  O   UNL     1      12.672  11.466   4.720  0.00  0.00    -0.269 OA
ATOM      4  N   UNL     1       8.747  10.272   5.911  0.00  0.00    -0.311 N 
ATOM      5  N   UNL     1      11.798  10.536   6.680  0.00  0.00    -0.296 N 
ATOM      6  C   UNL     1       9.885  11.798   7.632  0.00  0.00    +0.027 C 
ATOM      7  C   UNL     1       9.982   9.354   7.899  0.00  0.00    +0.054 C 
ATOM      8  C   UNL     1       9.615  10.659   8.604  0.00  0.00    +0.018 C 
ATOM      9  C   UNL     1       8.961  11.634   6.424  0.00  0.00    +0.130 C 
ATOM     10  C   UNL     1      11.368  11.823   7.225  0.00  0.00    +0.113 C 
ATOM     11  C   UNL     1      11.481   9.375   7.523  0.00  0.00    +0.117 C 
ATOM     12  C   UNL     1       9.132   9.132   6.645  0.00  0.00    +0.034 A 
ATOM     13  C   UNL     1       8.776   7.895   6.211  0.00  0.00    +0.002 A 
ATOM     14  C   UNL     1       8.027  10.185   4.707  0.00  0.00    +0.252 A 
ATOM     15  C   UNL     1      12.407  10.491   5.423  0.00  0.00    +0.253 C 
ATOM     16  C   UNL     1       8.037   7.766   4.970  0.00  0.00    +0.015 A 
ATOM     17  C   UNL     1       7.688   8.823   4.236  0.00  0.00    +0.071 A 
ENDROOT
BRANCH  13  18
ATOM     18  C   UNL     1       9.138   6.672   6.962  0.00  0.00    -0.016 A 
ATOM     20  C   UNL     1       9.726   5.602   6.296  0.00  0.00    +0.008 A 
ATOM     21  C   UNL     1       8.887   6.602   8.329  0.00  0.00    +0.008 A 
ATOM     23  C   UNL     1      10.067   4.449   7.004  0.00  0.00    +0.001 A 
ATOM     24  C   UNL     1       9.227   5.449   9.037  0.00  0.00    +0.001 A 
ATOM     26  C   UNL     1       9.817   4.372   8.374  0.00  0.00    +0.000 A 
ENDBRANCH  13  18
BRANCH  15  19
ATOM      1  S   UNL     1      14.367   8.628   4.989  0.00  0.00    -0.092 S 
ATOM     19  C   UNL     1      12.753   9.178   4.865  0.00  0.00    +0.074 A 
ATOM     22  C   UNL     1      11.938   8.276   4.227  0.00  0.00    +0.021 A 
ATOM     25  C   UNL     1      12.651   7.108   3.829  0.00  0.00    +0.008 A 
ATOM     27  C   UNL     1      13.981   7.168   4.182  0.00  0.00    +0.046 A 
ENDBRANCH  15  19
TORSDOF 2
ENDMDL
