MODEL 1
REMARK VINA RESULT:      -6.7      0.000      0.000
REMARK  Name = 56774693
REMARK  9 active torsions:
REMARK  status: ('A' for Active; 'I' for Inactive)
REMARK    1  A    between atoms: O_2  and  C_8
REMARK    2  A    between atoms: N_5  and  C_10
REMARK    3  A    between atoms: N_6  and  C_21
REMARK    4  A    between atoms: C_7  and  C_8
REMARK    5  A    between atoms: C_8  and  C_13
REMARK    6  A    between atoms: C_10  and  C_11
REMARK    7  A    between atoms: C_11  and  C_15
REMARK    8  A    between atoms: C_15  and  C_18
REMARK    9  A    between atoms: C_27  and  C_28
REMARK                            x       y       z     vdW  Elec       q    Type
REMARK                         _______ _______ _______ _____ _____    ______ ____
ROOT
ATOM      1  O   UNL     1     -10.256  10.086  18.205  0.00  0.00    -0.369 OA
ATOM      3  O   UNL     1     -12.349  12.830  19.269  0.00  0.00    -0.273 OA
ATOM      5  N   UNL     1     -12.026  10.755  20.273  0.00  0.00    -0.292 N 
ATOM      7  C   UNL     1     -11.462   9.405  20.153  0.00  0.00    +0.135 C 
ATOM      9  C   UNL     1     -10.098   9.469  19.477  0.00  0.00    +0.185 C 
ATOM     12  C   UNL     1     -11.775  11.741  19.320  0.00  0.00    +0.242 C 
ATOM     14  C   UNL     1     -10.646  11.435  18.343  0.00  0.00    +0.255 C 
ENDROOT
BRANCH   7   8
ATOM      8  C   UNL     1     -12.416   8.488  19.383  0.00  0.00    +0.167 C 
BRANCH   8  13
ATOM     13  C   UNL     1     -12.985   7.406  20.264  0.00  0.00    -0.017 A 
ATOM     16  C   UNL     1     -12.131   6.582  20.996  0.00  0.00    +0.008 A 
ATOM     17  C   UNL     1     -14.367   7.227  20.345  0.00  0.00    +0.008 A 
ATOM     19  C   UNL     1     -12.658   5.579  21.811  0.00  0.00    +0.023 A 
ATOM     20  C   UNL     1     -14.893   6.225  21.159  0.00  0.00    +0.023 A 
ATOM     21  C   UNL     1     -14.039   5.401  21.892  0.00  0.00    +0.033 A 
BRANCH  21   6
ATOM      4  O   UNL     1     -16.052   5.556  24.126  0.00  0.00    -0.276 OA
ATOM      6  N   UNL     1     -14.567   4.398  22.707  0.00  0.00    -0.286 N 
ATOM     27  C   UNL     1     -15.506   4.528  23.739  0.00  0.00    +0.214 C 
ATOM     28  C   UNL     1     -15.816   3.199  24.381  0.00  0.00    +0.109 C 
ATOM     30  H   UNL     1     -14.220   3.460  22.521  0.00  0.00    +0.155 HD
ENDBRANCH  21   6
ENDBRANCH   8  13
BRANCH   8   2
ATOM      2  O   UNL     1     -13.477   9.265  18.838  0.00  0.00    -0.385 OA
ATOM     29  H   UNL     1     -13.613   9.006  17.911  0.00  0.00    +0.210 HD
ENDBRANCH   8   2
ENDBRANCH   7   8
BRANCH   5  10
ATOM     10  C   UNL     1     -13.007  10.984  21.326  0.00  0.00    +0.108 C 
BRANCH  10  11
ATOM     11  C   UNL     1     -12.581  10.387  22.667  0.00  0.00    +0.024 C 
BRANCH  11  15
ATOM     15  C   UNL     1     -11.976  11.398  23.649  0.00  0.00    +0.036 C 
BRANCH  15  18
ATOM     18  C   UNL     1     -11.982  10.934  25.083  0.00  0.00    -0.047 A 
ATOM     22  C   UNL     1     -13.192  10.667  25.724  0.00  0.00    +0.003 A 
ATOM     23  C   UNL     1     -10.779  10.772  25.769  0.00  0.00    +0.003 A 
ATOM     24  C   UNL     1     -13.197  10.237  27.052  0.00  0.00    +0.000 A 
ATOM     25  C   UNL     1     -10.785  10.342  27.096  0.00  0.00    +0.000 A 
ATOM     26  C   UNL     1     -11.994  10.074  27.737  0.00  0.00    +0.000 A 
ENDBRANCH  15  18
ENDBRANCH  11  15
ENDBRANCH  10  11
ENDBRANCH   5  10
TORSDOF 8
ENDMDL
MODEL 2
REMARK VINA RESULT:      -6.5     19.821     22.896
REMARK  Name = 56774693
REMARK  9 active torsions:
REMARK  status: ('A' for Active; 'I' for Inactive)
REMARK    1  A    between atoms: O_2  and  C_8
REMARK    2  A    between atoms: N_5  and  C_10
REMARK    3  A    between atoms: N_6  and  C_21
REMARK    4  A    between atoms: C_7  and  C_8
REMARK    5  A    between atoms: C_8  and  C_13
REMARK    6  A    between atoms: C_10  and  C_11
REMARK    7  A    between atoms: C_11  and  C_15
REMARK    8  A    between atoms: C_15  and  C_18
REMARK    9  A    between atoms: C_27  and  C_28
REMARK                            x       y       z     vdW  Elec       q    Type
REMARK                         _______ _______ _______ _____ _____    ______ ____
ROOT
ATOM      1  O   UNL     1      -1.308 -11.303  15.032  0.00  0.00    -0.369 OA
ATOM      3  O   UNL     1      -3.236 -14.170  13.980  0.00  0.00    -0.273 OA
ATOM      5  N   UNL     1      -3.963 -12.018  14.487  0.00  0.00    -0.292 N 
ATOM      7  C   UNL     1      -3.622 -10.704  15.046  0.00  0.00    +0.135 C 
ATOM      9  C   UNL     1      -2.221 -10.298  14.605  0.00  0.00    +0.185 C 
ATOM     12  C   UNL     1      -2.996 -12.999  14.281  0.00  0.00    +0.242 C 
ATOM     14  C   UNL     1      -1.551 -12.522  14.365  0.00  0.00    +0.255 C 
ENDROOT
BRANCH   7   8
ATOM      8  C   UNL     1      -3.736 -10.722  16.573  0.00  0.00    +0.167 C 
BRANCH   8  13
ATOM     13  C   UNL     1      -5.135 -10.404  17.034  0.00  0.00    -0.017 A 
ATOM     16  C   UNL     1      -5.957  -9.588  16.258  0.00  0.00    +0.008 A 
ATOM     17  C   UNL     1      -5.608 -10.926  18.239  0.00  0.00    +0.008 A 
ATOM     19  C   UNL     1      -7.252  -9.292  16.685  0.00  0.00    +0.023 A 
ATOM     20  C   UNL     1      -6.903 -10.631  18.666  0.00  0.00    +0.023 A 
ATOM     21  C   UNL     1      -7.724  -9.815  17.889  0.00  0.00    +0.033 A 
BRANCH  21   6
ATOM      4  O   UNL     1     -10.329 -11.226  17.347  0.00  0.00    -0.276 OA
ATOM      6  N   UNL     1      -9.020  -9.521  18.316  0.00  0.00    -0.286 N 
ATOM     27  C   UNL     1     -10.203 -10.215  18.031  0.00  0.00    +0.214 C 
ATOM     28  C   UNL     1     -11.400  -9.572  18.687  0.00  0.00    +0.109 C 
ATOM     30  H   UNL     1      -9.106  -8.698  18.909  0.00  0.00    +0.155 HD
ENDBRANCH  21   6
ENDBRANCH   8  13
BRANCH   8   2
ATOM      2  O   UNL     1      -3.355 -12.004  17.059  0.00  0.00    -0.385 OA
ATOM     29  H   UNL     1      -3.529 -12.667  16.370  0.00  0.00    +0.210 HD
ENDBRANCH   8   2
ENDBRANCH   7   8
BRANCH   5  10
ATOM     10  C   UNL     1      -5.377 -12.333  14.323  0.00  0.00    +0.108 C 
BRANCH  10  11
ATOM     11  C   UNL     1      -5.904 -11.969  12.936  0.00  0.00    +0.024 C 
BRANCH  11  15
ATOM     15  C   UNL     1      -6.145 -10.469  12.722  0.00  0.00    +0.036 C 
BRANCH  15  18
ATOM     18  C   UNL     1      -5.375  -9.887  11.564  0.00  0.00    -0.047 A 
ATOM     22  C   UNL     1      -4.061 -10.290  11.326  0.00  0.00    +0.003 A 
ATOM     23  C   UNL     1      -5.977  -8.945  10.730  0.00  0.00    +0.003 A 
ATOM     24  C   UNL     1      -3.349  -9.752  10.254  0.00  0.00    +0.000 A 
ATOM     25  C   UNL     1      -5.265  -8.407   9.658  0.00  0.00    +0.000 A 
ATOM     26  C   UNL     1      -3.951  -8.810   9.420  0.00  0.00    +0.000 A 
ENDBRANCH  15  18
ENDBRANCH  11  15
ENDBRANCH  10  11
ENDBRANCH   5  10
TORSDOF 8
ENDMDL
MODEL 3
REMARK VINA RESULT:      -6.4     17.704     21.359
REMARK  Name = 56774693
REMARK  9 active torsions:
REMARK  status: ('A' for Active; 'I' for Inactive)
REMARK    1  A    between atoms: O_2  and  C_8
REMARK    2  A    between atoms: N_5  and  C_10
REMARK    3  A    between atoms: N_6  and  C_21
REMARK    4  A    between atoms: C_7  and  C_8
REMARK    5  A    between atoms: C_8  and  C_13
REMARK    6  A    between atoms: C_10  and  C_11
REMARK    7  A    between atoms: C_11  and  C_15
REMARK    8  A    between atoms: C_15  and  C_18
REMARK    9  A    between atoms: C_27  and  C_28
REMARK                            x       y       z     vdW  Elec       q    Type
REMARK                         _______ _______ _______ _____ _____    ______ ____
ROOT
ATOM      1  O   UNL     1      -8.932 -14.048  19.607  0.00  0.00    -0.369 OA
ATOM      3  O   UNL     1     -11.617 -11.933  20.775  0.00  0.00    -0.273 OA
ATOM      5  N   UNL     1     -10.012 -11.503  19.144  0.00  0.00    -0.292 N 
ATOM      7  C   UNL     1      -8.765 -11.935  18.501  0.00  0.00    +0.135 C 
ATOM      9  C   UNL     1      -8.767 -13.449  18.327  0.00  0.00    +0.185 C 
ATOM     12  C   UNL     1     -10.670 -12.302  20.077  0.00  0.00    +0.242 C 
ATOM     14  C   UNL     1     -10.202 -13.751  20.144  0.00  0.00    +0.255 C 
ENDROOT
BRANCH   7   8
ATOM      8  C   UNL     1      -7.551 -11.475  19.314  0.00  0.00    +0.167 C 
BRANCH   8  13
ATOM     13  C   UNL     1      -6.377 -11.146  18.429  0.00  0.00    -0.017 A 
ATOM     16  C   UNL     1      -6.536 -10.268  17.357  0.00  0.00    +0.008 A 
ATOM     17  C   UNL     1      -5.130 -11.719  18.683  0.00  0.00    +0.008 A 
ATOM     19  C   UNL     1      -5.448  -9.964  16.537  0.00  0.00    +0.023 A 
ATOM     20  C   UNL     1      -4.044 -11.415  17.864  0.00  0.00    +0.023 A 
ATOM     21  C   UNL     1      -4.202 -10.538  16.791  0.00  0.00    +0.033 A 
BRANCH  21   6
ATOM      4  O   UNL     1      -3.511 -11.498  14.022  0.00  0.00    -0.276 OA
ATOM      6  N   UNL     1      -3.114 -10.233  15.972  0.00  0.00    -0.286 N 
ATOM     27  C   UNL     1      -2.840 -10.713  14.684  0.00  0.00    +0.214 C 
ATOM     28  C   UNL     1      -1.558 -10.139  14.136  0.00  0.00    +0.109 C 
ATOM     30  H   UNL     1      -2.442  -9.579  16.368  0.00  0.00    +0.155 HD
ENDBRANCH  21   6
ENDBRANCH   8  13
BRANCH   8   2
ATOM      2  O   UNL     1      -7.905 -10.330  20.081  0.00  0.00    -0.385 OA
ATOM     29  H   UNL     1      -7.720  -9.531  19.559  0.00  0.00    +0.210 HD
ENDBRANCH   8   2
ENDBRANCH   7   8
BRANCH   5  10
ATOM     10  C   UNL     1     -10.447 -10.131  18.914  0.00  0.00    +0.108 C 
BRANCH  10  11
ATOM     11  C   UNL     1     -10.171  -9.658  17.488  0.00  0.00    +0.024 C 
BRANCH  11  15
ATOM     15  C   UNL     1      -9.957  -8.145  17.351  0.00  0.00    +0.036 C 
BRANCH  15  18
ATOM     18  C   UNL     1     -11.022  -7.449  16.542  0.00  0.00    -0.047 A 
ATOM     22  C   UNL     1     -12.342  -7.895  16.596  0.00  0.00    +0.003 A 
ATOM     23  C   UNL     1     -10.687  -6.359  15.739  0.00  0.00    +0.003 A 
ATOM     24  C   UNL     1     -13.327  -7.251  15.848  0.00  0.00    +0.000 A 
ATOM     25  C   UNL     1     -11.672  -5.715  14.991  0.00  0.00    +0.000 A 
ATOM     26  C   UNL     1     -12.992  -6.161  15.045  0.00  0.00    +0.000 A 
ENDBRANCH  15  18
ENDBRANCH  11  15
ENDBRANCH  10  11
ENDBRANCH   5  10
TORSDOF 8
ENDMDL
MODEL 4
REMARK VINA RESULT:      -6.3     28.335     32.229
REMARK  Name = 56774693
REMARK  9 active torsions:
REMARK  status: ('A' for Active; 'I' for Inactive)
REMARK    1  A    between atoms: O_2  and  C_8
REMARK    2  A    between atoms: N_5  and  C_10
REMARK    3  A    between atoms: N_6  and  C_21
REMARK    4  A    between atoms: C_7  and  C_8
REMARK    5  A    between atoms: C_8  and  C_13
REMARK    6  A    between atoms: C_10  and  C_11
REMARK    7  A    between atoms: C_11  and  C_15
REMARK    8  A    between atoms: C_15  and  C_18
REMARK    9  A    between atoms: C_27  and  C_28
REMARK                            x       y       z     vdW  Elec       q    Type
REMARK                         _______ _______ _______ _____ _____    ______ ____
ROOT
ATOM      1  O   UNL     1       8.089   6.488   5.417  0.00  0.00    -0.369 OA
ATOM      3  O   UNL     1      10.938   7.059   7.562  0.00  0.00    -0.273 OA
ATOM      5  N   UNL     1      10.860   6.874   5.243  0.00  0.00    -0.292 N 
ATOM      7  C   UNL     1      10.059   6.528   4.063  0.00  0.00    +0.135 C 
ATOM      9  C   UNL     1       8.636   7.048   4.229  0.00  0.00    +0.185 C 
ATOM     12  C   UNL     1      10.297   6.943   6.516  0.00  0.00    +0.242 C 
ATOM     14  C   UNL     1       8.773   6.957   6.558  0.00  0.00    +0.255 C 
ENDROOT
BRANCH   7   8
ATOM      8  C   UNL     1      10.068   5.014   3.829  0.00  0.00    +0.167 C 
BRANCH   8  13
ATOM     13  C   UNL     1      10.646   4.659   2.484  0.00  0.00    -0.017 A 
ATOM     16  C   UNL     1      10.031   5.114   1.318  0.00  0.00    +0.008 A 
ATOM     17  C   UNL     1      11.797   3.873   2.404  0.00  0.00    +0.008 A 
ATOM     19  C   UNL     1      10.566   4.785   0.072  0.00  0.00    +0.023 A 
ATOM     20  C   UNL     1      12.331   3.544   1.159  0.00  0.00    +0.023 A 
ATOM     21  C   UNL     1      11.716   3.999  -0.007  0.00  0.00    +0.033 A 
BRANCH  21   6
ATOM      4  O   UNL     1      10.566   2.365  -2.259  0.00  0.00    -0.276 OA
ATOM      6  N   UNL     1      12.252   3.670  -1.253  0.00  0.00    -0.286 N 
ATOM     27  C   UNL     1      11.669   2.900  -2.269  0.00  0.00    +0.214 C 
ATOM     28  C   UNL     1      12.577   2.778  -3.466  0.00  0.00    +0.109 C 
ATOM     30  H   UNL     1      13.182   4.041  -1.437  0.00  0.00    +0.155 HD
ENDBRANCH  21   6
ENDBRANCH   8  13
BRANCH   8   2
ATOM      2  O   UNL     1      10.828   4.385   4.855  0.00  0.00    -0.385 OA
ATOM     29  H   UNL     1      11.232   3.576   4.497  0.00  0.00    +0.210 HD
ENDBRANCH   8   2
ENDBRANCH   7   8
BRANCH   5  10
ATOM     10  C   UNL     1      12.305   6.965   5.072  0.00  0.00    +0.108 C 
BRANCH  10  11
ATOM     11  C   UNL     1      12.701   7.662   3.772  0.00  0.00    +0.024 C 
BRANCH  11  15
ATOM     15  C   UNL     1      13.855   6.991   3.017  0.00  0.00    +0.036 C 
BRANCH  15  18
ATOM     18  C   UNL     1      13.712   7.037   1.517  0.00  0.00    -0.047 A 
ATOM     22  C   UNL     1      12.668   7.759   0.938  0.00  0.00    +0.003 A 
ATOM     23  C   UNL     1      14.623   6.359   0.708  0.00  0.00    +0.003 A 
ATOM     24  C   UNL     1      12.535   7.802  -0.450  0.00  0.00    +0.000 A 
ATOM     25  C   UNL     1      14.490   6.402  -0.680  0.00  0.00    +0.000 A 
ATOM     26  C   UNL     1      13.447   7.124  -1.259  0.00  0.00    +0.000 A 
ENDBRANCH  15  18
ENDBRANCH  11  15
ENDBRANCH  10  11
ENDBRANCH   5  10
TORSDOF 8
ENDMDL
MODEL 5
REMARK VINA RESULT:      -6.3     26.885     30.457
REMARK  Name = 56774693
REMARK  9 active torsions:
REMARK  status: ('A' for Active; 'I' for Inactive)
REMARK    1  A    between atoms: O_2  and  C_8
REMARK    2  A    between atoms: N_5  and  C_10
REMARK    3  A    between atoms: N_6  and  C_21
REMARK    4  A    between atoms: C_7  and  C_8
REMARK    5  A    between atoms: C_8  and  C_13
REMARK    6  A    between atoms: C_10  and  C_11
REMARK    7  A    between atoms: C_11  and  C_15
REMARK    8  A    between atoms: C_15  and  C_18
REMARK    9  A    between atoms: C_27  and  C_28
REMARK                            x       y       z     vdW  Elec       q    Type
REMARK                         _______ _______ _______ _____ _____    ______ ____
ROOT
ATOM      1  O   UNL     1      12.907   6.751  -0.213  0.00  0.00    -0.369 OA
ATOM      3  O   UNL     1      12.729   3.221   0.530  0.00  0.00    -0.273 OA
ATOM      5  N   UNL     1      11.844   5.017   1.717  0.00  0.00    -0.292 N 
ATOM      7  C   UNL     1      11.790   6.475   1.882  0.00  0.00    +0.135 C 
ATOM      9  C   UNL     1      11.755   7.153   0.518  0.00  0.00    +0.185 C 
ATOM     12  C   UNL     1      12.500   4.427   0.637  0.00  0.00    +0.242 C 
ATOM     14  C   UNL     1      12.866   5.370  -0.502  0.00  0.00    +0.255 C 
ENDROOT
BRANCH   7   8
ATOM      8  C   UNL     1      12.979   6.968   2.712  0.00  0.00    +0.167 C 
BRANCH   8  13
ATOM     13  C   UNL     1      12.532   7.663   3.972  0.00  0.00    -0.017 A 
ATOM     16  C   UNL     1      13.002   7.230   5.212  0.00  0.00    +0.008 A 
ATOM     17  C   UNL     1      11.646   8.739   3.899  0.00  0.00    +0.008 A 
ATOM     19  C   UNL     1      12.587   7.873   6.379  0.00  0.00    +0.023 A 
ATOM     20  C   UNL     1      11.232   9.381   5.065  0.00  0.00    +0.023 A 
ATOM     21  C   UNL     1      11.702   8.949   6.305  0.00  0.00    +0.033 A 
BRANCH  21   6
ATOM      4  O   UNL     1      12.870  11.319   7.750  0.00  0.00    -0.276 OA
ATOM      6  N   UNL     1      11.288   9.592   7.472  0.00  0.00    -0.286 N 
ATOM     27  C   UNL     1      11.873  10.697   8.104  0.00  0.00    +0.214 C 
ATOM     28  C   UNL     1      11.119  11.092   9.349  0.00  0.00    +0.109 C 
ATOM     30  H   UNL     1      10.455   9.203   7.910  0.00  0.00    +0.155 HD
ENDBRANCH  21   6
ENDBRANCH   8  13
BRANCH   8   2
ATOM      2  O   UNL     1      13.810   5.863   3.047  0.00  0.00    -0.385 OA
ATOM     29  H   UNL     1      14.059   5.929   3.984  0.00  0.00    +0.210 HD
ENDBRANCH   8   2
ENDBRANCH   7   8
BRANCH   5  10
ATOM     10  C   UNL     1      11.348   4.196   2.814  0.00  0.00    +0.108 C 
BRANCH  10  11
ATOM     11  C   UNL     1      10.218   4.871   3.589  0.00  0.00    +0.024 C 
BRANCH  11  15
ATOM     15  C   UNL     1      10.106   4.437   5.056  0.00  0.00    +0.036 C 
BRANCH  15  18
ATOM     18  C   UNL     1       9.573   5.510   5.971  0.00  0.00    -0.047 A 
ATOM     22  C   UNL     1       9.893   5.492   7.328  0.00  0.00    +0.003 A 
ATOM     23  C   UNL     1       8.760   6.521   5.459  0.00  0.00    +0.003 A 
ATOM     24  C   UNL     1       9.399   6.485   8.174  0.00  0.00    +0.000 A 
ATOM     25  C   UNL     1       8.267   7.515   6.306  0.00  0.00    +0.000 A 
ATOM     26  C   UNL     1       8.587   7.496   7.663  0.00  0.00    +0.000 A 
ENDBRANCH  15  18
ENDBRANCH  11  15
ENDBRANCH  10  11
ENDBRANCH   5  10
TORSDOF 8
ENDMDL
MODEL 6
REMARK VINA RESULT:      -6.3     21.014     23.736
REMARK  Name = 56774693
REMARK  9 active torsions:
REMARK  status: ('A' for Active; 'I' for Inactive)
REMARK    1  A    between atoms: O_2  and  C_8
REMARK    2  A    between atoms: N_5  and  C_10
REMARK    3  A    between atoms: N_6  and  C_21
REMARK    4  A    between atoms: C_7  and  C_8
REMARK    5  A    between atoms: C_8  and  C_13
REMARK    6  A    between atoms: C_10  and  C_11
REMARK    7  A    between atoms: C_11  and  C_15
REMARK    8  A    between atoms: C_15  and  C_18
REMARK    9  A    between atoms: C_27  and  C_28
REMARK                            x       y       z     vdW  Elec       q    Type
REMARK                         _______ _______ _______ _____ _____    ______ ____
ROOT
ATOM      1  O   UNL     1      -3.536 -13.868  11.232  0.00  0.00    -0.369 OA
ATOM      3  O   UNL     1      -0.927 -14.154  13.714  0.00  0.00    -0.273 OA
ATOM      5  N   UNL     1      -2.443 -12.420  13.369  0.00  0.00    -0.292 N 
ATOM      7  C   UNL     1      -3.469 -11.840  12.495  0.00  0.00    +0.135 C 
ATOM      9  C   UNL     1      -4.358 -12.942  11.933  0.00  0.00    +0.185 C 
ATOM     12  C   UNL     1      -1.904 -13.683  13.127  0.00  0.00    +0.242 C 
ATOM     14  C   UNL     1      -2.660 -14.535  12.115  0.00  0.00    +0.255 C 
ENDROOT
BRANCH   7   8
ATOM      8  C   UNL     1      -2.823 -11.025  11.371  0.00  0.00    +0.167 C 
BRANCH   8  13
ATOM     13  C   UNL     1      -3.816 -10.110  10.701  0.00  0.00    -0.017 A 
ATOM     16  C   UNL     1      -4.635  -9.285  11.471  0.00  0.00    +0.008 A 
ATOM     17  C   UNL     1      -3.915 -10.089   9.309  0.00  0.00    +0.008 A 
ATOM     19  C   UNL     1      -5.554  -8.439  10.850  0.00  0.00    +0.023 A 
ATOM     20  C   UNL     1      -4.834  -9.243   8.689  0.00  0.00    +0.023 A 
ATOM     21  C   UNL     1      -5.653  -8.418   9.459  0.00  0.00    +0.033 A 
BRANCH  21   6
ATOM      4  O   UNL     1      -8.385  -8.990   8.328  0.00  0.00    -0.276 OA
ATOM      6  N   UNL     1      -6.572  -7.571   8.837  0.00  0.00    -0.286 N 
ATOM     27  C   UNL     1      -7.836  -7.893   8.326  0.00  0.00    +0.214 C 
ATOM     28  C   UNL     1      -8.521  -6.688   7.731  0.00  0.00    +0.109 C 
ATOM     30  H   UNL     1      -6.278  -6.600   8.750  0.00  0.00    +0.155 HD
ENDBRANCH  21   6
ENDBRANCH   8  13
BRANCH   8   2
ATOM      2  O   UNL     1      -1.751 -10.256  11.904  0.00  0.00    -0.385 OA
ATOM     29  H   UNL     1      -0.910 -10.677  11.662  0.00  0.00    +0.210 HD
ENDBRANCH   8   2
ENDBRANCH   7   8
BRANCH   5  10
ATOM     10  C   UNL     1      -1.869 -11.561  14.397  0.00  0.00    +0.108 C 
BRANCH  10  11
ATOM     11  C   UNL     1      -2.914 -10.676  15.075  0.00  0.00    +0.024 C 
BRANCH  11  15
ATOM     15  C   UNL     1      -3.119 -10.964  16.568  0.00  0.00    +0.036 C 
BRANCH  15  18
ATOM     18  C   UNL     1      -4.497 -10.621  17.072  0.00  0.00    -0.047 A 
ATOM     22  C   UNL     1      -5.385  -9.922  16.254  0.00  0.00    +0.003 A 
ATOM     23  C   UNL     1      -4.884 -11.002  18.356  0.00  0.00    +0.003 A 
ATOM     24  C   UNL     1      -6.660  -9.604  16.721  0.00  0.00    +0.000 A 
ATOM     25  C   UNL     1      -6.160 -10.684  18.823  0.00  0.00    +0.000 A 
ATOM     26  C   UNL     1      -7.048  -9.985  18.006  0.00  0.00    +0.000 A 
ENDBRANCH  15  18
ENDBRANCH  11  15
ENDBRANCH  10  11
ENDBRANCH   5  10
TORSDOF 8
ENDMDL
MODEL 7
REMARK VINA RESULT:      -6.2      2.671      6.781
REMARK  Name = 56774693
REMARK  9 active torsions:
REMARK  status: ('A' for Active; 'I' for Inactive)
REMARK    1  A    between atoms: O_2  and  C_8
REMARK    2  A    between atoms: N_5  and  C_10
REMARK    3  A    between atoms: N_6  and  C_21
REMARK    4  A    between atoms: C_7  and  C_8
REMARK    5  A    between atoms: C_8  and  C_13
REMARK    6  A    between atoms: C_10  and  C_11
REMARK    7  A    between atoms: C_11  and  C_15
REMARK    8  A    between atoms: C_15  and  C_18
REMARK    9  A    between atoms: C_27  and  C_28
REMARK                            x       y       z     vdW  Elec       q    Type
REMARK                         _______ _______ _______ _____ _____    ______ ____
ROOT
ATOM      1  O   UNL     1     -17.216   3.995  21.004  0.00  0.00    -0.369 OA
ATOM      3  O   UNL     1     -17.953   4.706  24.468  0.00  0.00    -0.273 OA
ATOM      5  N   UNL     1     -16.901   6.050  22.885  0.00  0.00    -0.292 N 
ATOM      7  C   UNL     1     -16.302   6.136  21.547  0.00  0.00    +0.135 C 
ATOM      9  C   UNL     1     -17.137   5.341  20.551  0.00  0.00    +0.185 C 
ATOM     12  C   UNL     1     -17.580   4.910  23.311  0.00  0.00    +0.242 C 
ATOM     14  C   UNL     1     -17.934   3.911  22.216  0.00  0.00    +0.255 C 
ENDROOT
BRANCH   7   8
ATOM      8  C   UNL     1     -14.853   5.640  21.572  0.00  0.00    +0.167 C 
BRANCH   8  13
ATOM     13  C   UNL     1     -13.929   6.575  20.834  0.00  0.00    -0.017 A 
ATOM     16  C   UNL     1     -12.583   6.649  21.190  0.00  0.00    +0.008 A 
ATOM     17  C   UNL     1     -14.421   7.366  19.796  0.00  0.00    +0.008 A 
ATOM     19  C   UNL     1     -11.727   7.515  20.509  0.00  0.00    +0.023 A 
ATOM     20  C   UNL     1     -13.566   8.232  19.114  0.00  0.00    +0.023 A 
ATOM     21  C   UNL     1     -12.220   8.306  19.470  0.00  0.00    +0.033 A 
BRANCH  21   6
ATOM      4  O   UNL     1     -10.498   7.842  17.044  0.00  0.00    -0.276 OA
ATOM      6  N   UNL     1     -11.364   9.172  18.787  0.00  0.00    -0.286 N 
ATOM     27  C   UNL     1     -10.581   8.901  17.657  0.00  0.00    +0.214 C 
ATOM     28  C   UNL     1      -9.792  10.110  17.222  0.00  0.00    +0.109 C 
ATOM     30  H   UNL     1     -11.309  10.116  19.165  0.00  0.00    +0.155 HD
ENDBRANCH  21   6
ENDBRANCH   8  13
BRANCH   8   2
ATOM      2  O   UNL     1     -14.422   5.512  22.922  0.00  0.00    -0.385 OA
ATOM     29  H   UNL     1     -14.918   4.790  23.343  0.00  0.00    +0.210 HD
ENDBRANCH   8   2
ENDBRANCH   7   8
BRANCH   5  10
ATOM     10  C   UNL     1     -16.606   7.124  23.825  0.00  0.00    +0.108 C 
BRANCH  10  11
ATOM     11  C   UNL     1     -16.185   8.416  23.127  0.00  0.00    +0.024 C 
BRANCH  11  15
ATOM     15  C   UNL     1     -14.861   9.007  23.629  0.00  0.00    +0.036 C 
BRANCH  15  18
ATOM     18  C   UNL     1     -14.204   9.949  22.652  0.00  0.00    -0.047 A 
ATOM     22  C   UNL     1     -12.840  10.221  22.755  0.00  0.00    +0.003 A 
ATOM     23  C   UNL     1     -14.961  10.549  21.646  0.00  0.00    +0.003 A 
ATOM     24  C   UNL     1     -12.232  11.092  21.851  0.00  0.00    +0.000 A 
ATOM     25  C   UNL     1     -14.353  11.420  20.742  0.00  0.00    +0.000 A 
ATOM     26  C   UNL     1     -12.989  11.692  20.845  0.00  0.00    +0.000 A 
ENDBRANCH  15  18
ENDBRANCH  11  15
ENDBRANCH  10  11
ENDBRANCH   5  10
TORSDOF 8
ENDMDL
MODEL 8
REMARK VINA RESULT:      -6.2     27.794     31.624
REMARK  Name = 56774693
REMARK  9 active torsions:
REMARK  status: ('A' for Active; 'I' for Inactive)
REMARK    1  A    between atoms: O_2  and  C_8
REMARK    2  A    between atoms: N_5  and  C_10
REMARK    3  A    between atoms: N_6  and  C_21
REMARK    4  A    between atoms: C_7  and  C_8
REMARK    5  A    between atoms: C_8  and  C_13
REMARK    6  A    between atoms: C_10  and  C_11
REMARK    7  A    between atoms: C_11  and  C_15
REMARK    8  A    between atoms: C_15  and  C_18
REMARK    9  A    between atoms: C_27  and  C_28
REMARK                            x       y       z     vdW  Elec       q    Type
REMARK                         _______ _______ _______ _____ _____    ______ ____
ROOT
ATOM      1  O   UNL     1       8.273   6.768   6.860  0.00  0.00    -0.369 OA
ATOM      3  O   UNL     1      10.950   5.795   9.081  0.00  0.00    -0.273 OA
ATOM      5  N   UNL     1      11.067   6.539   6.879  0.00  0.00    -0.292 N 
ATOM      7  C   UNL     1      10.333   6.868   5.651  0.00  0.00    +0.135 C 
ATOM      9  C   UNL     1       9.041   7.598   5.997  0.00  0.00    +0.185 C 
ATOM     12  C   UNL     1      10.407   6.242   8.070  0.00  0.00    +0.242 C 
ATOM     14  C   UNL     1       8.923   6.590   8.100  0.00  0.00    +0.255 C 
ENDROOT
BRANCH   7   8
ATOM      8  C   UNL     1      10.050   5.603   4.836  0.00  0.00    +0.167 C 
BRANCH   8  13
ATOM     13  C   UNL     1      11.056   5.412   3.730  0.00  0.00    -0.017 A 
ATOM     16  C   UNL     1      11.121   4.197   3.048  0.00  0.00    +0.008 A 
ATOM     17  C   UNL     1      11.922   6.451   3.389  0.00  0.00    +0.008 A 
ATOM     19  C   UNL     1      12.053   4.020   2.025  0.00  0.00    +0.023 A 
ATOM     20  C   UNL     1      12.854   6.275   2.367  0.00  0.00    +0.023 A 
ATOM     21  C   UNL     1      12.919   5.060   1.685  0.00  0.00    +0.033 A 
BRANCH  21   6
ATOM      4  O   UNL     1      15.328   3.259   1.522  0.00  0.00    -0.276 OA
ATOM      6  N   UNL     1      13.851   4.884   0.661  0.00  0.00    -0.286 N 
ATOM     27  C   UNL     1      14.960   4.028   0.638  0.00  0.00    +0.214 C 
ATOM     28  C   UNL     1      15.721   4.133  -0.659  0.00  0.00    +0.109 C 
ATOM     30  H   UNL     1      13.696   5.452  -0.170  0.00  0.00    +0.155 HD
ENDBRANCH  21   6
ENDBRANCH   8  13
BRANCH   8   2
ATOM      2  O   UNL     1      10.072   4.472   5.700  0.00  0.00    -0.385 OA
ATOM     29  H   UNL     1      10.176   4.777   6.616  0.00  0.00    +0.210 HD
ENDBRANCH   8   2
ENDBRANCH   7   8
BRANCH   5  10
ATOM     10  C   UNL     1      12.509   6.352   6.771  0.00  0.00    +0.108 C 
BRANCH  10  11
ATOM     11  C   UNL     1      13.288   7.647   6.994  0.00  0.00    +0.024 C 
BRANCH  11  15
ATOM     15  C   UNL     1      14.750   7.597   6.535  0.00  0.00    +0.036 C 
BRANCH  15  18
ATOM     18  C   UNL     1      14.959   8.050   5.113  0.00  0.00    -0.047 A 
ATOM     22  C   UNL     1      14.255   9.149   4.620  0.00  0.00    +0.003 A 
ATOM     23  C   UNL     1      15.857   7.371   4.289  0.00  0.00    +0.003 A 
ATOM     24  C   UNL     1      14.449   9.569   3.304  0.00  0.00    +0.000 A 
ATOM     25  C   UNL     1      16.050   7.792   2.973  0.00  0.00    +0.000 A 
ATOM     26  C   UNL     1      15.346   8.890   2.480  0.00  0.00    +0.000 A 
ENDBRANCH  15  18
ENDBRANCH  11  15
ENDBRANCH  10  11
ENDBRANCH   5  10
TORSDOF 8
ENDMDL
MODEL 9
REMARK VINA RESULT:      -6.1     33.076     35.137
REMARK  Name = 56774693
REMARK  9 active torsions:
REMARK  status: ('A' for Active; 'I' for Inactive)
REMARK    1  A    between atoms: O_2  and  C_8
REMARK    2  A    between atoms: N_5  and  C_10
REMARK    3  A    between atoms: N_6  and  C_21
REMARK    4  A    between atoms: C_7  and  C_8
REMARK    5  A    between atoms: C_8  and  C_13
REMARK    6  A    between atoms: C_10  and  C_11
REMARK    7  A    between atoms: C_11  and  C_15
REMARK    8  A    between atoms: C_15  and  C_18
REMARK    9  A    between atoms: C_27  and  C_28
REMARK                            x       y       z     vdW  Elec       q    Type
REMARK                         _______ _______ _______ _____ _____    ______ ____
ROOT
ATOM      1  O   UNL     1      20.418  -7.919  27.035  0.00  0.00    -0.369 OA
ATOM      3  O   UNL     1      17.178  -8.980  25.843  0.00  0.00    -0.273 OA
ATOM      5  N   UNL     1      18.389  -7.068  25.298  0.00  0.00    -0.292 N 
ATOM      7  C   UNL     1      19.546  -6.217  25.602  0.00  0.00    +0.135 C 
ATOM      9  C   UNL     1      20.756  -7.081  25.936  0.00  0.00    +0.185 C 
ATOM     12  C   UNL     1      18.203  -8.300  25.923  0.00  0.00    +0.242 C 
ATOM     14  C   UNL     1      19.412  -8.841  26.678  0.00  0.00    +0.255 C 
ENDROOT
BRANCH   7   8
ATOM      8  C   UNL     1      19.222  -5.255  26.750  0.00  0.00    +0.167 C 
BRANCH   8  13
ATOM     13  C   UNL     1      19.696  -3.855  26.458  0.00  0.00    -0.017 A 
ATOM     16  C   UNL     1      20.205  -3.539  25.199  0.00  0.00    +0.008 A 
ATOM     17  C   UNL     1      19.628  -2.875  27.449  0.00  0.00    +0.008 A 
ATOM     19  C   UNL     1      20.645  -2.242  24.930  0.00  0.00    +0.023 A 
ATOM     20  C   UNL     1      20.068  -1.580  27.180  0.00  0.00    +0.023 A 
ATOM     21  C   UNL     1      20.576  -1.263  25.921  0.00  0.00    +0.033 A 
BRANCH  21   6
ATOM      4  O   UNL     1      23.342  -0.213  25.359  0.00  0.00    -0.276 OA
ATOM      6  N   UNL     1      21.016   0.034  25.652  0.00  0.00    -0.286 N 
ATOM     27  C   UNL     1      22.323   0.469  25.397  0.00  0.00    +0.214 C 
ATOM     28  C   UNL     1      22.379   1.955  25.151  0.00  0.00    +0.109 C 
ATOM     30  H   UNL     1      20.288   0.746  25.640  0.00  0.00    +0.155 HD
ENDBRANCH  21   6
ENDBRANCH   8  13
BRANCH   8   2
ATOM      2  O   UNL     1      17.816  -5.245  26.972  0.00  0.00    -0.385 OA
ATOM     29  H   UNL     1      17.503  -4.325  26.966  0.00  0.00    +0.210 HD
ENDBRANCH   8   2
ENDBRANCH   7   8
BRANCH   5  10
ATOM     10  C   UNL     1      17.341  -6.504  24.457  0.00  0.00    +0.108 C 
BRANCH  10  11
ATOM     11  C   UNL     1      17.891  -5.584  23.370  0.00  0.00    +0.024 C 
BRANCH  11  15
ATOM     15  C   UNL     1      16.878  -4.571  22.821  0.00  0.00    +0.036 C 
BRANCH  15  18
ATOM     18  C   UNL     1      16.999  -3.197  23.427  0.00  0.00    -0.047 A 
ATOM     22  C   UNL     1      17.578  -2.160  22.694  0.00  0.00    +0.003 A 
ATOM     23  C   UNL     1      16.532  -2.961  24.719  0.00  0.00    +0.003 A 
ATOM     24  C   UNL     1      17.689  -0.888  23.255  0.00  0.00    +0.000 A 
ATOM     25  C   UNL     1      16.644  -1.689  25.280  0.00  0.00    +0.000 A 
ATOM     26  C   UNL     1      17.223  -0.652  24.548  0.00  0.00    +0.000 A 
ENDBRANCH  15  18
ENDBRANCH  11  15
ENDBRANCH  10  11
ENDBRANCH   5  10
TORSDOF 8
ENDMDL
MODEL 10
REMARK VINA RESULT:      -6.1      3.070      4.878
REMARK  Name = 56774693
REMARK  9 active torsions:
REMARK  status: ('A' for Active; 'I' for Inactive)
REMARK    1  A    between atoms: O_2  and  C_8
REMARK    2  A    between atoms: N_5  and  C_10
REMARK    3  A    between atoms: N_6  and  C_21
REMARK    4  A    between atoms: C_7  and  C_8
REMARK    5  A    between atoms: C_8  and  C_13
REMARK    6  A    between atoms: C_10  and  C_11
REMARK    7  A    between atoms: C_11  and  C_15
REMARK    8  A    between atoms: C_15  and  C_18
REMARK    9  A    between atoms: C_27  and  C_28
REMARK                            x       y       z     vdW  Elec       q    Type
REMARK                         _______ _______ _______ _____ _____    ______ ____
ROOT
ATOM      1  O   UNL     1     -10.054  11.855  17.933  0.00  0.00    -0.369 OA
ATOM      3  O   UNL     1     -10.343   9.250  15.448  0.00  0.00    -0.273 OA
ATOM      5  N   UNL     1     -11.676   9.654  17.314  0.00  0.00    -0.292 N 
ATOM      7  C   UNL     1     -11.848  10.406  18.562  0.00  0.00    +0.135 C 
ATOM      9  C   UNL     1     -11.410  11.852  18.364  0.00  0.00    +0.185 C 
ATOM     12  C   UNL     1     -10.647   9.944  16.420  0.00  0.00    +0.242 C 
ATOM     14  C   UNL     1      -9.928  11.268  16.656  0.00  0.00    +0.255 C 
ENDROOT
BRANCH   7   8
ATOM      8  C   UNL     1     -11.068   9.745  19.702  0.00  0.00    +0.167 C 
BRANCH   8  13
ATOM     13  C   UNL     1     -11.911   8.746  20.452  0.00  0.00    -0.017 A 
ATOM     16  C   UNL     1     -13.001   9.179  21.206  0.00  0.00    +0.008 A 
ATOM     17  C   UNL     1     -11.599   7.387  20.393  0.00  0.00    +0.008 A 
ATOM     19  C   UNL     1     -13.781   8.254  21.901  0.00  0.00    +0.023 A 
ATOM     20  C   UNL     1     -12.379   6.462  21.087  0.00  0.00    +0.023 A 
ATOM     21  C   UNL     1     -13.469   6.895  21.841  0.00  0.00    +0.033 A 
BRANCH  21   6
ATOM      4  O   UNL     1     -15.662   5.072  20.874  0.00  0.00    -0.276 OA
ATOM      6  N   UNL     1     -14.250   5.969  22.535  0.00  0.00    -0.286 N 
ATOM     27  C   UNL     1     -15.263   5.143  22.032  0.00  0.00    +0.214 C 
ATOM     28  C   UNL     1     -15.867   4.281  23.111  0.00  0.00    +0.109 C 
ATOM     30  H   UNL     1     -14.049   5.892  23.530  0.00  0.00    +0.155 HD
ENDBRANCH  21   6
ENDBRANCH   8  13
BRANCH   8   2
ATOM      2  O   UNL     1      -9.919   9.095  19.171  0.00  0.00    -0.385 OA
ATOM     29  H   UNL     1      -9.123   9.567  19.469  0.00  0.00    +0.210 HD
ENDBRANCH   8   2
ENDBRANCH   7   8
BRANCH   5  10
ATOM     10  C   UNL     1     -12.504   8.470  17.121  0.00  0.00    +0.108 C 
BRANCH  10  11
ATOM     11  C   UNL     1     -13.995   8.799  17.068  0.00  0.00    +0.024 C 
BRANCH  11  15
ATOM     15  C   UNL     1     -14.863   7.973  18.027  0.00  0.00    +0.036 C 
BRANCH  15  18
ATOM     18  C   UNL     1     -15.743   8.806  18.923  0.00  0.00    -0.047 A 
ATOM     22  C   UNL     1     -16.689   8.188  19.741  0.00  0.00    +0.003 A 
ATOM     23  C   UNL     1     -15.612  10.194  18.935  0.00  0.00    +0.003 A 
ATOM     24  C   UNL     1     -17.504   8.959  20.570  0.00  0.00    +0.000 A 
ATOM     25  C   UNL     1     -16.427  10.965  19.764  0.00  0.00    +0.000 A 
ATOM     26  C   UNL     1     -17.373  10.347  20.582  0.00  0.00    +0.000 A 
ENDBRANCH  15  18
ENDBRANCH  11  15
ENDBRANCH  10  11
ENDBRANCH   5  10
TORSDOF 8
ENDMDL
