MODEL 1
REMARK VINA RESULT:      -7.7      0.000      0.000
REMARK  Name = 26744132
REMARK  7 active torsions:
REMARK  status: ('A' for Active; 'I' for Inactive)
REMARK    1  A    between atoms: O_1  and  C_13
REMARK    2  A    between atoms: O_4  and  C_27
REMARK    3  A    between atoms: O_4  and  C_28
REMARK    4  A    between atoms: N_5  and  C_9
REMARK    5  A    between atoms: C_10  and  C_18
REMARK    6  A    between atoms: C_19  and  C_21
REMARK    7  A    between atoms: C_20  and  C_22
REMARK                            x       y       z     vdW  Elec       q    Type
REMARK                         _______ _______ _______ _____ _____    ______ ____
ROOT
ATOM      5  N   UNL     1      12.158   8.322  19.475  0.00  0.00    -0.286 NA
ATOM     10  C   UNL     1      13.119   8.522  20.579  0.00  0.00    +0.149 C 
ATOM     11  C   UNL     1      10.825   8.374  20.072  0.00  0.00    +0.116 C 
ATOM     12  C   UNL     1      12.396   7.995  21.832  0.00  0.00    +0.061 C 
ATOM     13  C   UNL     1      11.020   7.563  21.339  0.00  0.00    +0.130 C 
ENDROOT
BRANCH   5   9
ATOM      3  O   UNL     1      15.279  10.140  14.499  0.00  0.00    -0.276 OA
ATOM      6  N   UNL     1      13.947  10.546  16.359  0.00  0.00    -0.302 N 
ATOM      9  C   UNL     1      12.314   9.291  18.393  0.00  0.00    +0.060 C 
ATOM     14  C   UNL     1      12.668   8.569  17.086  0.00  0.00    +0.038 C 
ATOM     15  C   UNL     1      13.402  10.312  18.753  0.00  0.00    +0.038 C 
ATOM     16  C   UNL     1      12.929   9.571  15.963  0.00  0.00    +0.109 C 
ATOM     17  C   UNL     1      13.650  11.280  17.595  0.00  0.00    +0.109 C 
ATOM     19  C   UNL     1      15.070  10.743  15.555  0.00  0.00    +0.212 C 
ATOM     21  C   UNL     1      16.072  11.763  16.032  0.00  0.00    +0.109 C 
ENDBRANCH   5   9
BRANCH  10  18
ATOM      2  O   UNL     1      14.429   6.789  19.458  0.00  0.00    -0.336 OA
ATOM      7  N   UNL     1      15.621   8.082  20.844  0.00  0.00    -0.190 NA
ATOM      8  N   UNL     1      15.746   6.317  19.394  0.00  0.00    -0.056 NA
ATOM     18  C   UNL     1      14.443   7.829  20.332  0.00  0.00    +0.245 A 
ATOM     20  C   UNL     1      16.388   7.129  20.239  0.00  0.00    +0.202 A 
BRANCH  20  22
ATOM     22  C   UNL     1      17.794   7.016  20.499  0.00  0.00    +0.023 A 
ATOM     23  C   UNL     1      18.475   8.064  21.120  0.00  0.00    +0.015 A 
ATOM     24  C   UNL     1      18.481   5.860  20.131  0.00  0.00    +0.015 A 
ATOM     25  C   UNL     1      19.842   7.955  21.371  0.00  0.00    +0.046 A 
ATOM     26  C   UNL     1      19.848   5.750  20.382  0.00  0.00    +0.046 A 
ATOM     27  C   UNL     1      20.529   6.797  21.002  0.00  0.00    +0.120 A 
BRANCH  27   4
ATOM      4  O   UNL     1      21.864   6.690  21.248  0.00  0.00    -0.495 OA
ATOM     28  C   UNL     1      22.738   7.473  20.436  0.00  0.00    +0.277 C 
ENDBRANCH  27   4
ENDBRANCH  20  22
ENDBRANCH  10  18
BRANCH  13   1
ATOM      1  O   UNL     1      10.028   7.854  22.306  0.00  0.00    -0.390 OA
ATOM     29  H   UNL     1       9.701   7.006  22.653  0.00  0.00    +0.210 HD
ENDBRANCH  13   1
TORSDOF 5
ENDMDL
MODEL 2
REMARK VINA RESULT:      -7.5      2.206      4.425
REMARK  Name = 26744132
REMARK  7 active torsions:
REMARK  status: ('A' for Active; 'I' for Inactive)
REMARK    1  A    between atoms: O_1  and  C_13
REMARK    2  A    between atoms: O_4  and  C_27
REMARK    3  A    between atoms: O_4  and  C_28
REMARK    4  A    between atoms: N_5  and  C_9
REMARK    5  A    between atoms: C_10  and  C_18
REMARK    6  A    between atoms: C_19  and  C_21
REMARK    7  A    between atoms: C_20  and  C_22
REMARK                            x       y       z     vdW  Elec       q    Type
REMARK                         _______ _______ _______ _____ _____    ______ ____
ROOT
ATOM      5  N   UNL     1      14.611   9.138  18.630  0.00  0.00    -0.286 NA
ATOM     10  C   UNL     1      14.492   7.669  18.527  0.00  0.00    +0.149 C 
ATOM     11  C   UNL     1      13.683   9.698  17.649  0.00  0.00    +0.116 C 
ATOM     12  C   UNL     1      14.056   7.410  17.073  0.00  0.00    +0.061 C 
ATOM     13  C   UNL     1      13.911   8.794  16.453  0.00  0.00    +0.130 C 
ENDROOT
BRANCH   5   9
ATOM      3  O   UNL     1      10.543  10.328  23.083  0.00  0.00    -0.276 OA
ATOM      6  N   UNL     1      12.539  10.713  21.959  0.00  0.00    -0.302 N 
ATOM      9  C   UNL     1      14.358   9.644  19.977  0.00  0.00    +0.060 C 
ATOM     14  C   UNL     1      13.329   8.754  20.688  0.00  0.00    +0.038 C 
ATOM     15  C   UNL     1      13.859  11.093  19.910  0.00  0.00    +0.038 C 
ATOM     16  C   UNL     1      12.978   9.319  22.063  0.00  0.00    +0.109 C 
ATOM     17  C   UNL     1      13.495  11.612  21.302  0.00  0.00    +0.109 C 
ATOM     19  C   UNL     1      11.313  11.097  22.502  0.00  0.00    +0.212 C 
ATOM     21  C   UNL     1      10.933  12.548  22.353  0.00  0.00    +0.109 C 
ENDBRANCH   5   9
BRANCH  10  18
ATOM      2  O   UNL     1      16.125   5.901  18.105  0.00  0.00    -0.336 OA
ATOM      7  N   UNL     1      16.617   7.198  19.863  0.00  0.00    -0.190 NA
ATOM      8  N   UNL     1      17.328   5.409  18.627  0.00  0.00    -0.056 NA
ATOM     18  C   UNL     1      15.776   6.954  18.889  0.00  0.00    +0.245 A 
ATOM     20  C   UNL     1      17.552   6.225  19.662  0.00  0.00    +0.202 A 
BRANCH  20  22
ATOM     22  C   UNL     1      18.700   6.096  20.511  0.00  0.00    +0.023 A 
ATOM     23  C   UNL     1      19.715   5.197  20.182  0.00  0.00    +0.015 A 
ATOM     24  C   UNL     1      18.802   6.869  21.668  0.00  0.00    +0.015 A 
ATOM     25  C   UNL     1      20.830   5.071  21.010  0.00  0.00    +0.046 A 
ATOM     26  C   UNL     1      19.918   6.743  22.496  0.00  0.00    +0.046 A 
ATOM     27  C   UNL     1      20.932   5.844  22.166  0.00  0.00    +0.120 A 
BRANCH  27   4
ATOM      4  O   UNL     1      22.021   5.722  22.974  0.00  0.00    -0.495 OA
ATOM     28  C   UNL     1      22.689   4.461  22.976  0.00  0.00    +0.277 C 
ENDBRANCH  27   4
ENDBRANCH  20  22
ENDBRANCH  10  18
BRANCH  13   1
ATOM      1  O   UNL     1      12.820   8.829  15.552  0.00  0.00    -0.390 OA
ATOM     29  H   UNL     1      13.135   9.233  14.727  0.00  0.00    +0.210 HD
ENDBRANCH  13   1
TORSDOF 5
ENDMDL
MODEL 3
REMARK VINA RESULT:      -7.0      3.196      9.314
REMARK  Name = 26744132
REMARK  7 active torsions:
REMARK  status: ('A' for Active; 'I' for Inactive)
REMARK    1  A    between atoms: O_1  and  C_13
REMARK    2  A    between atoms: O_4  and  C_27
REMARK    3  A    between atoms: O_4  and  C_28
REMARK    4  A    between atoms: N_5  and  C_9
REMARK    5  A    between atoms: C_10  and  C_18
REMARK    6  A    between atoms: C_19  and  C_21
REMARK    7  A    between atoms: C_20  and  C_22
REMARK                            x       y       z     vdW  Elec       q    Type
REMARK                         _______ _______ _______ _____ _____    ______ ____
ROOT
ATOM      5  N   UNL     1      20.495   6.981  21.267  0.00  0.00    -0.286 NA
ATOM     10  C   UNL     1      19.169   7.485  21.678  0.00  0.00    +0.149 C 
ATOM     11  C   UNL     1      21.477   7.937  21.774  0.00  0.00    +0.116 C 
ATOM     12  C   UNL     1      19.344   9.011  21.786  0.00  0.00    +0.061 C 
ATOM     13  C   UNL     1      20.811   9.263  21.462  0.00  0.00    +0.130 C 
ENDROOT
BRANCH   5   9
ATOM      3  O   UNL     1      24.630   2.764  22.976  0.00  0.00    -0.276 OA
ATOM      6  N   UNL     1      22.585   3.398  22.076  0.00  0.00    -0.302 N 
ATOM      9  C   UNL     1      20.763   5.621  21.728  0.00  0.00    +0.060 C 
ATOM     14  C   UNL     1      21.856   5.636  22.806  0.00  0.00    +0.038 C 
ATOM     15  C   UNL     1      21.188   4.738  20.547  0.00  0.00    +0.038 C 
ATOM     16  C   UNL     1      22.219   4.216  23.234  0.00  0.00    +0.109 C 
ATOM     17  C   UNL     1      21.566   3.334  21.020  0.00  0.00    +0.109 C 
ATOM     19  C   UNL     1      23.805   2.724  22.059  0.00  0.00    +0.212 C 
ATOM     21  C   UNL     1      24.108   1.904  20.831  0.00  0.00    +0.109 C 
ENDBRANCH   5   9
BRANCH  10  18
ATOM      2  O   UNL     1      18.331   6.035  19.900  0.00  0.00    -0.336 OA
ATOM      7  N   UNL     1      16.884   7.617  20.545  0.00  0.00    -0.190 NA
ATOM      8  N   UNL     1      17.185   5.859  19.113  0.00  0.00    -0.056 NA
ATOM     18  C   UNL     1      18.070   7.088  20.716  0.00  0.00    +0.245 A 
ATOM     20  C   UNL     1      16.378   6.830  19.552  0.00  0.00    +0.202 A 
BRANCH  20  22
ATOM     22  C   UNL     1      15.063   7.039  19.022  0.00  0.00    +0.023 A 
ATOM     23  C   UNL     1      14.900   7.438  17.695  0.00  0.00    +0.015 A 
ATOM     24  C   UNL     1      13.945   6.844  19.833  0.00  0.00    +0.015 A 
ATOM     25  C   UNL     1      13.621   7.643  17.180  0.00  0.00    +0.046 A 
ATOM     26  C   UNL     1      12.665   7.048  19.318  0.00  0.00    +0.046 A 
ATOM     27  C   UNL     1      12.503   7.447  17.991  0.00  0.00    +0.120 A 
BRANCH  27   4
ATOM      4  O   UNL     1      11.253   7.646  17.489  0.00  0.00    -0.495 OA
ATOM     28  C   UNL     1      11.065   8.785  16.649  0.00  0.00    +0.277 C 
ENDBRANCH  27   4
ENDBRANCH  20  22
ENDBRANCH  10  18
BRANCH  13   1
ATOM      1  O   UNL     1      21.328  10.312  22.260  0.00  0.00    -0.390 OA
ATOM     29  H   UNL     1      20.648  11.005  22.308  0.00  0.00    +0.210 HD
ENDBRANCH  13   1
TORSDOF 5
ENDMDL
MODEL 4
REMARK VINA RESULT:      -6.8      2.352      2.843
REMARK  Name = 26744132
REMARK  7 active torsions:
REMARK  status: ('A' for Active; 'I' for Inactive)
REMARK    1  A    between atoms: O_1  and  C_13
REMARK    2  A    between atoms: O_4  and  C_27
REMARK    3  A    between atoms: O_4  and  C_28
REMARK    4  A    between atoms: N_5  and  C_9
REMARK    5  A    between atoms: C_10  and  C_18
REMARK    6  A    between atoms: C_19  and  C_21
REMARK    7  A    between atoms: C_20  and  C_22
REMARK                            x       y       z     vdW  Elec       q    Type
REMARK                         _______ _______ _______ _____ _____    ______ ____
ROOT
ATOM      5  N   UNL     1      12.696   8.998  20.401  0.00  0.00    -0.286 NA
ATOM     10  C   UNL     1      13.335   8.161  21.437  0.00  0.00    +0.149 C 
ATOM     11  C   UNL     1      11.262   8.980  20.682  0.00  0.00    +0.116 C 
ATOM     12  C   UNL     1      12.253   7.145  21.845  0.00  0.00    +0.061 C 
ATOM     13  C   UNL     1      11.029   7.520  21.019  0.00  0.00    +0.130 C 
ENDROOT
BRANCH   5   9
ATOM      3  O   UNL     1      17.613  12.670  20.021  0.00  0.00    -0.276 OA
ATOM      6  N   UNL     1      15.433  12.207  20.676  0.00  0.00    -0.302 N 
ATOM      9  C   UNL     1      13.229  10.358  20.350  0.00  0.00    +0.060 C 
ATOM     14  C   UNL     1      14.370  10.437  19.328  0.00  0.00    +0.038 C 
ATOM     15  C   UNL     1      13.724  10.782  21.740  0.00  0.00    +0.038 C 
ATOM     16  C   UNL     1      15.006  11.826  19.327  0.00  0.00    +0.109 C 
ATOM     17  C   UNL     1      14.374  12.165  21.692  0.00  0.00    +0.109 C 
ATOM     19  C   UNL     1      16.749  12.608  20.900  0.00  0.00    +0.212 C 
ATOM     21  C   UNL     1      17.110  12.982  22.315  0.00  0.00    +0.109 C 
ENDBRANCH   5   9
BRANCH  10  18
ATOM      2  O   UNL     1      14.488   6.687  19.865  0.00  0.00    -0.336 OA
ATOM      7  N   UNL     1      15.824   7.587  21.420  0.00  0.00    -0.190 NA
ATOM      8  N   UNL     1      15.774   6.197  19.605  0.00  0.00    -0.056 NA
ATOM     18  C   UNL     1      14.606   7.498  20.948  0.00  0.00    +0.245 A 
ATOM     20  C   UNL     1      16.505   6.772  20.564  0.00  0.00    +0.202 A 
BRANCH  20  22
ATOM     22  C   UNL     1      17.917   6.556  20.693  0.00  0.00    +0.023 A 
ATOM     23  C   UNL     1      18.676   7.380  21.523  0.00  0.00    +0.015 A 
ATOM     24  C   UNL     1      18.531   5.521  19.989  0.00  0.00    +0.015 A 
ATOM     25  C   UNL     1      20.050   7.171  21.647  0.00  0.00    +0.046 A 
ATOM     26  C   UNL     1      19.904   5.310  20.112  0.00  0.00    +0.046 A 
ATOM     27  C   UNL     1      20.663   6.135  20.942  0.00  0.00    +0.120 A 
BRANCH  27   4
ATOM      4  O   UNL     1      22.004   5.929  21.063  0.00  0.00    -0.495 OA
ATOM     28  C   UNL     1      22.479   4.601  20.848  0.00  0.00    +0.277 C 
ENDBRANCH  27   4
ENDBRANCH  20  22
ENDBRANCH  10  18
BRANCH  13   1
ATOM      1  O   UNL     1       9.842   7.337  21.769  0.00  0.00    -0.390 OA
ATOM     29  H   UNL     1       9.631   6.389  21.755  0.00  0.00    +0.210 HD
ENDBRANCH  13   1
TORSDOF 5
ENDMDL
MODEL 5
REMARK VINA RESULT:      -6.7     28.925     32.201
REMARK  Name = 26744132
REMARK  7 active torsions:
REMARK  status: ('A' for Active; 'I' for Inactive)
REMARK    1  A    between atoms: O_1  and  C_13
REMARK    2  A    between atoms: O_4  and  C_27
REMARK    3  A    between atoms: O_4  and  C_28
REMARK    4  A    between atoms: N_5  and  C_9
REMARK    5  A    between atoms: C_10  and  C_18
REMARK    6  A    between atoms: C_19  and  C_21
REMARK    7  A    between atoms: C_20  and  C_22
REMARK                            x       y       z     vdW  Elec       q    Type
REMARK                         _______ _______ _______ _____ _____    ______ ____
ROOT
ATOM      5  N   UNL     1     -15.034   4.896  32.788  0.00  0.00    -0.286 NA
ATOM     10  C   UNL     1     -15.573   6.250  32.550  0.00  0.00    +0.149 C 
ATOM     11  C   UNL     1     -16.091   4.142  33.459  0.00  0.00    +0.116 C 
ATOM     12  C   UNL     1     -16.610   6.464  33.668  0.00  0.00    +0.061 C 
ATOM     13  C   UNL     1     -16.615   5.159  34.455  0.00  0.00    +0.130 C 
ENDROOT
BRANCH   5   9
ATOM      3  O   UNL     1     -15.910   0.483  28.598  0.00  0.00    -0.276 OA
ATOM      6  N   UNL     1     -14.561   1.933  29.812  0.00  0.00    -0.302 N 
ATOM      9  C   UNL     1     -14.578   4.235  31.567  0.00  0.00    +0.060 C 
ATOM     14  C   UNL     1     -15.777   3.897  30.672  0.00  0.00    +0.038 C 
ATOM     15  C   UNL     1     -13.795   2.962  31.919  0.00  0.00    +0.038 C 
ATOM     16  C   UNL     1     -15.332   3.120  29.435  0.00  0.00    +0.109 C 
ATOM     17  C   UNL     1     -13.390   2.202  30.655  0.00  0.00    +0.109 C 
ATOM     19  C   UNL     1     -14.941   0.678  29.337  0.00  0.00    +0.212 C 
ATOM     21  C   UNL     1     -14.098  -0.493  29.771  0.00  0.00    +0.109 C 
ENDBRANCH   5   9
BRANCH  10  18
ATOM      2  O   UNL     1     -14.603   8.277  31.590  0.00  0.00    -0.336 OA
ATOM      7  N   UNL     1     -13.453   7.447  33.323  0.00  0.00    -0.190 NA
ATOM      8  N   UNL     1     -13.510   9.133  31.777  0.00  0.00    -0.056 NA
ATOM     18  C   UNL     1     -14.495   7.313  32.540  0.00  0.00    +0.245 A 
ATOM     20  C   UNL     1     -12.879   8.577  32.816  0.00  0.00    +0.202 A 
BRANCH  20  22
ATOM     22  C   UNL     1     -11.677   9.125  33.372  0.00  0.00    +0.023 A 
ATOM     23  C   UNL     1     -10.646   9.544  32.530  0.00  0.00    +0.015 A 
ATOM     24  C   UNL     1     -11.536   9.238  34.755  0.00  0.00    +0.015 A 
ATOM     25  C   UNL     1      -9.476  10.075  33.071  0.00  0.00    +0.046 A 
ATOM     26  C   UNL     1     -10.366   9.770  35.297  0.00  0.00    +0.046 A 
ATOM     27  C   UNL     1      -9.336  10.189  34.455  0.00  0.00    +0.120 A 
BRANCH  27   4
ATOM      4  O   UNL     1      -8.194  10.708  34.983  0.00  0.00    -0.495 OA
ATOM     28  C   UNL     1      -7.388   9.835  35.773  0.00  0.00    +0.277 C 
ENDBRANCH  27   4
ENDBRANCH  20  22
ENDBRANCH  10  18
BRANCH  13   1
ATOM      1  O   UNL     1     -17.923   4.842  34.891  0.00  0.00    -0.390 OA
ATOM     29  H   UNL     1     -18.468   4.696  34.098  0.00  0.00    +0.210 HD
ENDBRANCH  13   1
TORSDOF 5
ENDMDL
MODEL 6
REMARK VINA RESULT:      -6.7     26.186     29.585
REMARK  Name = 26744132
REMARK  7 active torsions:
REMARK  status: ('A' for Active; 'I' for Inactive)
REMARK    1  A    between atoms: O_1  and  C_13
REMARK    2  A    between atoms: O_4  and  C_27
REMARK    3  A    between atoms: O_4  and  C_28
REMARK    4  A    between atoms: N_5  and  C_9
REMARK    5  A    between atoms: C_10  and  C_18
REMARK    6  A    between atoms: C_19  and  C_21
REMARK    7  A    between atoms: C_20  and  C_22
REMARK                            x       y       z     vdW  Elec       q    Type
REMARK                         _______ _______ _______ _____ _____    ______ ____
ROOT
ATOM      5  N   UNL     1      -3.410 -11.291  15.093  0.00  0.00    -0.286 NA
ATOM     10  C   UNL     1      -3.019 -10.369  14.007  0.00  0.00    +0.149 C 
ATOM     11  C   UNL     1      -2.493 -11.035  16.202  0.00  0.00    +0.116 C 
ATOM     12  C   UNL     1      -1.517 -10.116  14.225  0.00  0.00    +0.061 C 
ATOM     13  C   UNL     1      -1.164 -10.901  15.483  0.00  0.00    +0.130 C 
ENDROOT
BRANCH   5   9
ATOM      3  O   UNL     1      -7.510 -10.712  19.637  0.00  0.00    -0.276 OA
ATOM      6  N   UNL     1      -6.882 -11.372  17.500  0.00  0.00    -0.302 N 
ATOM      9  C   UNL     1      -4.808 -11.151  15.493  0.00  0.00    +0.060 C 
ATOM     14  C   UNL     1      -4.929 -10.139  16.640  0.00  0.00    +0.038 C 
ATOM     15  C   UNL     1      -5.373 -12.513  15.918  0.00  0.00    +0.038 C 
ATOM     16  C   UNL     1      -6.370 -10.049  17.138  0.00  0.00    +0.109 C 
ATOM     17  C   UNL     1      -6.806 -12.376  16.432  0.00  0.00    +0.109 C 
ATOM     19  C   UNL     1      -7.424 -11.584  18.768  0.00  0.00    +0.212 C 
ATOM     21  C   UNL     1      -7.928 -12.973  19.064  0.00  0.00    +0.109 C 
ENDBRANCH   5   9
BRANCH  10  18
ATOM      2  O   UNL     1      -3.033 -12.235  12.429  0.00  0.00    -0.336 OA
ATOM      7  N   UNL     1      -3.838 -10.323  11.588  0.00  0.00    -0.190 NA
ATOM      8  N   UNL     1      -3.398 -12.515  11.106  0.00  0.00    -0.056 NA
ATOM     18  C   UNL     1      -3.326 -10.925  12.632  0.00  0.00    +0.245 A 
ATOM     20  C   UNL     1      -3.863 -11.338  10.677  0.00  0.00    +0.202 A 
BRANCH  20  22
ATOM     22  C   UNL     1      -4.361 -11.144   9.346  0.00  0.00    +0.023 A 
ATOM     23  C   UNL     1      -4.304 -12.187   8.421  0.00  0.00    +0.015 A 
ATOM     24  C   UNL     1      -4.902  -9.913   8.976  0.00  0.00    +0.015 A 
ATOM     25  C   UNL     1      -4.786 -11.997   7.126  0.00  0.00    +0.046 A 
ATOM     26  C   UNL     1      -5.384  -9.723   7.681  0.00  0.00    +0.046 A 
ATOM     27  C   UNL     1      -5.327 -10.766   6.756  0.00  0.00    +0.120 A 
BRANCH  27   4
ATOM      4  O   UNL     1      -5.799 -10.581   5.493  0.00  0.00    -0.495 OA
ATOM     28  C   UNL     1      -6.699  -9.492   5.289  0.00  0.00    +0.277 C 
ENDBRANCH  27   4
ENDBRANCH  20  22
ENDBRANCH  10  18
BRANCH  13   1
ATOM      1  O   UNL     1      -0.214 -10.198  16.262  0.00  0.00    -0.390 OA
ATOM     29  H   UNL     1       0.285 -10.856  16.776  0.00  0.00    +0.210 HD
ENDBRANCH  13   1
TORSDOF 5
ENDMDL
MODEL 7
REMARK VINA RESULT:      -6.6      2.292      3.057
REMARK  Name = 26744132
REMARK  7 active torsions:
REMARK  status: ('A' for Active; 'I' for Inactive)
REMARK    1  A    between atoms: O_1  and  C_13
REMARK    2  A    between atoms: O_4  and  C_27
REMARK    3  A    between atoms: O_4  and  C_28
REMARK    4  A    between atoms: N_5  and  C_9
REMARK    5  A    between atoms: C_10  and  C_18
REMARK    6  A    between atoms: C_19  and  C_21
REMARK    7  A    between atoms: C_20  and  C_22
REMARK                            x       y       z     vdW  Elec       q    Type
REMARK                         _______ _______ _______ _____ _____    ______ ____
ROOT
ATOM      5  N   UNL     1      14.269   8.413  18.949  0.00  0.00    -0.286 NA
ATOM     10  C   UNL     1      14.781   7.787  20.186  0.00  0.00    +0.149 C 
ATOM     11  C   UNL     1      12.812   8.428  19.067  0.00  0.00    +0.116 C 
ATOM     12  C   UNL     1      13.652   6.850  20.651  0.00  0.00    +0.061 C 
ATOM     13  C   UNL     1      12.531   7.052  19.639  0.00  0.00    +0.130 C 
ENDROOT
BRANCH   5   9
ATOM      3  O   UNL     1      14.194  14.409  20.306  0.00  0.00    -0.276 OA
ATOM      6  N   UNL     1      14.571  12.627  18.864  0.00  0.00    -0.302 N 
ATOM      9  C   UNL     1      14.815   9.746  18.710  0.00  0.00    +0.060 C 
ATOM     14  C   UNL     1      14.972  10.497  20.038  0.00  0.00    +0.038 C 
ATOM     15  C   UNL     1      13.898  10.527  17.758  0.00  0.00    +0.038 C 
ATOM     16  C   UNL     1      15.452  11.928  19.802  0.00  0.00    +0.109 C 
ATOM     17  C   UNL     1      14.399  11.960  17.567  0.00  0.00    +0.109 C 
ATOM     19  C   UNL     1      14.004  13.850  19.222  0.00  0.00    +0.212 C 
ATOM     21  C   UNL     1      13.109  14.505  18.202  0.00  0.00    +0.109 C 
ENDBRANCH   5   9
BRANCH  10  18
ATOM      2  O   UNL     1      16.133   6.172  18.946  0.00  0.00    -0.336 OA
ATOM      7  N   UNL     1      17.217   7.163  20.637  0.00  0.00    -0.190 NA
ATOM      8  N   UNL     1      17.427   5.637  18.946  0.00  0.00    -0.056 NA
ATOM     18  C   UNL     1      16.093   7.062  19.971  0.00  0.00    +0.245 A 
ATOM     20  C   UNL     1      18.005   6.270  19.972  0.00  0.00    +0.202 A 
BRANCH  20  22
ATOM     22  C   UNL     1      19.366   6.035  20.356  0.00  0.00    +0.023 A 
ATOM     23  C   UNL     1      19.899   4.748  20.283  0.00  0.00    +0.015 A 
ATOM     24  C   UNL     1      20.158   7.093  20.802  0.00  0.00    +0.015 A 
ATOM     25  C   UNL     1      21.223   4.519  20.659  0.00  0.00    +0.046 A 
ATOM     26  C   UNL     1      21.481   6.865  21.178  0.00  0.00    +0.046 A 
ATOM     27  C   UNL     1      22.014   5.578  21.106  0.00  0.00    +0.120 A 
BRANCH  27   4
ATOM      4  O   UNL     1      23.306   5.355  21.471  0.00  0.00    -0.495 OA
ATOM     28  C   UNL     1      24.228   6.429  21.286  0.00  0.00    +0.277 C 
ENDBRANCH  27   4
ENDBRANCH  20  22
ENDBRANCH  10  18
BRANCH  13   1
ATOM      1  O   UNL     1      11.267   6.994  20.273  0.00  0.00    -0.390 OA
ATOM     29  H   UNL     1      11.384   7.308  21.186  0.00  0.00    +0.210 HD
ENDBRANCH  13   1
TORSDOF 5
ENDMDL
MODEL 8
REMARK VINA RESULT:      -6.6     27.059     30.430
REMARK  Name = 26744132
REMARK  7 active torsions:
REMARK  status: ('A' for Active; 'I' for Inactive)
REMARK    1  A    between atoms: O_1  and  C_13
REMARK    2  A    between atoms: O_4  and  C_27
REMARK    3  A    between atoms: O_4  and  C_28
REMARK    4  A    between atoms: N_5  and  C_9
REMARK    5  A    between atoms: C_10  and  C_18
REMARK    6  A    between atoms: C_19  and  C_21
REMARK    7  A    between atoms: C_20  and  C_22
REMARK                            x       y       z     vdW  Elec       q    Type
REMARK                         _______ _______ _______ _____ _____    ______ ____
ROOT
ATOM      5  N   UNL     1      -6.361 -10.765  17.440  0.00  0.00    -0.286 NA
ATOM     10  C   UNL     1      -7.646 -11.369  17.846  0.00  0.00    +0.149 C 
ATOM     11  C   UNL     1      -5.433 -10.984  18.548  0.00  0.00    +0.116 C 
ATOM     12  C   UNL     1      -7.649 -11.295  19.384  0.00  0.00    +0.061 C 
ATOM     13  C   UNL     1      -6.305 -10.677  19.750  0.00  0.00    +0.130 C 
ENDROOT
BRANCH   5   9
ATOM      3  O   UNL     1      -1.501 -12.497  14.095  0.00  0.00    -0.276 OA
ATOM      6  N   UNL     1      -3.664 -11.679  14.317  0.00  0.00    -0.302 N 
ATOM      9  C   UNL     1      -5.847 -11.297  16.180  0.00  0.00    +0.060 C 
ATOM     14  C   UNL     1      -4.723 -12.305  16.453  0.00  0.00    +0.038 C 
ATOM     15  C   UNL     1      -5.336 -10.152  15.294  0.00  0.00    +0.038 C 
ATOM     16  C   UNL     1      -4.107 -12.802  15.147  0.00  0.00    +0.109 C 
ATOM     17  C   UNL     1      -4.706 -10.692  14.010  0.00  0.00    +0.109 C 
ATOM     19  C   UNL     1      -2.349 -11.634  13.853  0.00  0.00    +0.212 C 
ATOM     21  C   UNL     1      -1.971 -10.446  13.007  0.00  0.00    +0.109 C 
ENDBRANCH   5   9
BRANCH  10  18
ATOM      2  O   UNL     1      -9.968 -11.416  17.085  0.00  0.00    -0.336 OA
ATOM      7  N   UNL     1      -8.950  -9.444  16.790  0.00  0.00    -0.190 NA
ATOM      8  N   UNL     1     -10.918 -10.572  16.497  0.00  0.00    -0.056 NA
ATOM     18  C   UNL     1      -8.839 -10.674  17.224  0.00  0.00    +0.245 A 
ATOM     20  C   UNL     1     -10.243  -9.428  16.354  0.00  0.00    +0.202 A 
BRANCH  20  22
ATOM     22  C   UNL     1     -10.830  -8.252  15.780  0.00  0.00    +0.023 A 
ATOM     23  C   UNL     1     -10.800  -7.045  16.479  0.00  0.00    +0.015 A 
ATOM     24  C   UNL     1     -11.432  -8.314  14.524  0.00  0.00    +0.015 A 
ATOM     25  C   UNL     1     -11.373  -5.902  15.923  0.00  0.00    +0.046 A 
ATOM     26  C   UNL     1     -12.005  -7.172  13.966  0.00  0.00    +0.046 A 
ATOM     27  C   UNL     1     -11.975  -5.965  14.665  0.00  0.00    +0.120 A 
BRANCH  27   4
ATOM      4  O   UNL     1     -12.533  -4.849  14.121  0.00  0.00    -0.495 OA
ATOM     28  C   UNL     1     -12.581  -4.776  12.697  0.00  0.00    +0.277 C 
ENDBRANCH  27   4
ENDBRANCH  20  22
ENDBRANCH  10  18
BRANCH  13   1
ATOM      1  O   UNL     1      -5.791 -11.258  20.934  0.00  0.00    -0.390 OA
ATOM     29  H   UNL     1      -4.997 -11.762  20.690  0.00  0.00    +0.210 HD
ENDBRANCH  13   1
TORSDOF 5
ENDMDL
MODEL 9
REMARK VINA RESULT:      -6.6     26.165     29.595
REMARK  Name = 26744132
REMARK  7 active torsions:
REMARK  status: ('A' for Active; 'I' for Inactive)
REMARK    1  A    between atoms: O_1  and  C_13
REMARK    2  A    between atoms: O_4  and  C_27
REMARK    3  A    between atoms: O_4  and  C_28
REMARK    4  A    between atoms: N_5  and  C_9
REMARK    5  A    between atoms: C_10  and  C_18
REMARK    6  A    between atoms: C_19  and  C_21
REMARK    7  A    between atoms: C_20  and  C_22
REMARK                            x       y       z     vdW  Elec       q    Type
REMARK                         _______ _______ _______ _____ _____    ______ ____
ROOT
ATOM      5  N   UNL     1      -3.306 -10.499  14.390  0.00  0.00    -0.286 NA
ATOM     10  C   UNL     1      -3.469 -11.313  15.612  0.00  0.00    +0.149 C 
ATOM     11  C   UNL     1      -1.867 -10.333  14.193  0.00  0.00    +0.116 C 
ATOM     12  C   UNL     1      -2.217 -11.012  16.456  0.00  0.00    +0.061 C 
ATOM     13  C   UNL     1      -1.389 -10.056  15.605  0.00  0.00    +0.130 C 
ENDROOT
BRANCH   5   9
ATOM      3  O   UNL     1      -4.352 -10.263   8.336  0.00  0.00    -0.276 OA
ATOM      6  N   UNL     1      -4.943 -10.835  10.508  0.00  0.00    -0.302 N 
ATOM      9  C   UNL     1      -3.957 -11.082  13.219  0.00  0.00    +0.060 C 
ATOM     14  C   UNL     1      -3.005 -11.049  12.016  0.00  0.00    +0.038 C 
ATOM     15  C   UNL     1      -5.250 -10.318  12.900  0.00  0.00    +0.038 C 
ATOM     16  C   UNL     1      -3.699 -11.566  10.757  0.00  0.00    +0.109 C 
ATOM     17  C   UNL     1      -5.899 -10.849  11.622  0.00  0.00    +0.109 C 
ATOM     19  C   UNL     1      -5.157 -10.229   9.270  0.00  0.00    +0.212 C 
ATOM     21  C   UNL     1      -6.461  -9.495   9.093  0.00  0.00    +0.109 C 
ENDBRANCH   5   9
BRANCH  10  18
ATOM      2  O   UNL     1      -5.253  -9.752  16.206  0.00  0.00    -0.336 OA
ATOM      7  N   UNL     1      -5.480 -11.786  17.114  0.00  0.00    -0.190 NA
ATOM      8  N   UNL     1      -6.430  -9.711  16.965  0.00  0.00    -0.056 NA
ATOM     18  C   UNL     1      -4.757 -11.009  16.347  0.00  0.00    +0.245 A 
ATOM     20  C   UNL     1      -6.494 -10.947  17.470  0.00  0.00    +0.202 A 
BRANCH  20  22
ATOM     22  C   UNL     1      -7.559 -11.374  18.330  0.00  0.00    +0.023 A 
ATOM     23  C   UNL     1      -7.480 -12.605  18.980  0.00  0.00    +0.015 A 
ATOM     24  C   UNL     1      -8.675 -10.559  18.516  0.00  0.00    +0.015 A 
ATOM     25  C   UNL     1      -8.516 -13.022  19.815  0.00  0.00    +0.046 A 
ATOM     26  C   UNL     1      -9.712 -10.974  19.351  0.00  0.00    +0.046 A 
ATOM     27  C   UNL     1      -9.633 -12.206  20.001  0.00  0.00    +0.120 A 
BRANCH  27   4
ATOM      4  O   UNL     1     -10.645 -12.611  20.816  0.00  0.00    -0.495 OA
ATOM     28  C   UNL     1     -11.977 -12.357  20.373  0.00  0.00    +0.277 C 
ENDBRANCH  27   4
ENDBRANCH  20  22
ENDBRANCH  10  18
BRANCH  13   1
ATOM      1  O   UNL     1      -0.007 -10.322  15.753  0.00  0.00    -0.390 OA
ATOM     29  H   UNL     1       0.210 -11.072  15.174  0.00  0.00    +0.210 HD
ENDBRANCH  13   1
TORSDOF 5
ENDMDL
MODEL 10
REMARK VINA RESULT:      -6.5     31.463     33.488
REMARK  Name = 26744132
REMARK  7 active torsions:
REMARK  status: ('A' for Active; 'I' for Inactive)
REMARK    1  A    between atoms: O_1  and  C_13
REMARK    2  A    between atoms: O_4  and  C_27
REMARK    3  A    between atoms: O_4  and  C_28
REMARK    4  A    between atoms: N_5  and  C_9
REMARK    5  A    between atoms: C_10  and  C_18
REMARK    6  A    between atoms: C_19  and  C_21
REMARK    7  A    between atoms: C_20  and  C_22
REMARK                            x       y       z     vdW  Elec       q    Type
REMARK                         _______ _______ _______ _____ _____    ______ ____
ROOT
ATOM      5  N   UNL     1       2.838 -14.307  -0.945  0.00  0.00    -0.286 NA
ATOM     10  C   UNL     1       2.207 -15.266  -0.015  0.00  0.00    +0.149 C 
ATOM     11  C   UNL     1       4.273 -14.584  -0.913  0.00  0.00    +0.116 C 
ATOM     12  C   UNL     1       3.296 -15.583   1.025  0.00  0.00    +0.061 C 
ATOM     13  C   UNL     1       4.517 -14.792   0.570  0.00  0.00    +0.130 C 
ENDROOT
BRANCH   5   9
ATOM      3  O   UNL     1       3.750 -13.574  -6.981  0.00  0.00    -0.276 OA
ATOM      6  N   UNL     1       2.400 -13.615  -5.091  0.00  0.00    -0.302 N 
ATOM      9  C   UNL     1       2.295 -14.377  -2.300  0.00  0.00    +0.060 C 
ATOM     14  C   UNL     1       3.341 -14.966  -3.256  0.00  0.00    +0.038 C 
ATOM     15  C   UNL     1       1.868 -12.979  -2.768  0.00  0.00    +0.038 C 
ATOM     16  C   UNL     1       2.829 -14.958  -4.695  0.00  0.00    +0.109 C 
ATOM     17  C   UNL     1       1.386 -13.010  -4.219  0.00  0.00    +0.109 C 
ATOM     19  C   UNL     1       2.925 -13.030  -6.243  0.00  0.00    +0.212 C 
ATOM     21  C   UNL     1       2.435 -11.645  -6.581  0.00  0.00    +0.109 C 
ENDBRANCH   5   9
BRANCH  10  18
ATOM      2  O   UNL     1      -0.029 -14.306  -0.245  0.00  0.00    -0.336 OA
ATOM      7  N   UNL     1       0.630 -14.589   1.877  0.00  0.00    -0.190 NA
ATOM      8  N   UNL     1      -1.086 -13.853   0.555  0.00  0.00    -0.056 NA
ATOM     18  C   UNL     1       0.940 -14.723   0.611  0.00  0.00    +0.245 A 
ATOM     20  C   UNL     1      -0.621 -14.052   1.792  0.00  0.00    +0.202 A 
BRANCH  20  22
ATOM     22  C   UNL     1      -1.382 -13.726   2.964  0.00  0.00    +0.023 A 
ATOM     23  C   UNL     1      -1.025 -14.265   4.199  0.00  0.00    +0.015 A 
ATOM     24  C   UNL     1      -2.480 -12.871   2.867  0.00  0.00    +0.015 A 
ATOM     25  C   UNL     1      -1.766 -13.950   5.338  0.00  0.00    +0.046 A 
ATOM     26  C   UNL     1      -3.221 -12.556   4.005  0.00  0.00    +0.046 A 
ATOM     27  C   UNL     1      -2.864 -13.095   5.241  0.00  0.00    +0.120 A 
BRANCH  27   4
ATOM      4  O   UNL     1      -3.587 -12.786   6.352  0.00  0.00    -0.495 OA
ATOM     28  C   UNL     1      -4.546 -11.736   6.232  0.00  0.00    +0.277 C 
ENDBRANCH  27   4
ENDBRANCH  20  22
ENDBRANCH  10  18
BRANCH  13   1
ATOM      1  O   UNL     1       5.705 -15.522   0.809  0.00  0.00    -0.390 OA
ATOM     29  H   UNL     1       6.358 -14.903   1.178  0.00  0.00    +0.210 HD
ENDBRANCH  13   1
TORSDOF 5
ENDMDL
