MODEL 1
REMARK VINA RESULT:      -6.3      0.000      0.000
REMARK  Name = 56774421
REMARK  3 active torsions:
REMARK  status: ('A' for Active; 'I' for Inactive)
REMARK    1  A    between atoms: N_3  and  C_13
REMARK    2  A    between atoms: C_5  and  C_9
REMARK    3  A    between atoms: C_10  and  C_15
REMARK                            x       y       z     vdW  Elec       q    Type
REMARK                         _______ _______ _______ _____ _____    ______ ____
ROOT
ATOM      3  N   UNL     1      13.448   7.738  19.197  0.00  0.00    -0.330 N 
ATOM      4  N   UNL     1      13.914   8.541  21.217  0.00  0.00    -0.232 NA
ATOM      9  C   UNL     1      13.010   8.469  20.265  0.00  0.00    +0.115 A 
ATOM     11  C   UNL     1      14.721   7.309  19.477  0.00  0.00    +0.069 A 
ATOM     12  C   UNL     1      14.988   7.823  20.743  0.00  0.00    +0.089 A 
ATOM     13  C   UNL     1      12.708   7.463  17.986  0.00  0.00    +0.150 C 
ATOM     14  C   UNL     1      15.632   6.539  18.755  0.00  0.00    +0.028 A 
ATOM     16  C   UNL     1      16.234   7.563  21.339  0.00  0.00    +0.030 A 
ATOM     17  C   UNL     1      16.868   6.290  19.362  0.00  0.00    +0.002 A 
ATOM     18  C   UNL     1      17.165   6.792  20.631  0.00  0.00    +0.002 A 
ENDROOT
BRANCH   9   5
ATOM      1  O   UNL     1      10.903  10.815  24.572  0.00  0.00    -0.276 OA
ATOM      2  N   UNL     1      11.182  10.205  22.361  0.00  0.00    -0.301 N 
ATOM      5  C   UNL     1      11.630   9.105  20.299  0.00  0.00    +0.074 C 
ATOM      6  C   UNL     1      10.643   8.268  21.129  0.00  0.00    +0.032 C 
ATOM      7  C   UNL     1      11.526  10.482  20.967  0.00  0.00    +0.119 C 
ATOM      8  C   UNL     1      10.799   8.814  22.542  0.00  0.00    +0.108 C 
ATOM     10  C   UNL     1      11.202  11.104  23.411  0.00  0.00    +0.212 C 
ATOM     15  C   UNL     1      11.630  12.506  23.061  0.00  0.00    +0.109 C 
ENDBRANCH   9   5
TORSDOF 1
ENDMDL
MODEL 2
REMARK VINA RESULT:      -6.1      2.355      3.752
REMARK  Name = 56774421
REMARK  3 active torsions:
REMARK  status: ('A' for Active; 'I' for Inactive)
REMARK    1  A    between atoms: N_3  and  C_13
REMARK    2  A    between atoms: C_5  and  C_9
REMARK    3  A    between atoms: C_10  and  C_15
REMARK                            x       y       z     vdW  Elec       q    Type
REMARK                         _______ _______ _______ _____ _____    ______ ____
ROOT
ATOM      3  N   UNL     1      16.381   8.873  20.566  0.00  0.00    -0.330 N 
ATOM      4  N   UNL     1      16.089   7.009  19.389  0.00  0.00    -0.232 NA
ATOM      9  C   UNL     1      15.568   8.170  19.721  0.00  0.00    +0.115 A 
ATOM     11  C   UNL     1      17.501   8.115  20.796  0.00  0.00    +0.069 A 
ATOM     12  C   UNL     1      17.294   6.958  20.050  0.00  0.00    +0.089 A 
ATOM     13  C   UNL     1      16.112  10.180  21.122  0.00  0.00    +0.150 C 
ATOM     14  C   UNL     1      18.642   8.336  21.567  0.00  0.00    +0.028 A 
ATOM     16  C   UNL     1      18.275   5.951  20.064  0.00  0.00    +0.030 A 
ATOM     17  C   UNL     1      19.607   7.324  21.569  0.00  0.00    +0.002 A 
ATOM     18  C   UNL     1      19.429   6.152  20.831  0.00  0.00    +0.002 A 
ENDROOT
BRANCH   9   5
ATOM      1  O   UNL     1      10.846   6.209  21.253  0.00  0.00    -0.276 OA
ATOM      2  N   UNL     1      12.388   7.668  20.340  0.00  0.00    -0.301 N 
ATOM      5  C   UNL     1      14.228   8.711  19.250  0.00  0.00    +0.074 C 
ATOM      6  C   UNL     1      13.535   7.740  18.282  0.00  0.00    +0.032 C 
ATOM      7  C   UNL     1      13.154   8.913  20.328  0.00  0.00    +0.119 C 
ATOM      8  C   UNL     1      12.716   6.836  19.192  0.00  0.00    +0.108 C 
ATOM     10  C   UNL     1      11.464   7.275  21.291  0.00  0.00    +0.212 C 
ATOM     15  C   UNL     1      11.243   8.245  22.424  0.00  0.00    +0.109 C 
ENDBRANCH   9   5
TORSDOF 1
ENDMDL
MODEL 3
REMARK VINA RESULT:      -5.8     25.823     27.493
REMARK  Name = 56774421
REMARK  3 active torsions:
REMARK  status: ('A' for Active; 'I' for Inactive)
REMARK    1  A    between atoms: N_3  and  C_13
REMARK    2  A    between atoms: C_5  and  C_9
REMARK    3  A    between atoms: C_10  and  C_15
REMARK                            x       y       z     vdW  Elec       q    Type
REMARK                         _______ _______ _______ _____ _____    ______ ____
ROOT
ATOM      3  N   UNL     1      -2.873 -10.820  15.213  0.00  0.00    -0.330 N 
ATOM      4  N   UNL     1      -4.565 -10.442  13.821  0.00  0.00    -0.232 NA
ATOM      9  C   UNL     1      -3.277 -10.689  13.913  0.00  0.00    +0.115 A 
ATOM     11  C   UNL     1      -3.974 -10.644  16.013  0.00  0.00    +0.069 A 
ATOM     12  C   UNL     1      -5.016 -10.411  15.120  0.00  0.00    +0.089 A 
ATOM     13  C   UNL     1      -1.529 -11.093  15.668  0.00  0.00    +0.150 C 
ATOM     14  C   UNL     1      -4.141 -10.670  17.397  0.00  0.00    +0.028 A 
ATOM     16  C   UNL     1      -6.310 -10.187  15.622  0.00  0.00    +0.030 A 
ATOM     17  C   UNL     1      -5.435 -10.446  17.880  0.00  0.00    +0.002 A 
ATOM     18  C   UNL     1      -6.501 -10.208  17.009  0.00  0.00    +0.002 A 
ENDROOT
BRANCH   9   5
ATOM      1  O   UNL     1      -4.787 -11.199   8.820  0.00  0.00    -0.276 OA
ATOM      2  N   UNL     1      -3.416 -10.825  10.641  0.00  0.00    -0.301 N 
ATOM      5  C   UNL     1      -2.310 -10.823  12.749  0.00  0.00    +0.074 C 
ATOM      6  C   UNL     1      -2.319 -12.247  12.169  0.00  0.00    +0.032 C 
ATOM      7  C   UNL     1      -2.609  -9.969  11.509  0.00  0.00    +0.119 C 
ATOM      8  C   UNL     1      -3.408 -12.204  11.106  0.00  0.00    +0.108 C 
ATOM     10  C   UNL     1      -4.118 -10.434   9.516  0.00  0.00    +0.212 C 
ATOM     15  C   UNL     1      -4.032  -8.968   9.172  0.00  0.00    +0.109 C 
ENDBRANCH   9   5
TORSDOF 1
ENDMDL
MODEL 4
REMARK VINA RESULT:      -5.5     26.351     27.431
REMARK  Name = 56774421
REMARK  3 active torsions:
REMARK  status: ('A' for Active; 'I' for Inactive)
REMARK    1  A    between atoms: N_3  and  C_13
REMARK    2  A    between atoms: C_5  and  C_9
REMARK    3  A    between atoms: C_10  and  C_15
REMARK                            x       y       z     vdW  Elec       q    Type
REMARK                         _______ _______ _______ _____ _____    ______ ____
ROOT
ATOM      3  N   UNL     1      -3.148 -10.834  12.570  0.00  0.00    -0.330 N 
ATOM      4  N   UNL     1      -5.168 -10.289  13.321  0.00  0.00    -0.232 NA
ATOM      9  C   UNL     1      -4.061 -10.949  13.581  0.00  0.00    +0.115 A 
ATOM     11  C   UNL     1      -3.702 -10.047  11.592  0.00  0.00    +0.069 A 
ATOM     12  C   UNL     1      -4.963  -9.720  12.086  0.00  0.00    +0.089 A 
ATOM     13  C   UNL     1      -1.832 -11.431  12.532  0.00  0.00    +0.150 C 
ATOM     14  C   UNL     1      -3.225  -9.607  10.358  0.00  0.00    +0.028 A 
ATOM     16  C   UNL     1      -5.810  -8.906  11.314  0.00  0.00    +0.030 A 
ATOM     17  C   UNL     1      -4.081  -8.797   9.603  0.00  0.00    +0.002 A 
ATOM     18  C   UNL     1      -5.351  -8.453  10.072  0.00  0.00    +0.002 A 
ENDROOT
BRANCH   9   5
ATOM      1  O   UNL     1      -6.641 -10.285  18.205  0.00  0.00    -0.276 OA
ATOM      2  N   UNL     1      -5.299 -11.264  16.599  0.00  0.00    -0.301 N 
ATOM      5  C   UNL     1      -3.779 -11.758  14.836  0.00  0.00    +0.074 C 
ATOM      6  C   UNL     1      -3.073 -10.912  15.907  0.00  0.00    +0.032 C 
ATOM      7  C   UNL     1      -5.001 -12.287  15.598  0.00  0.00    +0.119 C 
ATOM      8  C   UNL     1      -4.217 -10.297  16.702  0.00  0.00    +0.108 C 
ATOM     10  C   UNL     1      -6.440 -11.173  17.375  0.00  0.00    +0.212 C 
ATOM     15  C   UNL     1      -7.472 -12.248  17.143  0.00  0.00    +0.109 C 
ENDBRANCH   9   5
TORSDOF 1
ENDMDL
MODEL 5
REMARK VINA RESULT:      -5.5     14.751     17.716
REMARK  Name = 56774421
REMARK  3 active torsions:
REMARK  status: ('A' for Active; 'I' for Inactive)
REMARK    1  A    between atoms: N_3  and  C_13
REMARK    2  A    between atoms: C_5  and  C_9
REMARK    3  A    between atoms: C_10  and  C_15
REMARK                            x       y       z     vdW  Elec       q    Type
REMARK                         _______ _______ _______ _____ _____    ______ ____
ROOT
ATOM      3  N   UNL     1       9.370   6.896   5.315  0.00  0.00    -0.330 N 
ATOM      4  N   UNL     1      10.279   4.873   5.164  0.00  0.00    -0.232 NA
ATOM      9  C   UNL     1       9.939   5.956   4.501  0.00  0.00    +0.115 A 
ATOM     11  C   UNL     1       9.340   6.385   6.588  0.00  0.00    +0.069 A 
ATOM     12  C   UNL     1       9.913   5.122   6.466  0.00  0.00    +0.089 A 
ATOM     13  C   UNL     1       8.884   8.196   4.912  0.00  0.00    +0.150 C 
ATOM     14  C   UNL     1       8.876   6.902   7.797  0.00  0.00    +0.028 A 
ATOM     16  C   UNL     1      10.038   4.314   7.610  0.00  0.00    +0.030 A 
ATOM     17  C   UNL     1       9.008   6.085   8.925  0.00  0.00    +0.002 A 
ATOM     18  C   UNL     1       9.579   4.814   8.834  0.00  0.00    +0.002 A 
ENDROOT
BRANCH   9   5
ATOM      1  O   UNL     1      14.438   4.828   1.862  0.00  0.00    -0.276 OA
ATOM      2  N   UNL     1      12.219   5.357   2.223  0.00  0.00    -0.301 N 
ATOM      5  C   UNL     1      10.133   6.187   3.012  0.00  0.00    +0.074 C 
ATOM      6  C   UNL     1      11.089   7.360   2.742  0.00  0.00    +0.032 C 
ATOM      7  C   UNL     1      10.789   5.048   2.222  0.00  0.00    +0.119 C 
ATOM      8  C   UNL     1      12.465   6.709   2.700  0.00  0.00    +0.108 C 
ATOM     10  C   UNL     1      13.247   4.515   1.838  0.00  0.00    +0.212 C 
ATOM     15  C   UNL     1      12.827   3.143   1.378  0.00  0.00    +0.109 C 
ENDBRANCH   9   5
TORSDOF 1
ENDMDL
MODEL 6
REMARK VINA RESULT:      -5.3      2.889      5.811
REMARK  Name = 56774421
REMARK  3 active torsions:
REMARK  status: ('A' for Active; 'I' for Inactive)
REMARK    1  A    between atoms: N_3  and  C_13
REMARK    2  A    between atoms: C_5  and  C_9
REMARK    3  A    between atoms: C_10  and  C_15
REMARK                            x       y       z     vdW  Elec       q    Type
REMARK                         _______ _______ _______ _____ _____    ______ ____
ROOT
ATOM      3  N   UNL     1      14.156   9.964  21.531  0.00  0.00    -0.330 N 
ATOM      4  N   UNL     1      12.244   8.987  20.955  0.00  0.00    -0.232 NA
ATOM      9  C   UNL     1      13.527   9.091  20.688  0.00  0.00    +0.115 A 
ATOM     11  C   UNL     1      13.216  10.457  22.400  0.00  0.00    +0.069 A 
ATOM     12  C   UNL     1      12.032   9.832  22.020  0.00  0.00    +0.089 A 
ATOM     13  C   UNL     1      15.559  10.310  21.514  0.00  0.00    +0.150 C 
ATOM     14  C   UNL     1      13.298  11.367  23.454  0.00  0.00    +0.028 A 
ATOM     16  C   UNL     1      10.849  10.121  22.722  0.00  0.00    +0.030 A 
ATOM     17  C   UNL     1      12.111  11.644  24.142  0.00  0.00    +0.002 A 
ATOM     18  C   UNL     1      10.908  11.032  23.783  0.00  0.00    +0.002 A 
ENDROOT
BRANCH   9   5
ATOM      1  O   UNL     1      11.897   8.868  15.611  0.00  0.00    -0.276 OA
ATOM      2  N   UNL     1      13.291   8.685  17.444  0.00  0.00    -0.301 N 
ATOM      5  C   UNL     1      14.270   8.352  19.587  0.00  0.00    +0.074 C 
ATOM      6  C   UNL     1      13.523   7.081  19.156  0.00  0.00    +0.032 C 
ATOM      7  C   UNL     1      14.436   9.096  18.255  0.00  0.00    +0.119 C 
ATOM      8  C   UNL     1      12.595   7.559  18.047  0.00  0.00    +0.108 C 
ATOM     10  C   UNL     1      12.874   9.255  16.255  0.00  0.00    +0.212 C 
ATOM     15  C   UNL     1      13.696  10.420  15.767  0.00  0.00    +0.109 C 
ENDBRANCH   9   5
TORSDOF 1
ENDMDL
MODEL 7
REMARK VINA RESULT:      -5.3     25.872     27.791
REMARK  Name = 56774421
REMARK  3 active torsions:
REMARK  status: ('A' for Active; 'I' for Inactive)
REMARK    1  A    between atoms: N_3  and  C_13
REMARK    2  A    between atoms: C_5  and  C_9
REMARK    3  A    between atoms: C_10  and  C_15
REMARK                            x       y       z     vdW  Elec       q    Type
REMARK                         _______ _______ _______ _____ _____    ______ ____
ROOT
ATOM      3  N   UNL     1      -5.458 -10.426  15.910  0.00  0.00    -0.330 N 
ATOM      4  N   UNL     1      -3.616 -11.257  16.837  0.00  0.00    -0.232 NA
ATOM      9  C   UNL     1      -4.155 -10.798  15.729  0.00  0.00    +0.115 A 
ATOM     11  C   UNL     1      -5.782 -10.660  17.222  0.00  0.00    +0.069 A 
ATOM     12  C   UNL     1      -4.616 -11.178  17.779  0.00  0.00    +0.089 A 
ATOM     13  C   UNL     1      -6.341  -9.882  14.903  0.00  0.00    +0.150 C 
ATOM     14  C   UNL     1      -6.958 -10.468  17.947  0.00  0.00    +0.028 A 
ATOM     16  C   UNL     1      -4.605 -11.531  19.140  0.00  0.00    +0.030 A 
ATOM     17  C   UNL     1      -6.930 -10.825  19.300  0.00  0.00    +0.002 A 
ATOM     18  C   UNL     1      -5.775 -11.348  19.887  0.00  0.00    +0.002 A 
ENDROOT
BRANCH   9   5
ATOM      1  O   UNL     1      -1.087 -14.609  13.597  0.00  0.00    -0.276 OA
ATOM      2  N   UNL     1      -2.362 -12.687  13.739  0.00  0.00    -0.301 N 
ATOM      5  C   UNL     1      -3.458 -10.676  14.384  0.00  0.00    +0.074 C 
ATOM      6  C   UNL     1      -1.939 -10.513  14.548  0.00  0.00    +0.032 C 
ATOM      7  C   UNL     1      -3.553 -11.891  13.451  0.00  0.00    +0.119 C 
ATOM      8  C   UNL     1      -1.415 -11.943  14.557  0.00  0.00    +0.108 C 
ATOM     10  C   UNL     1      -2.111 -13.982  13.322  0.00  0.00    +0.212 C 
ATOM     15  C   UNL     1      -3.195 -14.618  12.489  0.00  0.00    +0.109 C 
ENDBRANCH   9   5
TORSDOF 1
ENDMDL
MODEL 8
REMARK VINA RESULT:      -5.2     12.192     14.124
REMARK  Name = 56774421
REMARK  3 active torsions:
REMARK  status: ('A' for Active; 'I' for Inactive)
REMARK    1  A    between atoms: N_3  and  C_13
REMARK    2  A    between atoms: C_5  and  C_9
REMARK    3  A    between atoms: C_10  and  C_15
REMARK                            x       y       z     vdW  Elec       q    Type
REMARK                         _______ _______ _______ _____ _____    ______ ____
ROOT
ATOM      3  N   UNL     1      18.839  -3.899  25.500  0.00  0.00    -0.330 N 
ATOM      4  N   UNL     1      17.733  -2.196  26.403  0.00  0.00    -0.232 NA
ATOM      9  C   UNL     1      18.444  -3.274  26.649  0.00  0.00    +0.115 A 
ATOM     11  C   UNL     1      18.350  -3.178  24.441  0.00  0.00    +0.069 A 
ATOM     12  C   UNL     1      17.664  -2.119  25.031  0.00  0.00    +0.089 A 
ATOM     13  C   UNL     1      19.630  -5.106  25.410  0.00  0.00    +0.150 C 
ATOM     14  C   UNL     1      18.446  -3.353  23.061  0.00  0.00    +0.028 A 
ATOM     16  C   UNL     1      17.030  -1.171  24.210  0.00  0.00    +0.030 A 
ATOM     17  C   UNL     1      17.810  -2.400  22.258  0.00  0.00    +0.002 A 
ATOM     18  C   UNL     1      17.114  -1.328  22.821  0.00  0.00    +0.002 A 
ENDROOT
BRANCH   9   5
ATOM      1  O   UNL     1      18.323  -0.345  31.109  0.00  0.00    -0.276 OA
ATOM      2  N   UNL     1      18.422  -2.211  29.750  0.00  0.00    -0.301 N 
ATOM      5  C   UNL     1      18.811  -3.804  28.025  0.00  0.00    +0.074 C 
ATOM      6  C   UNL     1      20.151  -3.230  28.513  0.00  0.00    +0.032 C 
ATOM      7  C   UNL     1      17.865  -3.434  29.176  0.00  0.00    +0.119 C 
ATOM      8  C   UNL     1      19.759  -1.951  29.240  0.00  0.00    +0.108 C 
ATOM     10  C   UNL     1      17.806  -1.369  30.658  0.00  0.00    +0.212 C 
ATOM     15  C   UNL     1      16.417  -1.772  31.082  0.00  0.00    +0.109 C 
ENDBRANCH   9   5
TORSDOF 1
ENDMDL
MODEL 9
REMARK VINA RESULT:      -5.2     26.761     28.825
REMARK  Name = 56774421
REMARK  3 active torsions:
REMARK  status: ('A' for Active; 'I' for Inactive)
REMARK    1  A    between atoms: N_3  and  C_13
REMARK    2  A    between atoms: C_5  and  C_9
REMARK    3  A    between atoms: C_10  and  C_15
REMARK                            x       y       z     vdW  Elec       q    Type
REMARK                         _______ _______ _______ _____ _____    ______ ____
ROOT
ATOM      3  N   UNL     1      -7.896 -11.533  18.853  0.00  0.00    -0.330 N 
ATOM      4  N   UNL     1      -6.849 -10.224  17.393  0.00  0.00    -0.232 NA
ATOM      9  C   UNL     1      -6.742 -11.283  18.165  0.00  0.00    +0.115 A 
ATOM     11  C   UNL     1      -8.809 -10.572  18.503  0.00  0.00    +0.069 A 
ATOM     12  C   UNL     1      -8.131  -9.768  17.590  0.00  0.00    +0.089 A 
ATOM     13  C   UNL     1      -8.120 -12.615  19.785  0.00  0.00    +0.150 C 
ATOM     14  C   UNL     1     -10.129 -10.344  18.892  0.00  0.00    +0.028 A 
ATOM     16  C   UNL     1      -8.795  -8.666  17.023  0.00  0.00    +0.030 A 
ATOM     17  C   UNL     1     -10.774  -9.243  18.318  0.00  0.00    +0.002 A 
ATOM     18  C   UNL     1     -10.121  -8.418  17.400  0.00  0.00    +0.002 A 
ENDROOT
BRANCH   9   5
ATOM      1  O   UNL     1      -3.052 -11.906  14.360  0.00  0.00    -0.276 OA
ATOM      2  N   UNL     1      -4.039 -11.982  16.447  0.00  0.00    -0.301 N 
ATOM      5  C   UNL     1      -5.508 -12.157  18.312  0.00  0.00    +0.074 C 
ATOM      6  C   UNL     1      -5.609 -13.427  17.451  0.00  0.00    +0.032 C 
ATOM      7  C   UNL     1      -4.179 -11.552  17.838  0.00  0.00    +0.119 C 
ATOM      8  C   UNL     1      -5.011 -13.012  16.113  0.00  0.00    +0.108 C 
ATOM     10  C   UNL     1      -3.125 -11.509  15.524  0.00  0.00    +0.212 C 
ATOM     15  C   UNL     1      -2.191 -10.435  16.023  0.00  0.00    +0.109 C 
ENDBRANCH   9   5
TORSDOF 1
ENDMDL
MODEL 10
REMARK VINA RESULT:      -5.1     13.629     15.452
REMARK  Name = 56774421
REMARK  3 active torsions:
REMARK  status: ('A' for Active; 'I' for Inactive)
REMARK    1  A    between atoms: N_3  and  C_13
REMARK    2  A    between atoms: C_5  and  C_9
REMARK    3  A    between atoms: C_10  and  C_15
REMARK                            x       y       z     vdW  Elec       q    Type
REMARK                         _______ _______ _______ _____ _____    ______ ____
ROOT
ATOM      3  N   UNL     1      17.545  -5.056  23.720  0.00  0.00    -0.330 N 
ATOM      4  N   UNL     1      16.798  -4.209  25.635  0.00  0.00    -0.232 NA
ATOM      9  C   UNL     1      17.122  -5.310  24.995  0.00  0.00    +0.115 A 
ATOM     11  C   UNL     1      17.489  -3.699  23.524  0.00  0.00    +0.069 A 
ATOM     12  C   UNL     1      17.021  -3.194  24.734  0.00  0.00    +0.089 A 
ATOM     13  C   UNL     1      17.974  -6.036  22.749  0.00  0.00    +0.150 C 
ATOM     14  C   UNL     1      17.800  -2.896  22.427  0.00  0.00    +0.028 A 
ATOM     16  C   UNL     1      16.845  -1.806  24.874  0.00  0.00    +0.030 A 
ATOM     17  C   UNL     1      17.619  -1.518  22.583  0.00  0.00    +0.002 A 
ATOM     18  C   UNL     1      17.151  -0.981  23.784  0.00  0.00    +0.002 A 
ENDROOT
BRANCH   9   5
ATOM      1  O   UNL     1      16.771  -6.437  30.200  0.00  0.00    -0.276 OA
ATOM      2  N   UNL     1      16.704  -6.747  27.912  0.00  0.00    -0.301 N 
ATOM      5  C   UNL     1      17.053  -6.720  25.558  0.00  0.00    +0.074 C 
ATOM      6  C   UNL     1      18.358  -7.107  26.271  0.00  0.00    +0.032 C 
ATOM      7  C   UNL     1      16.003  -6.972  26.648  0.00  0.00    +0.119 C 
ATOM      8  C   UNL     1      18.141  -6.650  27.708  0.00  0.00    +0.108 C 
ATOM     10  C   UNL     1      16.131  -6.629  29.165  0.00  0.00    +0.212 C 
ATOM     15  C   UNL     1      14.628  -6.743  29.207  0.00  0.00    +0.109 C 
ENDBRANCH   9   5
TORSDOF 1
ENDMDL
