MODEL 1
REMARK VINA RESULT:      -6.6      0.000      0.000
REMARK  Name = 45783470
REMARK  9 active torsions:
REMARK  status: ('A' for Active; 'I' for Inactive)
REMARK    1  A    between atoms: O_2  and  C_27
REMARK    2  A    between atoms: O_2  and  C_28
REMARK    3  A    between atoms: N_3  and  C_12
REMARK    4  A    between atoms: N_7  and  C_25
REMARK    5  A    between atoms: N_7  and  C_26
REMARK    6  A    between atoms: C_8  and  C_13
REMARK    7  A    between atoms: C_12  and  C_14
REMARK    8  A    between atoms: C_17  and  C_20
REMARK    9  A    between atoms: C_26  and  C_27
REMARK                            x       y       z     vdW  Elec       q    Type
REMARK                         _______ _______ _______ _____ _____    ______ ____
ROOT
ATOM      1  O   UNL     1      15.018   8.829  19.794  0.00  0.00    -0.336 OA
ATOM      4  N   UNL     1      15.894   6.858  19.193  0.00  0.00    -0.190 NA
ATOM      5  N   UNL     1      16.216   8.703  20.507  0.00  0.00    -0.056 NA
ATOM     13  C   UNL     1      14.904   7.702  19.045  0.00  0.00    +0.245 A 
ATOM     17  C   UNL     1      16.674   7.515  20.099  0.00  0.00    +0.204 A 
ENDROOT
BRANCH  17  20
ATOM      6  N   UNL     1      19.734   7.039  22.158  0.00  0.00    -0.240 NA
ATOM     20  C   UNL     1      17.906   6.957  20.578  0.00  0.00    +0.041 A 
ATOM     22  C   UNL     1      18.469   5.840  19.972  0.00  0.00    +0.016 A 
ATOM     23  C   UNL     1      18.572   7.514  21.657  0.00  0.00    +0.124 A 
ATOM     24  C   UNL     1      19.664   5.320  20.458  0.00  0.00    +0.044 A 
ATOM     25  C   UNL     1      20.251   5.951  21.544  0.00  0.00    +0.119 A 
BRANCH  25   7
ATOM      7  N   UNL     1      21.468   5.410  22.028  0.00  0.00    -0.327 N 
ATOM     29  H   UNL     1      21.828   5.806  22.888  0.00  0.00    +0.148 HD
BRANCH   7  26
ATOM     26  C   UNL     1      22.169   4.365  21.354  0.00  0.00    +0.131 C 
BRANCH  26  27
ATOM     27  C   UNL     1      22.268   3.144  22.251  0.00  0.00    +0.178 C 
BRANCH  27   2
ATOM      2  O   UNL     1      22.180   3.546  23.612  0.00  0.00    -0.381 OA
ATOM     28  C   UNL     1      22.732   2.567  24.482  0.00  0.00    +0.194 C 
ENDBRANCH  27   2
ENDBRANCH  26  27
ENDBRANCH   7  26
ENDBRANCH  25   7
ENDBRANCH  17  20
BRANCH  13   8
ATOM      3  N   UNL     1      12.563   8.445  18.641  0.00  0.00    -0.287 NA
ATOM      8  C   UNL     1      13.673   7.594  18.169  0.00  0.00    +0.146 C 
ATOM      9  C   UNL     1      13.932   8.054  16.722  0.00  0.00    +0.030 C 
ATOM     10  C   UNL     1      12.881   9.122  16.452  0.00  0.00    +0.017 C 
ATOM     11  C   UNL     1      11.789   8.811  17.454  0.00  0.00    +0.085 C 
BRANCH   3  12
ATOM     12  C   UNL     1      11.740   7.804  19.657  0.00  0.00    +0.120 C 
BRANCH  12  14
ATOM     14  C   UNL     1      11.458   8.725  20.814  0.00  0.00    -0.033 A 
ATOM     15  C   UNL     1      11.855  10.060  20.756  0.00  0.00    +0.005 A 
ATOM     16  C   UNL     1      10.800   8.242  21.945  0.00  0.00    +0.005 A 
ATOM     18  C   UNL     1      11.594  10.914  21.828  0.00  0.00    +0.000 A 
ATOM     19  C   UNL     1      10.538   9.095  23.017  0.00  0.00    +0.000 A 
ATOM     21  C   UNL     1      10.936  10.431  22.959  0.00  0.00    +0.000 A 
ENDBRANCH  12  14
ENDBRANCH   3  12
ENDBRANCH  13   8
TORSDOF 8
ENDMDL
MODEL 2
REMARK VINA RESULT:      -6.6      2.097     10.325
REMARK  Name = 45783470
REMARK  9 active torsions:
REMARK  status: ('A' for Active; 'I' for Inactive)
REMARK    1  A    between atoms: O_2  and  C_27
REMARK    2  A    between atoms: O_2  and  C_28
REMARK    3  A    between atoms: N_3  and  C_12
REMARK    4  A    between atoms: N_7  and  C_25
REMARK    5  A    between atoms: N_7  and  C_26
REMARK    6  A    between atoms: C_8  and  C_13
REMARK    7  A    between atoms: C_12  and  C_14
REMARK    8  A    between atoms: C_17  and  C_20
REMARK    9  A    between atoms: C_26  and  C_27
REMARK                            x       y       z     vdW  Elec       q    Type
REMARK                         _______ _______ _______ _____ _____    ______ ____
ROOT
ATOM      1  O   UNL     1      20.289   5.410  20.557  0.00  0.00    -0.336 OA
ATOM      4  N   UNL     1      18.925   6.785  21.680  0.00  0.00    -0.190 NA
ATOM      5  N   UNL     1      19.047   5.335  19.916  0.00  0.00    -0.056 NA
ATOM     13  C   UNL     1      20.131   6.285  21.584  0.00  0.00    +0.245 A 
ATOM     17  C   UNL     1      18.295   6.172  20.636  0.00  0.00    +0.204 A 
ENDROOT
BRANCH  17  20
ATOM      6  N   UNL     1      15.142   6.533  18.699  0.00  0.00    -0.240 NA
ATOM     20  C   UNL     1      16.914   6.420  20.340  0.00  0.00    +0.041 A 
ATOM     22  C   UNL     1      16.018   6.772  21.343  0.00  0.00    +0.016 A 
ATOM     23  C   UNL     1      16.430   6.315  19.046  0.00  0.00    +0.124 A 
ATOM     24  C   UNL     1      14.684   7.006  21.026  0.00  0.00    +0.044 A 
ATOM     25  C   UNL     1      14.300   6.874  19.701  0.00  0.00    +0.119 A 
BRANCH  25   7
ATOM      7  N   UNL     1      12.938   7.114  19.393  0.00  0.00    -0.327 N 
ATOM     29  H   UNL     1      12.328   6.305  19.380  0.00  0.00    +0.148 HD
BRANCH   7  26
ATOM     26  C   UNL     1      12.430   8.418  19.110  0.00  0.00    +0.131 C 
BRANCH  26  27
ATOM     27  C   UNL     1      11.304   8.756  20.071  0.00  0.00    +0.178 C 
BRANCH  27   2
ATOM      2  O   UNL     1      10.806   7.561  20.659  0.00  0.00    -0.381 OA
ATOM     28  C   UNL     1      10.653   7.696  22.065  0.00  0.00    +0.194 C 
ENDBRANCH  27   2
ENDBRANCH  26  27
ENDBRANCH   7  26
ENDBRANCH  25   7
ENDBRANCH  17  20
BRANCH  13   8
ATOM      3  N   UNL     1      22.404   5.529  22.257  0.00  0.00    -0.287 NA
ATOM      8  C   UNL     1      21.350   6.544  22.444  0.00  0.00    +0.146 C 
ATOM      9  C   UNL     1      22.034   7.885  22.115  0.00  0.00    +0.030 C 
ATOM     10  C   UNL     1      23.483   7.527  21.815  0.00  0.00    +0.017 C 
ATOM     11  C   UNL     1      23.677   6.201  22.521  0.00  0.00    +0.085 C 
BRANCH   3  12
ATOM     12  C   UNL     1      22.222   4.351  23.095  0.00  0.00    +0.120 C 
BRANCH  12  14
ATOM     14  C   UNL     1      22.981   3.163  22.565  0.00  0.00    -0.033 A 
ATOM     15  C   UNL     1      23.554   2.250  23.450  0.00  0.00    +0.005 A 
ATOM     16  C   UNL     1      23.112   2.976  21.189  0.00  0.00    +0.005 A 
ATOM     18  C   UNL     1      24.258   1.150  22.959  0.00  0.00    +0.000 A 
ATOM     19  C   UNL     1      23.815   1.877  20.698  0.00  0.00    +0.000 A 
ATOM     21  C   UNL     1      24.388   0.964  21.583  0.00  0.00    +0.000 A 
ENDBRANCH  12  14
ENDBRANCH   3  12
ENDBRANCH  13   8
TORSDOF 8
ENDMDL
MODEL 3
REMARK VINA RESULT:      -6.4      1.730      3.748
REMARK  Name = 45783470
REMARK  9 active torsions:
REMARK  status: ('A' for Active; 'I' for Inactive)
REMARK    1  A    between atoms: O_2  and  C_27
REMARK    2  A    between atoms: O_2  and  C_28
REMARK    3  A    between atoms: N_3  and  C_12
REMARK    4  A    between atoms: N_7  and  C_25
REMARK    5  A    between atoms: N_7  and  C_26
REMARK    6  A    between atoms: C_8  and  C_13
REMARK    7  A    between atoms: C_12  and  C_14
REMARK    8  A    between atoms: C_17  and  C_20
REMARK    9  A    between atoms: C_26  and  C_27
REMARK                            x       y       z     vdW  Elec       q    Type
REMARK                         _______ _______ _______ _____ _____    ______ ____
ROOT
ATOM      1  O   UNL     1      14.392   6.713  19.637  0.00  0.00    -0.336 OA
ATOM      4  N   UNL     1      15.649   7.559  21.285  0.00  0.00    -0.190 NA
ATOM      5  N   UNL     1      15.688   6.230  19.424  0.00  0.00    -0.056 NA
ATOM     13  C   UNL     1      14.456   7.486  20.752  0.00  0.00    +0.245 A 
ATOM     17  C   UNL     1      16.371   6.773  20.436  0.00  0.00    +0.204 A 
ENDROOT
BRANCH  17  20
ATOM      6  N   UNL     1      19.753   5.262  20.099  0.00  0.00    -0.240 NA
ATOM     20  C   UNL     1      17.776   6.550  20.627  0.00  0.00    +0.041 A 
ATOM     22  C   UNL     1      18.519   7.355  21.482  0.00  0.00    +0.016 A 
ATOM     23  C   UNL     1      18.434   5.526  19.965  0.00  0.00    +0.124 A 
ATOM     24  C   UNL     1      19.879   7.115  21.647  0.00  0.00    +0.044 A 
ATOM     25  C   UNL     1      20.443   6.066  20.939  0.00  0.00    +0.119 A 
BRANCH  25   7
ATOM      7  N   UNL     1      21.829   5.835  21.117  0.00  0.00    -0.327 N 
ATOM     29  H   UNL     1      22.328   6.500  21.697  0.00  0.00    +0.148 HD
BRANCH   7  26
ATOM     26  C   UNL     1      22.509   4.731  20.519  0.00  0.00    +0.131 C 
BRANCH  26  27
ATOM     27  C   UNL     1      22.666   3.609  21.530  0.00  0.00    +0.178 C 
BRANCH  27   2
ATOM      2  O   UNL     1      23.196   2.458  20.883  0.00  0.00    -0.381 OA
ATOM     28  C   UNL     1      24.456   2.730  20.285  0.00  0.00    +0.194 C 
ENDBRANCH  27   2
ENDBRANCH  26  27
ENDBRANCH   7  26
ENDBRANCH  25   7
ENDBRANCH  17  20
BRANCH  13   8
ATOM      3  N   UNL     1      12.363   8.649  20.071  0.00  0.00    -0.287 NA
ATOM      8  C   UNL     1      13.162   8.134  21.200  0.00  0.00    +0.146 C 
ATOM      9  C   UNL     1      12.226   7.149  21.926  0.00  0.00    +0.030 C 
ATOM     10  C   UNL     1      10.907   7.225  21.169  0.00  0.00    +0.017 C 
ATOM     11  C   UNL     1      10.962   8.578  20.489  0.00  0.00    +0.085 C 
BRANCH   3  12
ATOM     12  C   UNL     1      12.746   9.994  19.663  0.00  0.00    +0.120 C 
BRANCH  12  14
ATOM     14  C   UNL     1      13.226  10.032  18.237  0.00  0.00    -0.033 A 
ATOM     15  C   UNL     1      12.542   9.320  17.251  0.00  0.00    +0.005 A 
ATOM     16  C   UNL     1      14.355  10.779  17.900  0.00  0.00    +0.005 A 
ATOM     18  C   UNL     1      12.987   9.356  15.929  0.00  0.00    +0.000 A 
ATOM     19  C   UNL     1      14.800  10.814  16.579  0.00  0.00    +0.000 A 
ATOM     21  C   UNL     1      14.116  10.102  15.594  0.00  0.00    +0.000 A 
ENDBRANCH  12  14
ENDBRANCH   3  12
ENDBRANCH  13   8
TORSDOF 8
ENDMDL
MODEL 4
REMARK VINA RESULT:      -6.4     26.312     30.019
REMARK  Name = 45783470
REMARK  9 active torsions:
REMARK  status: ('A' for Active; 'I' for Inactive)
REMARK    1  A    between atoms: O_2  and  C_27
REMARK    2  A    between atoms: O_2  and  C_28
REMARK    3  A    between atoms: N_3  and  C_12
REMARK    4  A    between atoms: N_7  and  C_25
REMARK    5  A    between atoms: N_7  and  C_26
REMARK    6  A    between atoms: C_8  and  C_13
REMARK    7  A    between atoms: C_12  and  C_14
REMARK    8  A    between atoms: C_17  and  C_20
REMARK    9  A    between atoms: C_26  and  C_27
REMARK                            x       y       z     vdW  Elec       q    Type
REMARK                         _______ _______ _______ _____ _____    ______ ____
ROOT
ATOM      1  O   UNL     1      -5.219 -12.021  16.455  0.00  0.00    -0.336 OA
ATOM      4  N   UNL     1      -5.503 -10.058  15.415  0.00  0.00    -0.190 NA
ATOM      5  N   UNL     1      -6.520 -11.603  16.760  0.00  0.00    -0.056 NA
ATOM     13  C   UNL     1      -4.690 -11.055  15.660  0.00  0.00    +0.245 A 
ATOM     17  C   UNL     1      -6.613 -10.439  16.111  0.00  0.00    +0.204 A 
ENDROOT
BRANCH  17  20
ATOM      6  N   UNL     1      -9.681  -8.688  14.951  0.00  0.00    -0.240 NA
ATOM     20  C   UNL     1      -7.799  -9.632  16.138  0.00  0.00    +0.041 A 
ATOM     22  C   UNL     1      -8.226  -9.025  17.314  0.00  0.00    +0.016 A 
ATOM     23  C   UNL     1      -8.555  -9.434  14.995  0.00  0.00    +0.124 A 
ATOM     24  C   UNL     1      -9.380  -8.249  17.310  0.00  0.00    +0.044 A 
ATOM     25  C   UNL     1     -10.066  -8.113  16.113  0.00  0.00    +0.119 A 
BRANCH  25   7
ATOM      7  N   UNL     1     -11.239  -7.320  16.125  0.00  0.00    -0.327 N 
ATOM     29  H   UNL     1     -12.061  -7.734  16.550  0.00  0.00    +0.148 HD
BRANCH   7  26
ATOM     26  C   UNL     1     -11.287  -6.005  15.571  0.00  0.00    +0.131 C 
BRANCH  26  27
ATOM     27  C   UNL     1     -12.569  -5.821  14.778  0.00  0.00    +0.178 C 
BRANCH  27   2
ATOM      2  O   UNL     1     -12.414  -4.739  13.869  0.00  0.00    -0.381 OA
ATOM     28  C   UNL     1     -13.613  -4.485  13.151  0.00  0.00    +0.194 C 
ENDBRANCH  27   2
ENDBRANCH  26  27
ENDBRANCH   7  26
ENDBRANCH  25   7
ENDBRANCH  17  20
BRANCH  13   8
ATOM      3  N   UNL     1      -2.950 -10.498  13.971  0.00  0.00    -0.287 NA
ATOM      8  C   UNL     1      -3.269 -11.273  15.185  0.00  0.00    +0.146 C 
ATOM      9  C   UNL     1      -2.221 -10.827  16.222  0.00  0.00    +0.030 C 
ATOM     10  C   UNL     1      -1.322  -9.847  15.481  0.00  0.00    +0.017 C 
ATOM     11  C   UNL     1      -1.514 -10.217  14.024  0.00  0.00    +0.085 C 
BRANCH   3  12
ATOM     12  C   UNL     1      -3.330 -11.177  12.739  0.00  0.00    +0.120 C 
BRANCH  12  14
ATOM     14  C   UNL     1      -3.876 -10.217  11.715  0.00  0.00    -0.033 A 
ATOM     15  C   UNL     1      -3.113  -9.881  10.597  0.00  0.00    +0.005 A 
ATOM     16  C   UNL     1      -5.145  -9.664  11.885  0.00  0.00    +0.005 A 
ATOM     18  C   UNL     1      -3.619  -8.992   9.649  0.00  0.00    +0.000 A 
ATOM     19  C   UNL     1      -5.651  -8.775  10.937  0.00  0.00    +0.000 A 
ATOM     21  C   UNL     1      -4.887  -8.439   9.819  0.00  0.00    +0.000 A 
ENDBRANCH  12  14
ENDBRANCH   3  12
ENDBRANCH  13   8
TORSDOF 8
ENDMDL
MODEL 5
REMARK VINA RESULT:      -6.3     28.688     32.042
REMARK  Name = 45783470
REMARK  9 active torsions:
REMARK  status: ('A' for Active; 'I' for Inactive)
REMARK    1  A    between atoms: O_2  and  C_27
REMARK    2  A    between atoms: O_2  and  C_28
REMARK    3  A    between atoms: N_3  and  C_12
REMARK    4  A    between atoms: N_7  and  C_25
REMARK    5  A    between atoms: N_7  and  C_26
REMARK    6  A    between atoms: C_8  and  C_13
REMARK    7  A    between atoms: C_12  and  C_14
REMARK    8  A    between atoms: C_17  and  C_20
REMARK    9  A    between atoms: C_26  and  C_27
REMARK                            x       y       z     vdW  Elec       q    Type
REMARK                         _______ _______ _______ _____ _____    ______ ____
ROOT
ATOM      1  O   UNL     1     -16.493   3.637  22.174  0.00  0.00    -0.336 OA
ATOM      4  N   UNL     1     -16.429   4.628  24.181  0.00  0.00    -0.190 NA
ATOM      5  N   UNL     1     -16.511   2.605  23.119  0.00  0.00    -0.056 NA
ATOM     13  C   UNL     1     -16.445   4.795  22.883  0.00  0.00    +0.245 A 
ATOM     17  C   UNL     1     -16.471   3.268  24.278  0.00  0.00    +0.204 A 
ENDROOT
BRANCH  17  20
ATOM      6  N   UNL     1     -16.006   2.681  27.920  0.00  0.00    -0.240 NA
ATOM     20  C   UNL     1     -16.471   2.603  25.549  0.00  0.00    +0.041 A 
ATOM     22  C   UNL     1     -16.913   1.291  25.671  0.00  0.00    +0.016 A 
ATOM     23  C   UNL     1     -16.031   3.248  26.694  0.00  0.00    +0.124 A 
ATOM     24  C   UNL     1     -16.902   0.672  26.916  0.00  0.00    +0.044 A 
ATOM     25  C   UNL     1     -16.443   1.403  28.000  0.00  0.00    +0.119 A 
BRANCH  25   7
ATOM      7  N   UNL     1     -16.438   0.760  29.262  0.00  0.00    -0.327 N 
ATOM     29  H   UNL     1     -17.035  -0.054  29.357  0.00  0.00    +0.148 HD
BRANCH   7  26
ATOM     26  C   UNL     1     -15.646   1.217  30.357  0.00  0.00    +0.131 C 
BRANCH  26  27
ATOM     27  C   UNL     1     -14.620   0.162  30.733  0.00  0.00    +0.178 C 
BRANCH  27   2
ATOM      2  O   UNL     1     -13.549   0.188  29.798  0.00  0.00    -0.381 OA
ATOM     28  C   UNL     1     -13.285  -1.105  29.272  0.00  0.00    +0.194 C 
ENDBRANCH  27   2
ENDBRANCH  26  27
ENDBRANCH   7  26
ENDBRANCH  25   7
ENDBRANCH  17  20
BRANCH  13   8
ATOM      3  N   UNL     1     -15.133   6.287  21.383  0.00  0.00    -0.287 NA
ATOM      8  C   UNL     1     -16.418   6.079  22.079  0.00  0.00    +0.146 C 
ATOM      9  C   UNL     1     -17.478   6.101  20.961  0.00  0.00    +0.030 C 
ATOM     10  C   UNL     1     -16.700   6.388  19.684  0.00  0.00    +0.017 C 
ATOM     11  C   UNL     1     -15.436   7.060  20.178  0.00  0.00    +0.085 C 
BRANCH   3  12
ATOM     12  C   UNL     1     -14.128   6.936  22.214  0.00  0.00    +0.120 C 
BRANCH  12  14
ATOM     14  C   UNL     1     -13.095   7.654  21.387  0.00  0.00    -0.033 A 
ATOM     15  C   UNL     1     -12.126   6.927  20.697  0.00  0.00    +0.005 A 
ATOM     16  C   UNL     1     -13.107   9.047  21.312  0.00  0.00    +0.005 A 
ATOM     18  C   UNL     1     -11.168   7.593  19.930  0.00  0.00    +0.000 A 
ATOM     19  C   UNL     1     -12.150   9.712  20.546  0.00  0.00    +0.000 A 
ATOM     21  C   UNL     1     -11.181   8.985  19.856  0.00  0.00    +0.000 A 
ENDBRANCH  12  14
ENDBRANCH   3  12
ENDBRANCH  13   8
TORSDOF 8
ENDMDL
MODEL 6
REMARK VINA RESULT:      -6.3     27.088     30.421
REMARK  Name = 45783470
REMARK  9 active torsions:
REMARK  status: ('A' for Active; 'I' for Inactive)
REMARK    1  A    between atoms: O_2  and  C_27
REMARK    2  A    between atoms: O_2  and  C_28
REMARK    3  A    between atoms: N_3  and  C_12
REMARK    4  A    between atoms: N_7  and  C_25
REMARK    5  A    between atoms: N_7  and  C_26
REMARK    6  A    between atoms: C_8  and  C_13
REMARK    7  A    between atoms: C_12  and  C_14
REMARK    8  A    between atoms: C_17  and  C_20
REMARK    9  A    between atoms: C_26  and  C_27
REMARK                            x       y       z     vdW  Elec       q    Type
REMARK                         _______ _______ _______ _____ _____    ______ ____
ROOT
ATOM      1  O   UNL     1      -5.287  -9.606  15.683  0.00  0.00    -0.336 OA
ATOM      4  N   UNL     1      -5.542 -11.389  17.014  0.00  0.00    -0.190 NA
ATOM      5  N   UNL     1      -6.497  -9.416  16.361  0.00  0.00    -0.056 NA
ATOM     13  C   UNL     1      -4.790 -10.790  16.125  0.00  0.00    +0.245 A 
ATOM     17  C   UNL     1      -6.578 -10.508  17.126  0.00  0.00    +0.204 A 
ENDROOT
BRANCH  17  20
ATOM      6  N   UNL     1      -8.581 -11.954  19.905  0.00  0.00    -0.240 NA
ATOM     20  C   UNL     1      -7.680 -10.751  18.012  0.00  0.00    +0.041 A 
ATOM     22  C   UNL     1      -8.878 -10.061  17.871  0.00  0.00    +0.016 A 
ATOM     23  C   UNL     1      -7.583 -11.679  19.036  0.00  0.00    +0.124 A 
ATOM     24  C   UNL     1      -9.929 -10.316  18.745  0.00  0.00    +0.044 A 
ATOM     25  C   UNL     1      -9.732 -11.264  19.737  0.00  0.00    +0.119 A 
BRANCH  25   7
ATOM      7  N   UNL     1     -10.811 -11.513  20.620  0.00  0.00    -0.327 N 
ATOM     29  H   UNL     1     -11.270 -10.700  21.014  0.00  0.00    +0.148 HD
BRANCH   7  26
ATOM     26  C   UNL     1     -11.244 -12.831  20.955  0.00  0.00    +0.131 C 
BRANCH  26  27
ATOM     27  C   UNL     1     -12.742 -12.837  21.206  0.00  0.00    +0.178 C 
BRANCH  27   2
ATOM      2  O   UNL     1     -13.175 -11.521  21.528  0.00  0.00    -0.381 OA
ATOM     28  C   UNL     1     -14.503 -11.286  21.082  0.00  0.00    +0.194 C 
ENDBRANCH  27   2
ENDBRANCH  26  27
ENDBRANCH   7  26
ENDBRANCH  25   7
ENDBRANCH  17  20
BRANCH  13   8
ATOM      3  N   UNL     1      -3.168 -10.566  14.251  0.00  0.00    -0.287 NA
ATOM      8  C   UNL     1      -3.465 -11.229  15.536  0.00  0.00    +0.146 C 
ATOM      9  C   UNL     1      -2.269 -10.883  16.442  0.00  0.00    +0.030 C 
ATOM     10  C   UNL     1      -1.324 -10.076  15.561  0.00  0.00    +0.017 C 
ATOM     11  C   UNL     1      -1.710 -10.487  14.154  0.00  0.00    +0.085 C 
BRANCH   3  12
ATOM     12  C   UNL     1      -3.757 -11.244  13.105  0.00  0.00    +0.120 C 
BRANCH  12  14
ATOM     14  C   UNL     1      -4.075 -10.286  11.988  0.00  0.00    -0.033 A 
ATOM     15  C   UNL     1      -5.266  -9.560  12.010  0.00  0.00    +0.005 A 
ATOM     16  C   UNL     1      -3.180 -10.124  10.931  0.00  0.00    +0.005 A 
ATOM     18  C   UNL     1      -5.561  -8.671  10.975  0.00  0.00    +0.000 A 
ATOM     19  C   UNL     1      -3.474  -9.236   9.897  0.00  0.00    +0.000 A 
ATOM     21  C   UNL     1      -4.665  -8.510   9.919  0.00  0.00    +0.000 A 
ENDBRANCH  12  14
ENDBRANCH   3  12
ENDBRANCH  13   8
TORSDOF 8
ENDMDL
MODEL 7
REMARK VINA RESULT:      -6.0     26.862     30.092
REMARK  Name = 45783470
REMARK  9 active torsions:
REMARK  status: ('A' for Active; 'I' for Inactive)
REMARK    1  A    between atoms: O_2  and  C_27
REMARK    2  A    between atoms: O_2  and  C_28
REMARK    3  A    between atoms: N_3  and  C_12
REMARK    4  A    between atoms: N_7  and  C_25
REMARK    5  A    between atoms: N_7  and  C_26
REMARK    6  A    between atoms: C_8  and  C_13
REMARK    7  A    between atoms: C_12  and  C_14
REMARK    8  A    between atoms: C_17  and  C_20
REMARK    9  A    between atoms: C_26  and  C_27
REMARK                            x       y       z     vdW  Elec       q    Type
REMARK                         _______ _______ _______ _____ _____    ______ ____
ROOT
ATOM      1  O   UNL     1      -4.292 -13.291  15.464  0.00  0.00    -0.336 OA
ATOM      4  N   UNL     1      -4.569 -11.271  16.390  0.00  0.00    -0.190 NA
ATOM      5  N   UNL     1      -5.469 -13.367  16.218  0.00  0.00    -0.056 NA
ATOM     13  C   UNL     1      -3.826 -12.025  15.619  0.00  0.00    +0.245 A 
ATOM     17  C   UNL     1      -5.564 -12.138  16.734  0.00  0.00    +0.204 A 
ENDROOT
BRANCH  17  20
ATOM      6  N   UNL     1      -8.421 -10.187  18.098  0.00  0.00    -0.240 NA
ATOM     20  C   UNL     1      -6.642 -11.744  17.596  0.00  0.00    +0.041 A 
ATOM     22  C   UNL     1      -6.963 -12.487  18.727  0.00  0.00    +0.016 A 
ATOM     23  C   UNL     1      -7.395 -10.613  17.329  0.00  0.00    +0.124 A 
ATOM     24  C   UNL     1      -8.012 -12.082  19.544  0.00  0.00    +0.044 A 
ATOM     25  C   UNL     1      -8.704 -10.935  19.189  0.00  0.00    +0.119 A 
BRANCH  25   7
ATOM      7  N   UNL     1      -9.771 -10.534  20.030  0.00  0.00    -0.327 N 
ATOM     29  H   UNL     1      -9.613 -10.612  21.029  0.00  0.00    +0.148 HD
BRANCH   7  26
ATOM     26  C   UNL     1     -11.013 -10.047  19.522  0.00  0.00    +0.131 C 
BRANCH  26  27
ATOM     27  C   UNL     1     -12.167 -10.655  20.299  0.00  0.00    +0.178 C 
BRANCH  27   2
ATOM      2  O   UNL     1     -11.805 -11.955  20.748  0.00  0.00    -0.381 OA
ATOM     28  C   UNL     1     -12.930 -12.820  20.806  0.00  0.00    +0.194 C 
ENDBRANCH  27   2
ENDBRANCH  26  27
ENDBRANCH   7  26
ENDBRANCH  25   7
ENDBRANCH  17  20
BRANCH  13   8
ATOM      3  N   UNL     1      -2.747 -10.694  13.814  0.00  0.00    -0.287 NA
ATOM      8  C   UNL     1      -2.543 -11.683  14.891  0.00  0.00    +0.146 C 
ATOM      9  C   UNL     1      -1.488 -11.044  15.814  0.00  0.00    +0.030 C 
ATOM     10  C   UNL     1      -1.117  -9.729  15.142  0.00  0.00    +0.017 C 
ATOM     11  C   UNL     1      -1.493  -9.951  13.691  0.00  0.00    +0.085 C 
BRANCH   3  12
ATOM     12  C   UNL     1      -3.154 -11.296  12.551  0.00  0.00    +0.120 C 
BRANCH  12  14
ATOM     14  C   UNL     1      -3.809 -10.295  11.638  0.00  0.00    -0.033 A 
ATOM     15  C   UNL     1      -3.193  -9.936  10.439  0.00  0.00    +0.005 A 
ATOM     16  C   UNL     1      -5.032  -9.725  11.990  0.00  0.00    +0.005 A 
ATOM     18  C   UNL     1      -3.800  -9.008   9.592  0.00  0.00    +0.000 A 
ATOM     19  C   UNL     1      -5.640  -8.797  11.144  0.00  0.00    +0.000 A 
ATOM     21  C   UNL     1      -5.023  -8.438   9.946  0.00  0.00    +0.000 A 
ENDBRANCH  12  14
ENDBRANCH   3  12
ENDBRANCH  13   8
TORSDOF 8
ENDMDL
MODEL 8
REMARK VINA RESULT:      -5.8     27.301     29.676
REMARK  Name = 45783470
REMARK  9 active torsions:
REMARK  status: ('A' for Active; 'I' for Inactive)
REMARK    1  A    between atoms: O_2  and  C_27
REMARK    2  A    between atoms: O_2  and  C_28
REMARK    3  A    between atoms: N_3  and  C_12
REMARK    4  A    between atoms: N_7  and  C_25
REMARK    5  A    between atoms: N_7  and  C_26
REMARK    6  A    between atoms: C_8  and  C_13
REMARK    7  A    between atoms: C_12  and  C_14
REMARK    8  A    between atoms: C_17  and  C_20
REMARK    9  A    between atoms: C_26  and  C_27
REMARK                            x       y       z     vdW  Elec       q    Type
REMARK                         _______ _______ _______ _____ _____    ______ ____
ROOT
ATOM      1  O   UNL     1     -11.427  10.814  19.818  0.00  0.00    -0.336 OA
ATOM      4  N   UNL     1     -11.463   8.750  18.948  0.00  0.00    -0.190 NA
ATOM      5  N   UNL     1     -12.138  10.021  20.727  0.00  0.00    -0.056 NA
ATOM     13  C   UNL     1     -11.065   9.989  18.801  0.00  0.00    +0.245 A 
ATOM     17  C   UNL     1     -12.117   8.819  20.144  0.00  0.00    +0.204 A 
ENDROOT
BRANCH  17  20
ATOM      6  N   UNL     1     -12.506   5.477  21.729  0.00  0.00    -0.240 NA
ATOM     20  C   UNL     1     -12.739   7.666  20.729  0.00  0.00    +0.041 A 
ATOM     22  C   UNL     1     -14.120   7.593  20.872  0.00  0.00    +0.016 A 
ATOM     23  C   UNL     1     -11.984   6.591  21.169  0.00  0.00    +0.124 A 
ATOM     24  C   UNL     1     -14.696   6.463  21.444  0.00  0.00    +0.044 A 
ATOM     25  C   UNL     1     -13.852   5.442  21.852  0.00  0.00    +0.119 A 
BRANCH  25   7
ATOM      7  N   UNL     1     -14.453   4.298  22.432  0.00  0.00    -0.327 N 
ATOM     29  H   UNL     1     -14.425   3.445  21.884  0.00  0.00    +0.148 HD
BRANCH   7  26
ATOM     26  C   UNL     1     -15.072   4.321  23.718  0.00  0.00    +0.131 C 
BRANCH  26  27
ATOM     27  C   UNL     1     -16.558   4.037  23.584  0.00  0.00    +0.178 C 
BRANCH  27   2
ATOM      2  O   UNL     1     -16.765   3.056  22.575  0.00  0.00    -0.381 OA
ATOM     28  C   UNL     1     -17.683   2.058  22.998  0.00  0.00    +0.194 C 
ENDBRANCH  27   2
ENDBRANCH  26  27
ENDBRANCH   7  26
ENDBRANCH  25   7
ENDBRANCH  17  20
BRANCH  13   8
ATOM      3  N   UNL     1     -10.938  10.474  16.363  0.00  0.00    -0.287 NA
ATOM      8  C   UNL     1     -10.272  10.615  17.673  0.00  0.00    +0.146 C 
ATOM      9  C   UNL     1     -10.079  12.132  17.853  0.00  0.00    +0.030 C 
ATOM     10  C   UNL     1     -10.611  12.755  16.570  0.00  0.00    +0.017 C 
ATOM     11  C   UNL     1     -10.524  11.627  15.562  0.00  0.00    +0.085 C 
BRANCH   3  12
ATOM     12  C   UNL     1     -10.641   9.211  15.700  0.00  0.00    +0.120 C 
BRANCH  12  14
ATOM     14  C   UNL     1     -11.878   8.576  15.124  0.00  0.00    -0.033 A 
ATOM     15  C   UNL     1     -11.814   7.906  13.902  0.00  0.00    +0.005 A 
ATOM     16  C   UNL     1     -13.089   8.657  15.812  0.00  0.00    +0.005 A 
ATOM     18  C   UNL     1     -12.961   7.317  13.368  0.00  0.00    +0.000 A 
ATOM     19  C   UNL     1     -14.235   8.068  15.278  0.00  0.00    +0.000 A 
ATOM     21  C   UNL     1     -14.171   7.399  14.056  0.00  0.00    +0.000 A 
ENDBRANCH  12  14
ENDBRANCH   3  12
ENDBRANCH  13   8
TORSDOF 8
ENDMDL
MODEL 9
REMARK VINA RESULT:      -5.8     29.263     31.708
REMARK  Name = 45783470
REMARK  9 active torsions:
REMARK  status: ('A' for Active; 'I' for Inactive)
REMARK    1  A    between atoms: O_2  and  C_27
REMARK    2  A    between atoms: O_2  and  C_28
REMARK    3  A    between atoms: N_3  and  C_12
REMARK    4  A    between atoms: N_7  and  C_25
REMARK    5  A    between atoms: N_7  and  C_26
REMARK    6  A    between atoms: C_8  and  C_13
REMARK    7  A    between atoms: C_12  and  C_14
REMARK    8  A    between atoms: C_17  and  C_20
REMARK    9  A    between atoms: C_26  and  C_27
REMARK                            x       y       z     vdW  Elec       q    Type
REMARK                         _______ _______ _______ _____ _____    ______ ____
ROOT
ATOM      1  O   UNL     1     -14.168  -5.588  12.600  0.00  0.00    -0.336 OA
ATOM      4  N   UNL     1     -12.180  -4.841  13.310  0.00  0.00    -0.190 NA
ATOM      5  N   UNL     1     -13.709  -6.527  13.532  0.00  0.00    -0.056 NA
ATOM     13  C   UNL     1     -13.209  -4.628  12.529  0.00  0.00    +0.245 A 
ATOM     17  C   UNL     1     -12.532  -6.017  13.905  0.00  0.00    +0.204 A 
ENDROOT
BRANCH  17  20
ATOM      6  N   UNL     1     -10.694  -6.653  17.074  0.00  0.00    -0.240 NA
ATOM     20  C   UNL     1     -11.684  -6.657  14.869  0.00  0.00    +0.041 A 
ATOM     22  C   UNL     1     -11.042  -7.855  14.575  0.00  0.00    +0.016 A 
ATOM     23  C   UNL     1     -11.478  -6.102  16.121  0.00  0.00    +0.124 A 
ATOM     24  C   UNL     1     -10.227  -8.453  15.529  0.00  0.00    +0.044 A 
ATOM     25  C   UNL     1     -10.087  -7.818  16.752  0.00  0.00    +0.119 A 
BRANCH  25   7
ATOM      7  N   UNL     1      -9.253  -8.439  17.715  0.00  0.00    -0.327 N 
ATOM     29  H   UNL     1      -9.500  -8.296  18.687  0.00  0.00    +0.148 HD
BRANCH   7  26
ATOM     26  C   UNL     1      -8.118  -9.227  17.357  0.00  0.00    +0.131 C 
BRANCH  26  27
ATOM     27  C   UNL     1      -8.173 -10.569  18.065  0.00  0.00    +0.178 C 
BRANCH  27   2
ATOM      2  O   UNL     1      -6.867 -11.128  18.126  0.00  0.00    -0.381 OA
ATOM     28  C   UNL     1      -6.117 -10.588  19.204  0.00  0.00    +0.194 C 
ENDBRANCH  27   2
ENDBRANCH  26  27
ENDBRANCH   7  26
ENDBRANCH  25   7
ENDBRANCH  17  20
BRANCH  13   8
ATOM      3  N   UNL     1     -13.075  -3.792  10.188  0.00  0.00    -0.287 NA
ATOM      8  C   UNL     1     -13.470  -3.481  11.576  0.00  0.00    +0.146 C 
ATOM      9  C   UNL     1     -14.963  -3.113  11.486  0.00  0.00    +0.030 C 
ATOM     10  C   UNL     1     -15.301  -3.187  10.003  0.00  0.00    +0.017 C 
ATOM     11  C   UNL     1     -13.959  -3.011   9.322  0.00  0.00    +0.085 C 
BRANCH   3  12
ATOM     12  C   UNL     1     -11.668  -3.528   9.919  0.00  0.00    +0.120 C 
BRANCH  12  14
ATOM     14  C   UNL     1     -10.945  -4.763   9.452  0.00  0.00    -0.033 A 
ATOM     15  C   UNL     1     -11.468  -6.025   9.732  0.00  0.00    +0.005 A 
ATOM     16  C   UNL     1      -9.751  -4.645   8.741  0.00  0.00    +0.005 A 
ATOM     18  C   UNL     1     -10.797  -7.170   9.299  0.00  0.00    +0.000 A 
ATOM     19  C   UNL     1      -9.081  -5.788   8.309  0.00  0.00    +0.000 A 
ATOM     21  C   UNL     1      -9.604  -7.051   8.588  0.00  0.00    +0.000 A 
ENDBRANCH  12  14
ENDBRANCH   3  12
ENDBRANCH  13   8
TORSDOF 8
ENDMDL
MODEL 10
REMARK VINA RESULT:      -5.8     16.747     20.976
REMARK  Name = 45783470
REMARK  9 active torsions:
REMARK  status: ('A' for Active; 'I' for Inactive)
REMARK    1  A    between atoms: O_2  and  C_27
REMARK    2  A    between atoms: O_2  and  C_28
REMARK    3  A    between atoms: N_3  and  C_12
REMARK    4  A    between atoms: N_7  and  C_25
REMARK    5  A    between atoms: N_7  and  C_26
REMARK    6  A    between atoms: C_8  and  C_13
REMARK    7  A    between atoms: C_12  and  C_14
REMARK    8  A    between atoms: C_17  and  C_20
REMARK    9  A    between atoms: C_26  and  C_27
REMARK                            x       y       z     vdW  Elec       q    Type
REMARK                         _______ _______ _______ _____ _____    ______ ____
ROOT
ATOM      1  O   UNL     1      10.170   6.811  -1.177  0.00  0.00    -0.336 OA
ATOM      4  N   UNL     1      10.536   4.949   0.011  0.00  0.00    -0.190 NA
ATOM      5  N   UNL     1       9.947   7.154   0.162  0.00  0.00    -0.056 NA
ATOM     13  C   UNL     1      10.513   5.497  -1.178  0.00  0.00    +0.245 A 
ATOM     17  C   UNL     1      10.182   6.004   0.800  0.00  0.00    +0.204 A 
ENDROOT
BRANCH  17  20
ATOM      6  N   UNL     1       9.349   6.814   4.333  0.00  0.00    -0.240 NA
ATOM     20  C   UNL     1      10.071   5.876   2.225  0.00  0.00    +0.041 A 
ATOM     22  C   UNL     1      10.548   4.747   2.882  0.00  0.00    +0.016 A 
ATOM     23  C   UNL     1       9.485   6.872   2.989  0.00  0.00    +0.124 A 
ATOM     24  C   UNL     1      10.426   4.650   4.264  0.00  0.00    +0.044 A 
ATOM     25  C   UNL     1       9.825   5.701   4.937  0.00  0.00    +0.119 A 
BRANCH  25   7
ATOM      7  N   UNL     1       9.708   5.588   6.344  0.00  0.00    -0.327 N 
ATOM     29  H   UNL     1      10.026   4.718   6.756  0.00  0.00    +0.148 HD
BRANCH   7  26
ATOM     26  C   UNL     1       9.170   6.629   7.159  0.00  0.00    +0.131 C 
BRANCH  26  27
ATOM     27  C   UNL     1       9.589   6.425   8.605  0.00  0.00    +0.178 C 
BRANCH  27   2
ATOM      2  O   UNL     1       8.745   5.455   9.212  0.00  0.00    -0.381 OA
ATOM     28  C   UNL     1       9.467   4.625  10.111  0.00  0.00    +0.194 C 
ENDBRANCH  27   2
ENDBRANCH  26  27
ENDBRANCH   7  26
ENDBRANCH  25   7
ENDBRANCH  17  20
BRANCH  13   8
ATOM      3  N   UNL     1      11.752   3.742  -2.435  0.00  0.00    -0.287 NA
ATOM      8  C   UNL     1      10.811   4.876  -2.527  0.00  0.00    +0.146 C 
ATOM      9  C   UNL     1       9.557   4.292  -3.202  0.00  0.00    +0.030 C 
ATOM     10  C   UNL     1       9.910   2.842  -3.506  0.00  0.00    +0.017 C 
ATOM     11  C   UNL     1      11.424   2.843  -3.542  0.00  0.00    +0.085 C 
BRANCH   3  12
ATOM     12  C   UNL     1      13.150   4.152  -2.457  0.00  0.00    +0.120 C 
BRANCH  12  14
ATOM     14  C   UNL     1      13.815   3.949  -1.122  0.00  0.00    -0.033 A 
ATOM     15  C   UNL     1      13.096   3.398  -0.061  0.00  0.00    +0.005 A 
ATOM     16  C   UNL     1      15.149   4.313  -0.945  0.00  0.00    +0.005 A 
ATOM     18  C   UNL     1      13.713   3.209   1.177  0.00  0.00    +0.000 A 
ATOM     19  C   UNL     1      15.766   4.125   0.292  0.00  0.00    +0.000 A 
ATOM     21  C   UNL     1      15.047   3.574   1.353  0.00  0.00    +0.000 A 
ENDBRANCH  12  14
ENDBRANCH   3  12
ENDBRANCH  13   8
TORSDOF 8
ENDMDL
