MODEL 1
REMARK VINA RESULT:      -7.6      0.000      0.000
REMARK  Name = 25338464
REMARK  6 active torsions:
REMARK  status: ('A' for Active; 'I' for Inactive)
REMARK    1  A    between atoms: S_1  and  N_6
REMARK    2  A    between atoms: S_1  and  C_17
REMARK    3  A    between atoms: N_5  and  C_16
REMARK    4  A    between atoms: N_6  and  C_11
REMARK    5  A    between atoms: C_12  and  C_15
REMARK    6  A    between atoms: C_18  and  C_22
REMARK                            x       y       z     vdW  Elec       q    Type
REMARK                         _______ _______ _______ _____ _____    ______ ____
ROOT
ATOM      5  N   UNL     1      11.456   8.087  21.951  0.00  0.00    -0.293 NA
ATOM     11  C   UNL     1      11.252  10.354  22.455  0.00  0.00    +0.092 C 
ATOM     12  C   UNL     1      11.834   8.761  20.695  0.00  0.00    +0.147 C 
ATOM     13  C   UNL     1      11.853  10.261  21.052  0.00  0.00    +0.050 C 
ATOM     14  C   UNL     1      10.559   9.013  22.651  0.00  0.00    +0.105 C 
ATOM     16  C   UNL     1      10.833   6.785  21.738  0.00  0.00    +0.105 C 
ENDROOT
BRANCH  12  15
ATOM      2  O   UNL     1      13.267   8.294  18.772  0.00  0.00    -0.336 OA
ATOM      7  N   UNL     1      14.218   7.851  20.750  0.00  0.00    -0.190 NA
ATOM      8  N   UNL     1      14.552   7.816  18.488  0.00  0.00    -0.056 NA
ATOM     15  C   UNL     1      13.152   8.283  20.126  0.00  0.00    +0.245 A 
ATOM     18  C   UNL     1      15.050   7.576  19.705  0.00  0.00    +0.202 A 
BRANCH  18  22
ATOM     10  N   UNL     1      18.954   6.066  20.309  0.00  0.00    -0.263 NA
ATOM     22  C   UNL     1      16.374   7.064  19.910  0.00  0.00    +0.025 A 
ATOM     27  C   UNL     1      16.874   6.069  19.077  0.00  0.00    +0.031 A 
ATOM     28  C   UNL     1      17.163   7.561  20.941  0.00  0.00    +0.031 A 
ATOM     30  C   UNL     1      18.159   5.607  19.317  0.00  0.00    +0.111 A 
ATOM     31  C   UNL     1      18.435   7.033  21.098  0.00  0.00    +0.111 A 
ENDBRANCH  18  22
ENDBRANCH  12  15
BRANCH  11   6
ATOM      6  N   UNL     1      12.269  10.571  23.456  0.00  0.00    -0.186 NA
ATOM     32  H   UNL     1      13.041   9.896  23.515  0.00  0.00    +0.148 HD
BRANCH   6   1
ATOM      1  S   UNL     1      11.985  11.663  24.723  0.00  0.00    +0.061 S 
ATOM      3  O   UNL     1      13.242  11.995  25.367  0.00  0.00    -0.153 OA
ATOM      4  O   UNL     1      10.866  11.182  25.510  0.00  0.00    -0.153 OA
BRANCH   1  17
ATOM      9  N   UNL     1      13.473  13.234  22.661  0.00  0.00    -0.253 NA
ATOM     17  C   UNL     1      11.425  13.096  23.853  0.00  0.00    +0.131 A 
ATOM     19  C   UNL     1      12.243  13.720  22.914  0.00  0.00    +0.097 A 
ATOM     20  C   UNL     1      10.145  13.574  24.140  0.00  0.00    +0.031 A 
ATOM     21  C   UNL     1      11.742  14.860  22.252  0.00  0.00    +0.002 A 
ATOM     23  C   UNL     1       9.658  14.697  23.484  0.00  0.00    +0.003 A 
ATOM     24  C   UNL     1      10.453  15.340  22.541  0.00  0.00    +0.010 A 
ATOM     25  C   UNL     1      12.565  15.489  21.307  0.00  0.00    +0.011 A 
ATOM     26  C   UNL     1      14.235  13.870  21.741  0.00  0.00    +0.111 A 
ATOM     29  C   UNL     1      13.833  14.990  21.044  0.00  0.00    +0.020 A 
ENDBRANCH   1  17
ENDBRANCH   6   1
ENDBRANCH  11   6
TORSDOF 5
ENDMDL
MODEL 2
REMARK VINA RESULT:      -7.5      1.501      2.346
REMARK  Name = 25338464
REMARK  6 active torsions:
REMARK  status: ('A' for Active; 'I' for Inactive)
REMARK    1  A    between atoms: S_1  and  N_6
REMARK    2  A    between atoms: S_1  and  C_17
REMARK    3  A    between atoms: N_5  and  C_16
REMARK    4  A    between atoms: N_6  and  C_11
REMARK    5  A    between atoms: C_12  and  C_15
REMARK    6  A    between atoms: C_18  and  C_22
REMARK                            x       y       z     vdW  Elec       q    Type
REMARK                         _______ _______ _______ _____ _____    ______ ____
ROOT
ATOM      5  N   UNL     1      11.567   7.020  21.663  0.00  0.00    -0.293 NA
ATOM     11  C   UNL     1      10.949   9.254  21.909  0.00  0.00    +0.092 C 
ATOM     12  C   UNL     1      11.865   7.614  20.346  0.00  0.00    +0.147 C 
ATOM     13  C   UNL     1      11.606   9.122  20.535  0.00  0.00    +0.050 C 
ATOM     14  C   UNL     1      10.497   7.840  22.241  0.00  0.00    +0.105 C 
ATOM     16  C   UNL     1      11.191   5.613  21.586  0.00  0.00    +0.105 C 
ENDROOT
BRANCH  12  15
ATOM      2  O   UNL     1      13.466   7.400  18.513  0.00  0.00    -0.336 OA
ATOM      7  N   UNL     1      14.334   6.996  20.537  0.00  0.00    -0.190 NA
ATOM      8  N   UNL     1      14.816   7.093  18.304  0.00  0.00    -0.056 NA
ATOM     15  C   UNL     1      13.266   7.322  19.855  0.00  0.00    +0.245 A 
ATOM     18  C   UNL     1      15.260   6.866  19.544  0.00  0.00    +0.202 A 
BRANCH  18  22
ATOM     10  N   UNL     1      19.273   5.816  20.369  0.00  0.00    -0.263 NA
ATOM     22  C   UNL     1      16.620   6.510  19.824  0.00  0.00    +0.025 A 
ATOM     27  C   UNL     1      17.296   5.625  18.990  0.00  0.00    +0.031 A 
ATOM     28  C   UNL     1      17.270   7.049  20.929  0.00  0.00    +0.031 A 
ATOM     30  C   UNL     1      18.609   5.313  19.304  0.00  0.00    +0.111 A 
ATOM     31  C   UNL     1      18.584   6.672  21.156  0.00  0.00    +0.111 A 
ENDBRANCH  18  22
ENDBRANCH  12  15
BRANCH  11   6
ATOM      6  N   UNL     1      11.876   9.756  22.896  0.00  0.00    -0.186 NA
ATOM     32  H   UNL     1      11.646   9.618  23.888  0.00  0.00    +0.148 HD
BRANCH   6   1
ATOM      1  S   UNL     1      13.077  10.862  22.439  0.00  0.00    +0.061 S 
ATOM      3  O   UNL     1      13.622  10.481  21.150  0.00  0.00    -0.153 OA
ATOM      4  O   UNL     1      13.960  11.084  23.569  0.00  0.00    -0.153 OA
BRANCH   1  17
ATOM      9  N   UNL     1      11.605  12.412  24.528  0.00  0.00    -0.253 NA
ATOM     17  C   UNL     1      12.143  12.346  22.217  0.00  0.00    +0.131 A 
ATOM     19  C   UNL     1      11.510  12.953  23.298  0.00  0.00    +0.097 A 
ATOM     20  C   UNL     1      12.064  12.880  20.929  0.00  0.00    +0.031 A 
ATOM     21  C   UNL     1      10.778  14.135  23.061  0.00  0.00    +0.002 A 
ATOM     23  C   UNL     1      11.342  14.045  20.702  0.00  0.00    +0.003 A 
ATOM     24  C   UNL     1      10.699  14.673  21.764  0.00  0.00    +0.010 A 
ATOM     25  C   UNL     1      10.140  14.747  24.148  0.00  0.00    +0.011 A 
ATOM     26  C   UNL     1      10.975  13.034  25.551  0.00  0.00    +0.111 A 
ATOM     29  C   UNL     1      10.236  14.192  25.416  0.00  0.00    +0.020 A 
ENDBRANCH   1  17
ENDBRANCH   6   1
ENDBRANCH  11   6
TORSDOF 5
ENDMDL
MODEL 3
REMARK VINA RESULT:      -7.1      2.284      3.225
REMARK  Name = 25338464
REMARK  6 active torsions:
REMARK  status: ('A' for Active; 'I' for Inactive)
REMARK    1  A    between atoms: S_1  and  N_6
REMARK    2  A    between atoms: S_1  and  C_17
REMARK    3  A    between atoms: N_5  and  C_16
REMARK    4  A    between atoms: N_6  and  C_11
REMARK    5  A    between atoms: C_12  and  C_15
REMARK    6  A    between atoms: C_18  and  C_22
REMARK                            x       y       z     vdW  Elec       q    Type
REMARK                         _______ _______ _______ _____ _____    ______ ____
ROOT
ATOM      5  N   UNL     1      12.826   7.870  20.166  0.00  0.00    -0.293 NA
ATOM     11  C   UNL     1      12.773  10.100  19.491  0.00  0.00    +0.092 C 
ATOM     12  C   UNL     1      13.695   7.897  18.975  0.00  0.00    +0.147 C 
ATOM     13  C   UNL     1      13.795   9.390  18.603  0.00  0.00    +0.050 C 
ATOM     14  C   UNL     1      11.880   8.979  19.999  0.00  0.00    +0.105 C 
ATOM     16  C   UNL     1      12.141   6.595  20.349  0.00  0.00    +0.105 C 
ENDROOT
BRANCH  12  15
ATOM      2  O   UNL     1      15.382   6.233  18.378  0.00  0.00    -0.336 OA
ATOM      7  N   UNL     1      15.968   7.557  20.086  0.00  0.00    -0.190 NA
ATOM      8  N   UNL     1      16.658   5.816  18.775  0.00  0.00    -0.056 NA
ATOM     15  C   UNL     1      15.050   7.262  19.201  0.00  0.00    +0.245 A 
ATOM     18  C   UNL     1      16.936   6.644  19.786  0.00  0.00    +0.202 A 
BRANCH  18  22
ATOM     10  N   UNL     1      20.573   6.473  21.936  0.00  0.00    -0.263 NA
ATOM     22  C   UNL     1      18.169   6.586  20.515  0.00  0.00    +0.025 A 
ATOM     27  C   UNL     1      19.150   5.669  20.155  0.00  0.00    +0.031 A 
ATOM     28  C   UNL     1      18.389   7.447  21.585  0.00  0.00    +0.031 A 
ATOM     30  C   UNL     1      20.324   5.652  20.891  0.00  0.00    +0.111 A 
ATOM     31  C   UNL     1      19.597   7.351  22.257  0.00  0.00    +0.111 A 
ENDBRANCH  18  22
ENDBRANCH  12  15
BRANCH  11   6
ATOM      6  N   UNL     1      13.411  10.800  20.581  0.00  0.00    -0.186 NA
ATOM     32  H   UNL     1      13.447  10.336  21.497  0.00  0.00    +0.148 HD
BRANCH   6   1
ATOM      1  S   UNL     1      13.726  12.461  20.448  0.00  0.00    +0.061 S 
ATOM      3  O   UNL     1      13.773  12.835  19.047  0.00  0.00    -0.153 OA
ATOM      4  O   UNL     1      14.826  12.799  21.331  0.00  0.00    -0.153 OA
BRANCH   1  17
ATOM      9  N   UNL     1      12.553  11.907  23.140  0.00  0.00    -0.253 NA
ATOM     17  C   UNL     1      12.266  13.168  21.150  0.00  0.00    +0.131 A 
ATOM     19  C   UNL     1      11.846  12.804  22.427  0.00  0.00    +0.097 A 
ATOM     20  C   UNL     1      11.557  14.094  20.384  0.00  0.00    +0.031 A 
ATOM     21  C   UNL     1      10.674  13.400  22.935  0.00  0.00    +0.002 A 
ATOM     23  C   UNL     1      10.402  14.678  20.890  0.00  0.00    +0.003 A 
ATOM     24  C   UNL     1       9.960  14.333  22.163  0.00  0.00    +0.010 A 
ATOM     25  C   UNL     1      10.251  13.035  24.221  0.00  0.00    +0.011 A 
ATOM     26  C   UNL     1      12.111  11.581  24.377  0.00  0.00    +0.111 A 
ATOM     29  C   UNL     1      10.977  12.110  24.958  0.00  0.00    +0.020 A 
ENDBRANCH   1  17
ENDBRANCH   6   1
ENDBRANCH  11   6
TORSDOF 5
ENDMDL
MODEL 4
REMARK VINA RESULT:      -7.0      3.554      6.252
REMARK  Name = 25338464
REMARK  6 active torsions:
REMARK  status: ('A' for Active; 'I' for Inactive)
REMARK    1  A    between atoms: S_1  and  N_6
REMARK    2  A    between atoms: S_1  and  C_17
REMARK    3  A    between atoms: N_5  and  C_16
REMARK    4  A    between atoms: N_6  and  C_11
REMARK    5  A    between atoms: C_12  and  C_15
REMARK    6  A    between atoms: C_18  and  C_22
REMARK                            x       y       z     vdW  Elec       q    Type
REMARK                         _______ _______ _______ _____ _____    ______ ____
ROOT
ATOM      5  N   UNL     1      17.702   9.028  20.792  0.00  0.00    -0.293 NA
ATOM     11  C   UNL     1      15.429   8.519  20.708  0.00  0.00    +0.092 C 
ATOM     12  C   UNL     1      17.600   7.753  21.527  0.00  0.00    +0.147 C 
ATOM     13  C   UNL     1      16.131   7.323  21.352  0.00  0.00    +0.050 C 
ATOM     14  C   UNL     1      16.393   9.675  20.926  0.00  0.00    +0.105 C 
ATOM     16  C   UNL     1      18.782   9.883  21.272  0.00  0.00    +0.105 C 
ENDROOT
BRANCH  12  15
ATOM      2  O   UNL     1      18.144   5.885  20.050  0.00  0.00    -0.336 OA
ATOM      7  N   UNL     1      19.793   6.448  21.457  0.00  0.00    -0.190 NA
ATOM      8  N   UNL     1      19.202   5.008  19.782  0.00  0.00    -0.056 NA
ATOM     15  C   UNL     1      18.575   6.700  21.048  0.00  0.00    +0.245 A 
ATOM     18  C   UNL     1      20.137   5.402  20.651  0.00  0.00    +0.202 A 
BRANCH  18  22
ATOM     10  N   UNL     1      23.930   3.551  20.912  0.00  0.00    -0.263 NA
ATOM     22  C   UNL     1      21.423   4.774  20.740  0.00  0.00    +0.025 A 
ATOM     27  C   UNL     1      22.570   5.482  20.398  0.00  0.00    +0.031 A 
ATOM     28  C   UNL     1      21.528   3.455  21.167  0.00  0.00    +0.031 A 
ATOM     30  C   UNL     1      23.789   4.830  20.500  0.00  0.00    +0.111 A 
ATOM     31  C   UNL     1      22.794   2.894  21.235  0.00  0.00    +0.111 A 
ENDBRANCH  18  22
ENDBRANCH  12  15
BRANCH  11   6
ATOM      6  N   UNL     1      15.183   8.297  19.303  0.00  0.00    -0.186 NA
ATOM     32  H   UNL     1      15.837   7.695  18.787  0.00  0.00    +0.148 HD
BRANCH   6   1
ATOM      1  S   UNL     1      14.100   9.300  18.467  0.00  0.00    +0.061 S 
ATOM      3  O   UNL     1      13.311   8.503  17.549  0.00  0.00    -0.153 OA
ATOM      4  O   UNL     1      14.819  10.467  17.990  0.00  0.00    -0.153 OA
BRANCH   1  17
ATOM      9  N   UNL     1      12.301   7.628  20.170  0.00  0.00    -0.253 NA
ATOM     17  C   UNL     1      13.034   9.849  19.766  0.00  0.00    +0.131 A 
ATOM     19  C   UNL     1      12.251   8.939  20.472  0.00  0.00    +0.097 A 
ATOM     20  C   UNL     1      13.007  11.215  20.053  0.00  0.00    +0.031 A 
ATOM     21  C   UNL     1      11.419   9.436  21.497  0.00  0.00    +0.002 A 
ATOM     23  C   UNL     1      12.185  11.698  21.064  0.00  0.00    +0.003 A 
ATOM     24  C   UNL     1      11.392  10.811  21.786  0.00  0.00    +0.010 A 
ATOM     25  C   UNL     1      10.631   8.521  22.209  0.00  0.00    +0.011 A 
ATOM     26  C   UNL     1      11.525   6.778  20.881  0.00  0.00    +0.111 A 
ATOM     29  C   UNL     1      10.680   7.169  21.899  0.00  0.00    +0.020 A 
ENDBRANCH   1  17
ENDBRANCH   6   1
ENDBRANCH  11   6
TORSDOF 5
ENDMDL
MODEL 5
REMARK VINA RESULT:      -6.8      6.334      9.088
REMARK  Name = 25338464
REMARK  6 active torsions:
REMARK  status: ('A' for Active; 'I' for Inactive)
REMARK    1  A    between atoms: S_1  and  N_6
REMARK    2  A    between atoms: S_1  and  C_17
REMARK    3  A    between atoms: N_5  and  C_16
REMARK    4  A    between atoms: N_6  and  C_11
REMARK    5  A    between atoms: C_12  and  C_15
REMARK    6  A    between atoms: C_18  and  C_22
REMARK                            x       y       z     vdW  Elec       q    Type
REMARK                         _______ _______ _______ _____ _____    ______ ____
ROOT
ATOM      5  N   UNL     1      14.230  12.331  16.002  0.00  0.00    -0.293 NA
ATOM     11  C   UNL     1      14.143  10.157  16.836  0.00  0.00    +0.092 C 
ATOM     12  C   UNL     1      14.556  11.493  14.833  0.00  0.00    +0.147 C 
ATOM     13  C   UNL     1      14.354  10.047  15.326  0.00  0.00    +0.050 C 
ATOM     14  C   UNL     1      14.634  11.555  17.179  0.00  0.00    +0.105 C 
ATOM     16  C   UNL     1      14.873  13.640  15.967  0.00  0.00    +0.105 C 
ENDROOT
BRANCH  12  15
ATOM      2  O   UNL     1      14.390  11.908  12.431  0.00  0.00    -0.336 OA
ATOM      7  N   UNL     1      12.433  12.014  13.514  0.00  0.00    -0.190 NA
ATOM      8  N   UNL     1      13.424  12.205  11.462  0.00  0.00    -0.056 NA
ATOM     15  C   UNL     1      13.722  11.811  13.610  0.00  0.00    +0.245 A 
ATOM     18  C   UNL     1      12.296  12.251  12.177  0.00  0.00    +0.202 A 
BRANCH  18  22
ATOM     10  N   UNL     1       8.529  13.074  10.440  0.00  0.00    -0.263 NA
ATOM     22  C   UNL     1      11.019  12.530  11.588  0.00  0.00    +0.025 A 
ATOM     27  C   UNL     1       9.868  11.951  12.111  0.00  0.00    +0.031 A 
ATOM     28  C   UNL     1      10.927  13.380  10.492  0.00  0.00    +0.031 A 
ATOM     30  C   UNL     1       8.658  12.252  11.506  0.00  0.00    +0.111 A 
ATOM     31  C   UNL     1       9.670  13.618   9.959  0.00  0.00    +0.111 A 
ENDBRANCH  18  22
ENDBRANCH  12  15
BRANCH  11   6
ATOM      6  N   UNL     1      12.754   9.985  17.192  0.00  0.00    -0.186 NA
ATOM     32  H   UNL     1      12.224  10.816  17.484  0.00  0.00    +0.148 HD
BRANCH   6   1
ATOM      1  S   UNL     1      12.146   8.431  17.495  0.00  0.00    +0.061 S 
ATOM      3  O   UNL     1      13.089   7.440  17.013  0.00  0.00    -0.153 OA
ATOM      4  O   UNL     1      10.759   8.383  17.074  0.00  0.00    -0.153 OA
BRANCH   1  17
ATOM      9  N   UNL     1      14.493   7.989  19.292  0.00  0.00    -0.253 NA
ATOM     17  C   UNL     1      12.152   8.373  19.261  0.00  0.00    +0.131 A 
ATOM     19  C   UNL     1      13.337   8.157  19.960  0.00  0.00    +0.097 A 
ATOM     20  C   UNL     1      10.935   8.551  19.922  0.00  0.00    +0.031 A 
ATOM     21  C   UNL     1      13.279   8.120  21.369  0.00  0.00    +0.002 A 
ATOM     23  C   UNL     1      10.885   8.514  21.310  0.00  0.00    +0.003 A 
ATOM     24  C   UNL     1      12.054   8.299  22.034  0.00  0.00    +0.010 A 
ATOM     25  C   UNL     1      14.471   7.903  22.073  0.00  0.00    +0.011 A 
ATOM     26  C   UNL     1      15.622   7.781  20.009  0.00  0.00    +0.111 A 
ATOM     29  C   UNL     1      15.665   7.729  21.387  0.00  0.00    +0.020 A 
ENDBRANCH   1  17
ENDBRANCH   6   1
ENDBRANCH  11   6
TORSDOF 5
ENDMDL
MODEL 6
REMARK VINA RESULT:      -6.8     27.949     30.127
REMARK  Name = 25338464
REMARK  6 active torsions:
REMARK  status: ('A' for Active; 'I' for Inactive)
REMARK    1  A    between atoms: S_1  and  N_6
REMARK    2  A    between atoms: S_1  and  C_17
REMARK    3  A    between atoms: N_5  and  C_16
REMARK    4  A    between atoms: N_6  and  C_11
REMARK    5  A    between atoms: C_12  and  C_15
REMARK    6  A    between atoms: C_18  and  C_22
REMARK                            x       y       z     vdW  Elec       q    Type
REMARK                         _______ _______ _______ _____ _____    ______ ____
ROOT
ATOM      5  N   UNL     1      -5.669 -12.095  16.836  0.00  0.00    -0.293 NA
ATOM     11  C   UNL     1      -3.859 -10.763  16.217  0.00  0.00    +0.092 C 
ATOM     12  C   UNL     1      -5.844 -10.869  17.638  0.00  0.00    +0.147 C 
ATOM     13  C   UNL     1      -4.743  -9.916  17.131  0.00  0.00    +0.050 C 
ATOM     14  C   UNL     1      -4.231 -12.196  16.565  0.00  0.00    +0.105 C 
ATOM     16  C   UNL     1      -6.183 -13.290  17.495  0.00  0.00    +0.105 C 
ENDROOT
BRANCH  12  15
ATOM      2  O   UNL     1      -8.124 -10.636  18.483  0.00  0.00    -0.336 OA
ATOM      7  N   UNL     1      -7.705  -9.435  16.640  0.00  0.00    -0.190 NA
ATOM      8  N   UNL     1      -9.314  -9.964  18.176  0.00  0.00    -0.056 NA
ATOM     15  C   UNL     1      -7.228 -10.268  17.530  0.00  0.00    +0.245 A 
ATOM     18  C   UNL     1      -8.987  -9.277  17.078  0.00  0.00    +0.202 A 
BRANCH  18  22
ATOM     10  N   UNL     1     -11.728  -6.763  15.066  0.00  0.00    -0.263 NA
ATOM     22  C   UNL     1      -9.916  -8.425  16.396  0.00  0.00    +0.025 A 
ATOM     27  C   UNL     1     -10.426  -7.297  17.031  0.00  0.00    +0.031 A 
ATOM     28  C   UNL     1     -10.312  -8.721  15.096  0.00  0.00    +0.031 A 
ATOM     30  C   UNL     1     -11.321  -6.506  16.329  0.00  0.00    +0.111 A 
ATOM     31  C   UNL     1     -11.212  -7.866  14.480  0.00  0.00    +0.111 A 
ENDBRANCH  18  22
ENDBRANCH  12  15
BRANCH  11   6
ATOM      6  N   UNL     1      -4.108 -10.478  14.824  0.00  0.00    -0.186 NA
ATOM     32  H   UNL     1      -4.925  -9.902  14.587  0.00  0.00    +0.148 HD
BRANCH   6   1
ATOM      1  S   UNL     1      -3.320 -11.382  13.624  0.00  0.00    +0.061 S 
ATOM      3  O   UNL     1      -4.004 -12.648  13.443  0.00  0.00    -0.153 OA
ATOM      4  O   UNL     1      -1.892 -11.354  13.882  0.00  0.00    -0.153 OA
BRANCH   1  17
ATOM      9  N   UNL     1      -5.940 -10.390  12.585  0.00  0.00    -0.253 NA
ATOM     17  C   UNL     1      -3.602 -10.400  12.182  0.00  0.00    +0.131 A 
ATOM     19  C   UNL     1      -4.892 -10.015  11.827  0.00  0.00    +0.097 A 
ATOM     20  C   UNL     1      -2.492 -10.029  11.419  0.00  0.00    +0.031 A 
ATOM     21  C   UNL     1      -5.056  -9.232  10.666  0.00  0.00    +0.002 A 
ATOM     23  C   UNL     1      -2.660  -9.258  10.276  0.00  0.00    +0.003 A 
ATOM     24  C   UNL     1      -3.939  -8.859   9.898  0.00  0.00    +0.010 A 
ATOM     25  C   UNL     1      -6.354  -8.845  10.308  0.00  0.00    +0.011 A 
ATOM     26  C   UNL     1      -7.178  -9.995  12.205  0.00  0.00    +0.111 A 
ATOM     29  C   UNL     1      -7.437  -9.230  11.087  0.00  0.00    +0.020 A 
ENDBRANCH   1  17
ENDBRANCH   6   1
ENDBRANCH  11   6
TORSDOF 5
ENDMDL
MODEL 7
REMARK VINA RESULT:      -6.8     27.503     29.928
REMARK  Name = 25338464
REMARK  6 active torsions:
REMARK  status: ('A' for Active; 'I' for Inactive)
REMARK    1  A    between atoms: S_1  and  N_6
REMARK    2  A    between atoms: S_1  and  C_17
REMARK    3  A    between atoms: N_5  and  C_16
REMARK    4  A    between atoms: N_6  and  C_11
REMARK    5  A    between atoms: C_12  and  C_15
REMARK    6  A    between atoms: C_18  and  C_22
REMARK                            x       y       z     vdW  Elec       q    Type
REMARK                         _______ _______ _______ _____ _____    ______ ____
ROOT
ATOM      5  N   UNL     1      -5.963 -11.674  18.424  0.00  0.00    -0.293 NA
ATOM     11  C   UNL     1      -3.926 -11.204  17.393  0.00  0.00    +0.092 C 
ATOM     12  C   UNL     1      -6.106 -10.273  17.986  0.00  0.00    +0.147 C 
ATOM     13  C   UNL     1      -4.829  -9.992  17.169  0.00  0.00    +0.050 C 
ATOM     14  C   UNL     1      -4.525 -11.893  18.610  0.00  0.00    +0.105 C 
ATOM     16  C   UNL     1      -6.721 -11.977  19.633  0.00  0.00    +0.105 C 
ENDROOT
BRANCH  12  15
ATOM      2  O   UNL     1      -7.795 -11.017  16.385  0.00  0.00    -0.336 OA
ATOM      7  N   UNL     1      -8.130  -8.947  17.172  0.00  0.00    -0.190 NA
ATOM      8  N   UNL     1      -8.962 -10.549  15.768  0.00  0.00    -0.056 NA
ATOM     15  C   UNL     1      -7.370 -10.012  17.196  0.00  0.00    +0.245 A 
ATOM     18  C   UNL     1      -9.094  -9.323  16.282  0.00  0.00    +0.202 A 
BRANCH  18  22
ATOM     10  N   UNL     1     -12.285  -6.749  15.244  0.00  0.00    -0.263 NA
ATOM     22  C   UNL     1     -10.176  -8.451  15.930  0.00  0.00    +0.025 A 
ATOM     27  C   UNL     1     -11.265  -8.941  15.219  0.00  0.00    +0.031 A 
ATOM     28  C   UNL     1     -10.140  -7.110  16.299  0.00  0.00    +0.031 A 
ATOM     30  C   UNL     1     -12.285  -8.057  14.902  0.00  0.00    +0.111 A 
ATOM     31  C   UNL     1     -11.210  -6.308  15.935  0.00  0.00    +0.111 A 
ENDBRANCH  18  22
ENDBRANCH  12  15
BRANCH  11   6
ATOM      6  N   UNL     1      -3.917 -12.080  16.245  0.00  0.00    -0.186 NA
ATOM     32  H   UNL     1      -4.363 -13.000  16.337  0.00  0.00    +0.148 HD
BRANCH   6   1
ATOM      1  S   UNL     1      -2.874 -11.757  14.947  0.00  0.00    +0.061 S 
ATOM      3  O   UNL     1      -2.331 -13.003  14.441  0.00  0.00    -0.153 OA
ATOM      4  O   UNL     1      -1.987 -10.672  15.320  0.00  0.00    -0.153 OA
BRANCH   1  17
ATOM      9  N   UNL     1      -2.179 -10.321  12.420  0.00  0.00    -0.253 NA
ATOM     17  C   UNL     1      -3.988 -11.118  13.733  0.00  0.00    +0.131 A 
ATOM     19  C   UNL     1      -3.506 -10.468  12.600  0.00  0.00    +0.097 A 
ATOM     20  C   UNL     1      -5.357 -11.287  13.952  0.00  0.00    +0.031 A 
ATOM     21  C   UNL     1      -4.442  -9.978  11.666  0.00  0.00    +0.002 A 
ATOM     23  C   UNL     1      -6.275 -10.802  13.028  0.00  0.00    +0.003 A 
ATOM     24  C   UNL     1      -5.820 -10.149  11.887  0.00  0.00    +0.010 A 
ATOM     25  C   UNL     1      -3.957  -9.324  10.526  0.00  0.00    +0.011 A 
ATOM     26  C   UNL     1      -1.752  -9.684  11.305  0.00  0.00    +0.111 A 
ATOM     29  C   UNL     1      -2.591  -9.170  10.337  0.00  0.00    +0.020 A 
ENDBRANCH   1  17
ENDBRANCH   6   1
ENDBRANCH  11   6
TORSDOF 5
ENDMDL
MODEL 8
REMARK VINA RESULT:      -6.7     27.714     30.121
REMARK  Name = 25338464
REMARK  6 active torsions:
REMARK  status: ('A' for Active; 'I' for Inactive)
REMARK    1  A    between atoms: S_1  and  N_6
REMARK    2  A    between atoms: S_1  and  C_17
REMARK    3  A    between atoms: N_5  and  C_16
REMARK    4  A    between atoms: N_6  and  C_11
REMARK    5  A    between atoms: C_12  and  C_15
REMARK    6  A    between atoms: C_18  and  C_22
REMARK                            x       y       z     vdW  Elec       q    Type
REMARK                         _______ _______ _______ _____ _____    ______ ____
ROOT
ATOM      5  N   UNL     1      -4.680 -12.401  15.669  0.00  0.00    -0.293 NA
ATOM     11  C   UNL     1      -2.873 -11.015  15.172  0.00  0.00    +0.092 C 
ATOM     12  C   UNL     1      -4.628 -11.468  16.811  0.00  0.00    +0.147 C 
ATOM     13  C   UNL     1      -3.536 -10.450  16.428  0.00  0.00    +0.050 C 
ATOM     14  C   UNL     1      -3.312 -12.471  15.144  0.00  0.00    +0.105 C 
ATOM     16  C   UNL     1      -5.193 -13.718  16.027  0.00  0.00    +0.105 C 
ENDROOT
BRANCH  12  15
ATOM      2  O   UNL     1      -6.178  -9.600  16.538  0.00  0.00    -0.336 OA
ATOM      7  N   UNL     1      -6.942 -11.235  17.863  0.00  0.00    -0.190 NA
ATOM      8  N   UNL     1      -7.451  -9.197  16.961  0.00  0.00    -0.056 NA
ATOM     15  C   UNL     1      -5.956 -10.810  17.115  0.00  0.00    +0.245 A 
ATOM     18  C   UNL     1      -7.836 -10.213  17.738  0.00  0.00    +0.202 A 
BRANCH  18  22
ATOM     10  N   UNL     1     -11.584 -10.286  19.697  0.00  0.00    -0.263 NA
ATOM     22  C   UNL     1      -9.107 -10.238  18.402  0.00  0.00    +0.025 A 
ATOM     27  C   UNL     1     -10.165  -9.479  17.914  0.00  0.00    +0.031 A 
ATOM     28  C   UNL     1      -9.286 -11.021  19.537  0.00  0.00    +0.031 A 
ATOM     30  C   UNL     1     -11.372  -9.537  18.592  0.00  0.00    +0.111 A 
ATOM     31  C   UNL     1     -10.533 -11.011  20.143  0.00  0.00    +0.111 A 
ENDBRANCH  18  22
ENDBRANCH  12  15
BRANCH  11   6
ATOM      6  N   UNL     1      -3.300 -10.315  13.984  0.00  0.00    -0.186 NA
ATOM     32  H   UNL     1      -4.158  -9.753  14.037  0.00  0.00    +0.148 HD
BRANCH   6   1
ATOM      1  S   UNL     1      -2.633 -10.722  12.479  0.00  0.00    +0.061 S 
ATOM      3  O   UNL     1      -2.728 -12.156  12.279  0.00  0.00    -0.153 OA
ATOM      4  O   UNL     1      -1.356 -10.048  12.337  0.00  0.00    -0.153 OA
BRANCH   1  17
ATOM      9  N   UNL     1      -5.582 -10.371  12.810  0.00  0.00    -0.253 NA
ATOM     17  C   UNL     1      -3.755  -9.942  11.358  0.00  0.00    +0.131 A 
ATOM     19  C   UNL     1      -5.112  -9.857  11.658  0.00  0.00    +0.097 A 
ATOM     20  C   UNL     1      -3.233  -9.419  10.173  0.00  0.00    +0.031 A 
ATOM     21  C   UNL     1      -5.959  -9.223  10.725  0.00  0.00    +0.002 A 
ATOM     23  C   UNL     1      -4.073  -8.796   9.258  0.00  0.00    +0.003 A 
ATOM     24  C   UNL     1      -5.434  -8.697   9.532  0.00  0.00    +0.010 A 
ATOM     25  C   UNL     1      -7.325  -9.137  11.026  0.00  0.00    +0.011 A 
ATOM     26  C   UNL     1      -6.907 -10.267  13.063  0.00  0.00    +0.111 A 
ATOM     29  C   UNL     1      -7.813  -9.667  12.212  0.00  0.00    +0.020 A 
ENDBRANCH   1  17
ENDBRANCH   6   1
ENDBRANCH  11   6
TORSDOF 5
ENDMDL
MODEL 9
REMARK VINA RESULT:      -6.7     27.455     30.215
REMARK  Name = 25338464
REMARK  6 active torsions:
REMARK  status: ('A' for Active; 'I' for Inactive)
REMARK    1  A    between atoms: S_1  and  N_6
REMARK    2  A    between atoms: S_1  and  C_17
REMARK    3  A    between atoms: N_5  and  C_16
REMARK    4  A    between atoms: N_6  and  C_11
REMARK    5  A    between atoms: C_12  and  C_15
REMARK    6  A    between atoms: C_18  and  C_22
REMARK                            x       y       z     vdW  Elec       q    Type
REMARK                         _______ _______ _______ _____ _____    ______ ____
ROOT
ATOM      5  N   UNL     1      -9.653 -10.252  15.183  0.00  0.00    -0.293 NA
ATOM     11  C   UNL     1      -9.881 -10.160  17.501  0.00  0.00    +0.092 C 
ATOM     12  C   UNL     1      -8.503  -9.437  15.617  0.00  0.00    +0.147 C 
ATOM     13  C   UNL     1      -8.550  -9.492  17.157  0.00  0.00    +0.050 C 
ATOM     14  C   UNL     1     -10.683 -10.073  16.212  0.00  0.00    +0.105 C 
ATOM     16  C   UNL     1     -10.142  -9.893  13.856  0.00  0.00    +0.105 C 
ENDROOT
BRANCH  12  15
ATOM      2  O   UNL     1      -7.162 -10.245  13.741  0.00  0.00    -0.336 OA
ATOM      7  N   UNL     1      -6.028 -10.061  15.663  0.00  0.00    -0.190 NA
ATOM      8  N   UNL     1      -5.852 -10.651  13.461  0.00  0.00    -0.056 NA
ATOM     15  C   UNL     1      -7.179  -9.914  15.059  0.00  0.00    +0.245 A 
ATOM     18  C   UNL     1      -5.244 -10.515  14.643  0.00  0.00    +0.202 A 
BRANCH  18  22
ATOM     10  N   UNL     1      -1.153 -11.421  15.216  0.00  0.00    -0.263 NA
ATOM     22  C   UNL     1      -3.857 -10.822  14.837  0.00  0.00    +0.025 A 
ATOM     27  C   UNL     1      -3.188 -10.347  15.960  0.00  0.00    +0.031 A 
ATOM     28  C   UNL     1      -3.176 -11.596  13.904  0.00  0.00    +0.031 A 
ATOM     30  C   UNL     1      -1.848 -10.672  16.101  0.00  0.00    +0.111 A 
ATOM     31  C   UNL     1      -1.836 -11.865  14.138  0.00  0.00    +0.111 A 
ENDBRANCH  18  22
ENDBRANCH  12  15
BRANCH  11   6
ATOM      6  N   UNL     1      -9.696 -11.531  17.914  0.00  0.00    -0.186 NA
ATOM     32  H   UNL     1     -10.158 -12.267  17.366  0.00  0.00    +0.148 HD
BRANCH   6   1
ATOM      1  S   UNL     1      -9.078 -11.872  19.456  0.00  0.00    +0.061 S 
ATOM      3  O   UNL     1      -9.508 -13.193  19.870  0.00  0.00    -0.153 OA
ATOM      4  O   UNL     1      -9.310 -10.725  20.315  0.00  0.00    -0.153 OA
BRANCH   1  17
ATOM      9  N   UNL     1      -7.657 -13.537  17.421  0.00  0.00    -0.253 NA
ATOM     17  C   UNL     1      -7.339 -11.938  19.146  0.00  0.00    +0.131 A 
ATOM     19  C   UNL     1      -6.827 -12.772  18.155  0.00  0.00    +0.097 A 
ATOM     20  C   UNL     1      -6.506 -11.132  19.925  0.00  0.00    +0.031 A 
ATOM     21  C   UNL     1      -5.431 -12.784  17.953  0.00  0.00    +0.002 A 
ATOM     23  C   UNL     1      -5.132 -11.148  19.721  0.00  0.00    +0.003 A 
ATOM     24  C   UNL     1      -4.594 -11.972  18.737  0.00  0.00    +0.010 A 
ATOM     25  C   UNL     1      -4.916 -13.623  16.955  0.00  0.00    +0.011 A 
ATOM     26  C   UNL     1      -7.119 -14.333  16.468  0.00  0.00    +0.111 A 
ATOM     29  C   UNL     1      -5.769 -14.413  16.198  0.00  0.00    +0.020 A 
ENDBRANCH   1  17
ENDBRANCH   6   1
ENDBRANCH  11   6
TORSDOF 5
ENDMDL
MODEL 10
REMARK VINA RESULT:      -6.5     26.142     28.543
REMARK  Name = 25338464
REMARK  6 active torsions:
REMARK  status: ('A' for Active; 'I' for Inactive)
REMARK    1  A    between atoms: S_1  and  N_6
REMARK    2  A    between atoms: S_1  and  C_17
REMARK    3  A    between atoms: N_5  and  C_16
REMARK    4  A    between atoms: N_6  and  C_11
REMARK    5  A    between atoms: C_12  and  C_15
REMARK    6  A    between atoms: C_18  and  C_22
REMARK                            x       y       z     vdW  Elec       q    Type
REMARK                         _______ _______ _______ _____ _____    ______ ____
ROOT
ATOM      5  N   UNL     1     -15.560   6.887  14.907  0.00  0.00    -0.293 NA
ATOM     11  C   UNL     1     -13.978   8.567  14.581  0.00  0.00    +0.092 C 
ATOM     12  C   UNL     1     -15.491   7.025  13.440  0.00  0.00    +0.147 C 
ATOM     13  C   UNL     1     -14.341   8.022  13.199  0.00  0.00    +0.050 C 
ATOM     14  C   UNL     1     -15.166   8.191  15.452  0.00  0.00    +0.105 C 
ATOM     16  C   UNL     1     -16.875   6.474  15.384  0.00  0.00    +0.105 C 
ENDROOT
BRANCH  12  15
ATOM      2  O   UNL     1     -14.000   5.264  12.637  0.00  0.00    -0.336 OA
ATOM      7  N   UNL     1     -16.160   4.925  12.152  0.00  0.00    -0.190 NA
ATOM      8  N   UNL     1     -14.057   4.052  11.937  0.00  0.00    -0.056 NA
ATOM     15  C   UNL     1     -15.281   5.710  12.720  0.00  0.00    +0.245 A 
ATOM     18  C   UNL     1     -15.363   3.920  11.686  0.00  0.00    +0.202 A 
BRANCH  18  22
ATOM     10  N   UNL     1     -16.955   0.612   9.587  0.00  0.00    -0.263 NA
ATOM     22  C   UNL     1     -15.903   2.799  10.974  0.00  0.00    +0.025 A 
ATOM     27  C   UNL     1     -15.288   2.349   9.811  0.00  0.00    +0.031 A 
ATOM     28  C   UNL     1     -17.043   2.157  11.444  0.00  0.00    +0.031 A 
ATOM     30  C   UNL     1     -15.849   1.262   9.160  0.00  0.00    +0.111 A 
ATOM     31  C   UNL     1     -17.525   1.078  10.720  0.00  0.00    +0.111 A 
ENDBRANCH  18  22
ENDBRANCH  12  15
BRANCH  11   6
ATOM      6  N   UNL     1     -12.755   7.983  15.078  0.00  0.00    -0.186 NA
ATOM     32  H   UNL     1     -12.819   7.325  15.865  0.00  0.00    +0.148 HD
BRANCH   6   1
ATOM      1  S   UNL     1     -11.260   8.656  14.643  0.00  0.00    +0.061 S 
ATOM      3  O   UNL     1     -11.445   9.567  13.529  0.00  0.00    -0.153 OA
ATOM      4  O   UNL     1     -10.276   7.593  14.561  0.00  0.00    -0.153 OA
BRANCH   1  17
ATOM      9  N   UNL     1     -11.375   7.795  17.502  0.00  0.00    -0.253 NA
ATOM     17  C   UNL     1     -10.863   9.618  16.071  0.00  0.00    +0.131 A 
ATOM     19  C   UNL     1     -10.968   9.069  17.347  0.00  0.00    +0.097 A 
ATOM     20  C   UNL     1     -10.444  10.935  15.874  0.00  0.00    +0.031 A 
ATOM     21  C   UNL     1     -10.637   9.885  18.449  0.00  0.00    +0.002 A 
ATOM     23  C   UNL     1     -10.120  11.733  16.964  0.00  0.00    +0.003 A 
ATOM     24  C   UNL     1     -10.216  11.211  18.250  0.00  0.00    +0.010 A 
ATOM     25  C   UNL     1     -10.743   9.333  19.734  0.00  0.00    +0.011 A 
ATOM     26  C   UNL     1     -11.463   7.301  18.759  0.00  0.00    +0.111 A 
ATOM     29  C   UNL     1     -11.163   8.021  19.897  0.00  0.00    +0.020 A 
ENDBRANCH   1  17
ENDBRANCH   6   1
ENDBRANCH  11   6
TORSDOF 5
ENDMDL
