MODEL 1
REMARK VINA RESULT:      -7.9      0.000      0.000
REMARK  Name = 26744940
REMARK  8 active torsions:
REMARK  status: ('A' for Active; 'I' for Inactive)
REMARK    1  A    between atoms: O_3  and  C_24
REMARK    2  A    between atoms: O_4  and  C_29
REMARK    3  A    between atoms: O_4  and  C_30
REMARK    4  A    between atoms: N_5  and  C_15
REMARK    5  A    between atoms: C_10  and  C_16
REMARK    6  A    between atoms: C_15  and  C_17
REMARK    7  A    between atoms: C_20  and  C_23
REMARK    8  A    between atoms: C_21  and  C_24
REMARK                            x       y       z     vdW  Elec       q    Type
REMARK                         _______ _______ _______ _____ _____    ______ ____
ROOT
ATOM      5  N   UNL     1      13.874   8.873  19.556  0.00  0.00    -0.278 NA
ATOM      6  N   UNL     1      14.685  11.003  16.611  0.00  0.00    -0.347 N 
ATOM      7  N   UNL     1      14.025   9.230  15.419  0.00  0.00    -0.240 NA
ATOM     10  C   UNL     1      14.092   7.563  18.871  0.00  0.00    +0.152 C 
ATOM     11  C   UNL     1      13.681   7.625  17.356  0.00  0.00    +0.086 C 
ATOM     12  C   UNL     1      14.601  10.021  18.974  0.00  0.00    +0.140 C 
ATOM     13  C   UNL     1      14.445  10.004  17.504  0.00  0.00    +0.053 A 
ATOM     14  C   UNL     1      14.047   8.928  16.751  0.00  0.00    +0.065 A 
ATOM     18  C   UNL     1      14.418  10.488  15.367  0.00  0.00    +0.197 A 
ATOM     31  H   UNL     1      15.004  11.940  16.818  0.00  0.00    +0.167 HD
ENDROOT
BRANCH  10  16
ATOM      1  O   UNL     1      15.877   6.030  18.162  0.00  0.00    -0.336 OA
ATOM      8  N   UNL     1      16.317   7.115  20.072  0.00  0.00    -0.190 NA
ATOM      9  N   UNL     1      17.141   5.590  18.577  0.00  0.00    -0.056 NA
ATOM     16  C   UNL     1      15.465   6.926  19.096  0.00  0.00    +0.245 A 
ATOM     20  C   UNL     1      17.330   6.274  19.710  0.00  0.00    +0.202 A 
BRANCH  20  23
ATOM     23  C   UNL     1      18.518   6.142  20.502  0.00  0.00    +0.023 A 
ATOM     25  C   UNL     1      18.676   6.909  21.656  0.00  0.00    +0.015 A 
ATOM     26  C   UNL     1      19.516   5.247  20.117  0.00  0.00    +0.015 A 
ATOM     27  C   UNL     1      19.832   6.780  22.426  0.00  0.00    +0.046 A 
ATOM     28  C   UNL     1      20.672   5.118  20.886  0.00  0.00    +0.046 A 
ATOM     29  C   UNL     1      20.830   5.885  22.041  0.00  0.00    +0.120 A 
BRANCH  29   4
ATOM      4  O   UNL     1      21.958   5.759  22.791  0.00  0.00    -0.495 OA
ATOM     30  C   UNL     1      22.487   4.443  22.953  0.00  0.00    +0.277 C 
ENDBRANCH  29   4
ENDBRANCH  20  23
ENDBRANCH  10  16
BRANCH   5  15
ATOM     15  C   UNL     1      14.031   8.820  21.006  0.00  0.00    +0.160 C 
BRANCH  15  17
ATOM      2  O   UNL     1      12.582  10.049  22.526  0.00  0.00    -0.461 OA
ATOM     17  C   UNL     1      12.712   8.965  21.717  0.00  0.00    +0.119 A 
ATOM     19  C   UNL     1      11.561   8.213  21.728  0.00  0.00    +0.046 A 
ATOM     21  C   UNL     1      11.334   9.987  23.060  0.00  0.00    +0.131 A 
ATOM     22  C   UNL     1      10.666   8.876  22.601  0.00  0.00    +0.047 A 
BRANCH  21  24
ATOM     24  C   UNL     1      10.966  11.074  23.981  0.00  0.00    +0.230 C 
BRANCH  24   3
ATOM      3  O   UNL     1      11.315  10.723  25.322  0.00  0.00    -0.387 OA
ATOM     32  H   UNL     1      10.481  10.588  25.804  0.00  0.00    +0.210 HD
ENDBRANCH  24   3
ENDBRANCH  21  24
ENDBRANCH  15  17
ENDBRANCH   5  15
TORSDOF 7
ENDMDL
MODEL 2
REMARK VINA RESULT:      -7.8      2.520      7.775
REMARK  Name = 26744940
REMARK  8 active torsions:
REMARK  status: ('A' for Active; 'I' for Inactive)
REMARK    1  A    between atoms: O_3  and  C_24
REMARK    2  A    between atoms: O_4  and  C_29
REMARK    3  A    between atoms: O_4  and  C_30
REMARK    4  A    between atoms: N_5  and  C_15
REMARK    5  A    between atoms: C_10  and  C_16
REMARK    6  A    between atoms: C_15  and  C_17
REMARK    7  A    between atoms: C_20  and  C_23
REMARK    8  A    between atoms: C_21  and  C_24
REMARK                            x       y       z     vdW  Elec       q    Type
REMARK                         _______ _______ _______ _____ _____    ______ ____
ROOT
ATOM      5  N   UNL     1      13.879   7.470  18.888  0.00  0.00    -0.278 NA
ATOM      6  N   UNL     1      10.755   7.970  16.924  0.00  0.00    -0.347 N 
ATOM      7  N   UNL     1      11.926   9.558  15.872  0.00  0.00    -0.240 NA
ATOM     10  C   UNL     1      14.398   8.861  18.718  0.00  0.00    +0.152 C 
ATOM     11  C   UNL     1      14.010   9.459  17.319  0.00  0.00    +0.086 C 
ATOM     12  C   UNL     1      12.413   7.322  18.764  0.00  0.00    +0.140 C 
ATOM     13  C   UNL     1      11.946   8.068  17.576  0.00  0.00    +0.053 A 
ATOM     14  C   UNL     1      12.644   9.049  16.917  0.00  0.00    +0.065 A 
ATOM     18  C   UNL     1      10.790   8.889  15.905  0.00  0.00    +0.197 A 
ATOM     31  H   UNL     1       9.988   7.349  17.146  0.00  0.00    +0.167 HD
ENDROOT
BRANCH  10  16
ATOM      1  O   UNL     1      15.151  10.086  20.711  0.00  0.00    -0.336 OA
ATOM      8  N   UNL     1      12.994  10.415  20.204  0.00  0.00    -0.190 NA
ATOM      9  N   UNL     1      14.653  10.965  21.681  0.00  0.00    -0.056 NA
ATOM     16  C   UNL     1      14.110   9.814  19.881  0.00  0.00    +0.245 A 
ATOM     20  C   UNL     1      13.376  11.110  21.315  0.00  0.00    +0.202 A 
BRANCH  20  23
ATOM     23  C   UNL     1      12.455  11.942  22.036  0.00  0.00    +0.023 A 
ATOM     25  C   UNL     1      12.468  11.952  23.430  0.00  0.00    +0.015 A 
ATOM     26  C   UNL     1      11.548  12.741  21.340  0.00  0.00    +0.015 A 
ATOM     27  C   UNL     1      11.573  12.761  24.129  0.00  0.00    +0.046 A 
ATOM     28  C   UNL     1      10.652  13.549  22.040  0.00  0.00    +0.046 A 
ATOM     29  C   UNL     1      10.665  13.559  23.435  0.00  0.00    +0.120 A 
BRANCH  29   4
ATOM      4  O   UNL     1       9.791  14.349  24.117  0.00  0.00    -0.495 OA
ATOM     30  C   UNL     1       9.032  15.287  23.355  0.00  0.00    +0.277 C 
ENDBRANCH  29   4
ENDBRANCH  20  23
ENDBRANCH  10  16
BRANCH   5  15
ATOM     15  C   UNL     1      14.386   6.785  20.072  0.00  0.00    +0.160 C 
BRANCH  15  17
ATOM      2  O   UNL     1      16.610   7.080  21.017  0.00  0.00    -0.461 OA
ATOM     17  C   UNL     1      15.874   6.566  19.997  0.00  0.00    +0.119 A 
ATOM     19  C   UNL     1      16.688   5.934  19.086  0.00  0.00    +0.046 A 
ATOM     21  C   UNL     1      17.907   6.773  20.754  0.00  0.00    +0.131 A 
ATOM     22  C   UNL     1      18.008   6.069  19.577  0.00  0.00    +0.047 A 
BRANCH  21  24
ATOM     24  C   UNL     1      18.896   7.236  21.739  0.00  0.00    +0.230 C 
BRANCH  24   3
ATOM      3  O   UNL     1      18.415   8.401  22.412  0.00  0.00    -0.387 OA
ATOM     32  H   UNL     1      18.838   9.167  21.987  0.00  0.00    +0.210 HD
ENDBRANCH  24   3
ENDBRANCH  21  24
ENDBRANCH  15  17
ENDBRANCH   5  15
TORSDOF 7
ENDMDL
MODEL 3
REMARK VINA RESULT:      -7.7      1.606      2.134
REMARK  Name = 26744940
REMARK  8 active torsions:
REMARK  status: ('A' for Active; 'I' for Inactive)
REMARK    1  A    between atoms: O_3  and  C_24
REMARK    2  A    between atoms: O_4  and  C_29
REMARK    3  A    between atoms: O_4  and  C_30
REMARK    4  A    between atoms: N_5  and  C_15
REMARK    5  A    between atoms: C_10  and  C_16
REMARK    6  A    between atoms: C_15  and  C_17
REMARK    7  A    between atoms: C_20  and  C_23
REMARK    8  A    between atoms: C_21  and  C_24
REMARK                            x       y       z     vdW  Elec       q    Type
REMARK                         _______ _______ _______ _____ _____    ______ ____
ROOT
ATOM      5  N   UNL     1      13.478   8.894  20.788  0.00  0.00    -0.278 NA
ATOM      6  N   UNL     1      12.453   9.820  17.330  0.00  0.00    -0.347 N 
ATOM      7  N   UNL     1      11.648   7.736  17.241  0.00  0.00    -0.240 NA
ATOM     10  C   UNL     1      13.587   7.425  20.534  0.00  0.00    +0.152 C 
ATOM     11  C   UNL     1      12.524   6.937  19.487  0.00  0.00    +0.086 C 
ATOM     12  C   UNL     1      13.639   9.756  19.598  0.00  0.00    +0.140 C 
ATOM     13  C   UNL     1      12.832   9.210  18.486  0.00  0.00    +0.053 A 
ATOM     14  C   UNL     1      12.332   7.934  18.407  0.00  0.00    +0.065 A 
ATOM     18  C   UNL     1      11.742   8.891  16.612  0.00  0.00    +0.197 A 
ATOM     31  H   UNL     1      12.658  10.769  17.047  0.00  0.00    +0.167 HD
ENDROOT
BRANCH  10  16
ATOM      1  O   UNL     1      15.201   6.363  19.016  0.00  0.00    -0.336 OA
ATOM      8  N   UNL     1      16.061   6.927  21.006  0.00  0.00    -0.190 NA
ATOM      9  N   UNL     1      16.547   5.975  18.983  0.00  0.00    -0.056 NA
ATOM     16  C   UNL     1      14.999   6.915  20.242  0.00  0.00    +0.245 A 
ATOM     20  C   UNL     1      16.986   6.341  20.191  0.00  0.00    +0.202 A 
BRANCH  20  23
ATOM     23  C   UNL     1      18.341   6.135  20.614  0.00  0.00    +0.023 A 
ATOM     25  C   UNL     1      19.139   5.192  19.967  0.00  0.00    +0.015 A 
ATOM     26  C   UNL     1      18.860   6.879  21.674  0.00  0.00    +0.015 A 
ATOM     27  C   UNL     1      20.456   4.993  20.380  0.00  0.00    +0.046 A 
ATOM     28  C   UNL     1      20.177   6.679  22.088  0.00  0.00    +0.046 A 
ATOM     29  C   UNL     1      20.975   5.735  21.440  0.00  0.00    +0.120 A 
BRANCH  29   4
ATOM      4  O   UNL     1      22.260   5.542  21.843  0.00  0.00    -0.495 OA
ATOM     30  C   UNL     1      22.475   4.613  22.906  0.00  0.00    +0.277 C 
ENDBRANCH  29   4
ENDBRANCH  20  23
ENDBRANCH  10  16
BRANCH   5  15
ATOM     15  C   UNL     1      14.289   9.368  21.905  0.00  0.00    +0.160 C 
BRANCH  15  17
ATOM      2  O   UNL     1      12.514  10.511  23.116  0.00  0.00    -0.461 OA
ATOM     17  C   UNL     1      13.726  10.626  22.511  0.00  0.00    +0.119 A 
ATOM     19  C   UNL     1      14.186  11.919  22.593  0.00  0.00    +0.046 A 
ATOM     21  C   UNL     1      12.198  11.745  23.588  0.00  0.00    +0.131 A 
ATOM     22  C   UNL     1      13.194  12.646  23.292  0.00  0.00    +0.047 A 
BRANCH  21  24
ATOM     24  C   UNL     1      10.911  11.862  24.290  0.00  0.00    +0.230 C 
BRANCH  24   3
ATOM      3  O   UNL     1      11.063  11.497  25.664  0.00  0.00    -0.387 OA
ATOM     32  H   UNL     1      11.205  10.535  25.686  0.00  0.00    +0.210 HD
ENDBRANCH  24   3
ENDBRANCH  21  24
ENDBRANCH  15  17
ENDBRANCH   5  15
TORSDOF 7
ENDMDL
MODEL 4
REMARK VINA RESULT:      -7.4      2.664      6.815
REMARK  Name = 26744940
REMARK  8 active torsions:
REMARK  status: ('A' for Active; 'I' for Inactive)
REMARK    1  A    between atoms: O_3  and  C_24
REMARK    2  A    between atoms: O_4  and  C_29
REMARK    3  A    between atoms: O_4  and  C_30
REMARK    4  A    between atoms: N_5  and  C_15
REMARK    5  A    between atoms: C_10  and  C_16
REMARK    6  A    between atoms: C_15  and  C_17
REMARK    7  A    between atoms: C_20  and  C_23
REMARK    8  A    between atoms: C_21  and  C_24
REMARK                            x       y       z     vdW  Elec       q    Type
REMARK                         _______ _______ _______ _____ _____    ______ ____
ROOT
ATOM      5  N   UNL     1      13.815   7.616  19.040  0.00  0.00    -0.278 NA
ATOM      6  N   UNL     1      10.814   7.840  16.846  0.00  0.00    -0.347 N 
ATOM      7  N   UNL     1      11.795   9.688  16.057  0.00  0.00    -0.240 NA
ATOM     10  C   UNL     1      14.117   9.080  19.047  0.00  0.00    +0.152 C 
ATOM     11  C   UNL     1      13.749   9.755  17.678  0.00  0.00    +0.086 C 
ATOM     12  C   UNL     1      12.406   7.261  18.766  0.00  0.00    +0.140 C 
ATOM     13  C   UNL     1      11.920   8.048  17.612  0.00  0.00    +0.053 A 
ATOM     14  C   UNL     1      12.501   9.187  17.114  0.00  0.00    +0.065 A 
ATOM     18  C   UNL     1      10.782   8.855  15.922  0.00  0.00    +0.197 A 
ATOM     31  H   UNL     1      10.142   7.090  16.938  0.00  0.00    +0.167 HD
ENDROOT
BRANCH  10  16
ATOM      1  O   UNL     1      12.334  10.357  20.155  0.00  0.00    -0.336 OA
ATOM      8  N   UNL     1      14.178  10.103  21.401  0.00  0.00    -0.190 NA
ATOM      9  N   UNL     1      12.077  11.010  21.367  0.00  0.00    -0.056 NA
ATOM     16  C   UNL     1      13.591   9.851  20.259  0.00  0.00    +0.245 A 
ATOM     20  C   UNL     1      13.211  10.817  22.048  0.00  0.00    +0.202 A 
BRANCH  20  23
ATOM     23  C   UNL     1      13.409  11.322  23.376  0.00  0.00    +0.023 A 
ATOM     25  C   UNL     1      12.338  11.870  24.081  0.00  0.00    +0.015 A 
ATOM     26  C   UNL     1      14.674  11.264  23.961  0.00  0.00    +0.015 A 
ATOM     27  C   UNL     1      12.533  12.361  25.372  0.00  0.00    +0.046 A 
ATOM     28  C   UNL     1      14.868  11.755  25.252  0.00  0.00    +0.046 A 
ATOM     29  C   UNL     1      13.797  12.304  25.957  0.00  0.00    +0.120 A 
BRANCH  29   4
ATOM      4  O   UNL     1      13.987  12.783  27.217  0.00  0.00    -0.495 OA
ATOM     30  C   UNL     1      15.136  12.317  27.923  0.00  0.00    +0.277 C 
ENDBRANCH  29   4
ENDBRANCH  20  23
ENDBRANCH  10  16
BRANCH   5  15
ATOM     15  C   UNL     1      14.332   6.895  20.198  0.00  0.00    +0.160 C 
BRANCH  15  17
ATOM      2  O   UNL     1      16.588   6.984  21.105  0.00  0.00    -0.461 OA
ATOM     17  C   UNL     1      15.803   6.603  20.065  0.00  0.00    +0.119 A 
ATOM     19  C   UNL     1      16.559   6.008  19.081  0.00  0.00    +0.046 A 
ATOM     21  C   UNL     1      17.860   6.631  20.782  0.00  0.00    +0.131 A 
ATOM     22  C   UNL     1      17.895   6.027  19.547  0.00  0.00    +0.047 A 
BRANCH  21  24
ATOM     24  C   UNL     1      18.896   6.950  21.776  0.00  0.00    +0.230 C 
BRANCH  24   3
ATOM      3  O   UNL     1      18.546   8.139  22.488  0.00  0.00    -0.387 OA
ATOM     32  H   UNL     1      19.173   8.829  22.210  0.00  0.00    +0.210 HD
ENDBRANCH  24   3
ENDBRANCH  21  24
ENDBRANCH  15  17
ENDBRANCH   5  15
TORSDOF 7
ENDMDL
MODEL 5
REMARK VINA RESULT:      -7.3     26.943     29.305
REMARK  Name = 26744940
REMARK  8 active torsions:
REMARK  status: ('A' for Active; 'I' for Inactive)
REMARK    1  A    between atoms: O_3  and  C_24
REMARK    2  A    between atoms: O_4  and  C_29
REMARK    3  A    between atoms: O_4  and  C_30
REMARK    4  A    between atoms: N_5  and  C_15
REMARK    5  A    between atoms: C_10  and  C_16
REMARK    6  A    between atoms: C_15  and  C_17
REMARK    7  A    between atoms: C_20  and  C_23
REMARK    8  A    between atoms: C_21  and  C_24
REMARK                            x       y       z     vdW  Elec       q    Type
REMARK                         _______ _______ _______ _____ _____    ______ ____
ROOT
ATOM      5  N   UNL     1      -3.135 -12.766  12.064  0.00  0.00    -0.278 NA
ATOM      6  N   UNL     1      -4.809 -10.115  10.055  0.00  0.00    -0.347 N 
ATOM      7  N   UNL     1      -2.873  -9.020  10.285  0.00  0.00    -0.240 NA
ATOM     10  C   UNL     1      -2.188 -11.854  12.774  0.00  0.00    +0.152 C 
ATOM     11  C   UNL     1      -1.741 -10.657  11.862  0.00  0.00    +0.086 C 
ATOM     12  C   UNL     1      -4.377 -12.132  11.572  0.00  0.00    +0.140 C 
ATOM     13  C   UNL     1      -4.040 -10.861  10.894  0.00  0.00    +0.053 A 
ATOM     14  C   UNL     1      -2.862 -10.169  11.024  0.00  0.00    +0.065 A 
ATOM     18  C   UNL     1      -4.062  -9.014   9.715  0.00  0.00    +0.197 A 
ATOM     31  H   UNL     1      -5.749 -10.322   9.745  0.00  0.00    +0.167 HD
ENDROOT
BRANCH  10  16
ATOM      1  O   UNL     1      -1.701 -10.756  14.918  0.00  0.00    -0.336 OA
ATOM      8  N   UNL     1      -3.779 -11.581  14.771  0.00  0.00    -0.190 NA
ATOM      9  N   UNL     1      -2.324 -10.461  16.138  0.00  0.00    -0.056 NA
ATOM     16  C   UNL     1      -2.627 -11.415  14.172  0.00  0.00    +0.245 A 
ATOM     20  C   UNL     1      -3.545 -10.979  15.974  0.00  0.00    +0.202 A 
BRANCH  20  23
ATOM     23  C   UNL     1      -4.555 -10.912  16.991  0.00  0.00    +0.023 A 
ATOM     25  C   UNL     1      -4.344 -11.526  18.225  0.00  0.00    +0.015 A 
ATOM     26  C   UNL     1      -5.747 -10.232  16.744  0.00  0.00    +0.015 A 
ATOM     27  C   UNL     1      -5.327 -11.461  19.213  0.00  0.00    +0.046 A 
ATOM     28  C   UNL     1      -6.730 -10.167  17.732  0.00  0.00    +0.046 A 
ATOM     29  C   UNL     1      -6.519 -10.782  18.967  0.00  0.00    +0.120 A 
BRANCH  29   4
ATOM      4  O   UNL     1      -7.478 -10.718  19.930  0.00  0.00    -0.495 OA
ATOM     30  C   UNL     1      -8.806 -11.078  19.550  0.00  0.00    +0.277 C 
ENDBRANCH  29   4
ENDBRANCH  20  23
ENDBRANCH  10  16
BRANCH   5  15
ATOM     15  C   UNL     1      -3.417 -14.007  12.779  0.00  0.00    +0.160 C 
BRANCH  15  17
ATOM      2  O   UNL     1      -1.965 -15.546  11.575  0.00  0.00    -0.461 OA
ATOM     17  C   UNL     1      -2.236 -14.942  12.762  0.00  0.00    +0.119 A 
ATOM     19  C   UNL     1      -1.333 -15.335  13.722  0.00  0.00    +0.046 A 
ATOM     21  C   UNL     1      -0.877 -16.334  11.781  0.00  0.00    +0.131 A 
ATOM     22  C   UNL     1      -0.451 -16.240  13.085  0.00  0.00    +0.047 A 
BRANCH  21  24
ATOM     24  C   UNL     1      -0.397 -17.095  10.618  0.00  0.00    +0.230 C 
BRANCH  24   3
ATOM      3  O   UNL     1       0.629 -16.365   9.941  0.00  0.00    -0.387 OA
ATOM     32  H   UNL     1       1.395 -16.960   9.865  0.00  0.00    +0.210 HD
ENDBRANCH  24   3
ENDBRANCH  21  24
ENDBRANCH  15  17
ENDBRANCH   5  15
TORSDOF 7
ENDMDL
MODEL 6
REMARK VINA RESULT:      -7.2      2.356      5.381
REMARK  Name = 26744940
REMARK  8 active torsions:
REMARK  status: ('A' for Active; 'I' for Inactive)
REMARK    1  A    between atoms: O_3  and  C_24
REMARK    2  A    between atoms: O_4  and  C_29
REMARK    3  A    between atoms: O_4  and  C_30
REMARK    4  A    between atoms: N_5  and  C_15
REMARK    5  A    between atoms: C_10  and  C_16
REMARK    6  A    between atoms: C_15  and  C_17
REMARK    7  A    between atoms: C_20  and  C_23
REMARK    8  A    between atoms: C_21  and  C_24
REMARK                            x       y       z     vdW  Elec       q    Type
REMARK                         _______ _______ _______ _____ _____    ______ ____
ROOT
ATOM      5  N   UNL     1      13.047   8.310  18.895  0.00  0.00    -0.278 NA
ATOM      6  N   UNL     1      10.450   7.081  21.264  0.00  0.00    -0.347 N 
ATOM      7  N   UNL     1      11.101   8.803  22.534  0.00  0.00    -0.240 NA
ATOM     10  C   UNL     1      13.908   8.964  19.927  0.00  0.00    +0.152 C 
ATOM     11  C   UNL     1      13.053   9.564  21.099  0.00  0.00    +0.086 C 
ATOM     12  C   UNL     1      12.188   7.213  19.389  0.00  0.00    +0.140 C 
ATOM     13  C   UNL     1      11.524   7.638  20.640  0.00  0.00    +0.053 A 
ATOM     14  C   UNL     1      11.908   8.686  21.438  0.00  0.00    +0.065 A 
ATOM     18  C   UNL     1      10.234   7.819  22.402  0.00  0.00    +0.197 A 
ATOM     31  H   UNL     1       9.916   6.278  20.958  0.00  0.00    +0.167 HD
ENDROOT
BRANCH  10  16
ATOM      1  O   UNL     1      14.797   6.977  21.067  0.00  0.00    -0.336 OA
ATOM      8  N   UNL     1      16.377   8.363  20.293  0.00  0.00    -0.190 NA
ATOM      9  N   UNL     1      16.025   6.397  21.409  0.00  0.00    -0.056 NA
ATOM     16  C   UNL     1      15.095   8.130  20.412  0.00  0.00    +0.245 A 
ATOM     20  C   UNL     1      16.908   7.272  20.919  0.00  0.00    +0.202 A 
BRANCH  20  23
ATOM     23  C   UNL     1      18.326   7.087  21.037  0.00  0.00    +0.023 A 
ATOM     25  C   UNL     1      19.090   7.997  21.767  0.00  0.00    +0.015 A 
ATOM     26  C   UNL     1      18.939   5.996  20.421  0.00  0.00    +0.015 A 
ATOM     27  C   UNL     1      20.468   7.817  21.880  0.00  0.00    +0.046 A 
ATOM     28  C   UNL     1      20.317   5.816  20.535  0.00  0.00    +0.046 A 
ATOM     29  C   UNL     1      21.082   6.727  21.265  0.00  0.00    +0.120 A 
BRANCH  29   4
ATOM      4  O   UNL     1      22.427   6.550  21.375  0.00  0.00    -0.495 OA
ATOM     30  C   UNL     1      23.257   7.324  20.511  0.00  0.00    +0.277 C 
ENDBRANCH  29   4
ENDBRANCH  20  23
ENDBRANCH  10  16
BRANCH   5  15
ATOM     15  C   UNL     1      13.759   7.926  17.681  0.00  0.00    +0.160 C 
BRANCH  15  17
ATOM      2  O   UNL     1      14.748   9.454  16.065  0.00  0.00    -0.461 OA
ATOM     17  C   UNL     1      13.600   8.952  16.590  0.00  0.00    +0.119 A 
ATOM     19  C   UNL     1      12.503   9.517  15.982  0.00  0.00    +0.046 A 
ATOM     21  C   UNL     1      14.380  10.349  15.111  0.00  0.00    +0.131 A 
ATOM     22  C   UNL     1      13.009  10.425  15.022  0.00  0.00    +0.047 A 
BRANCH  21  24
ATOM     24  C   UNL     1      15.473  11.026  14.398  0.00  0.00    +0.230 C 
BRANCH  24   3
ATOM      3  O   UNL     1      15.523  10.586  13.039  0.00  0.00    -0.387 OA
ATOM     32  H   UNL     1      14.673  10.153  12.851  0.00  0.00    +0.210 HD
ENDBRANCH  24   3
ENDBRANCH  21  24
ENDBRANCH  15  17
ENDBRANCH   5  15
TORSDOF 7
ENDMDL
MODEL 7
REMARK VINA RESULT:      -6.9     15.866     20.299
REMARK  Name = 26744940
REMARK  8 active torsions:
REMARK  status: ('A' for Active; 'I' for Inactive)
REMARK    1  A    between atoms: O_3  and  C_24
REMARK    2  A    between atoms: O_4  and  C_29
REMARK    3  A    between atoms: O_4  and  C_30
REMARK    4  A    between atoms: N_5  and  C_15
REMARK    5  A    between atoms: C_10  and  C_16
REMARK    6  A    between atoms: C_15  and  C_17
REMARK    7  A    between atoms: C_20  and  C_23
REMARK    8  A    between atoms: C_21  and  C_24
REMARK                            x       y       z     vdW  Elec       q    Type
REMARK                         _______ _______ _______ _____ _____    ______ ____
ROOT
ATOM      5  N   UNL     1      11.572   4.799  -0.136  0.00  0.00    -0.278 NA
ATOM      6  N   UNL     1      15.131   5.774  -0.642  0.00  0.00    -0.347 N 
ATOM      7  N   UNL     1      15.580   3.910   0.510  0.00  0.00    -0.240 NA
ATOM     10  C   UNL     1      11.797   4.022   1.120  0.00  0.00    +0.152 C 
ATOM     11  C   UNL     1      13.191   3.299   1.115  0.00  0.00    +0.086 C 
ATOM     12  C   UNL     1      12.581   5.841  -0.426  0.00  0.00    +0.140 C 
ATOM     13  C   UNL     1      13.934   5.282  -0.220  0.00  0.00    +0.053 A 
ATOM     14  C   UNL     1      14.234   4.145   0.487  0.00  0.00    +0.065 A 
ATOM     18  C   UNL     1      16.093   4.912  -0.177  0.00  0.00    +0.197 A 
ATOM     31  H   UNL     1      15.287   6.612  -1.186  0.00  0.00    +0.167 HD
ENDROOT
BRANCH  10  16
ATOM      1  O   UNL     1      11.931   6.076   2.462  0.00  0.00    -0.336 OA
ATOM      8  N   UNL     1      10.933   4.369   3.514  0.00  0.00    -0.190 NA
ATOM      9  N   UNL     1      11.572   6.556   3.729  0.00  0.00    -0.056 NA
ATOM     16  C   UNL     1      11.518   4.783   2.418  0.00  0.00    +0.245 A 
ATOM     20  C   UNL     1      10.989   5.491   4.289  0.00  0.00    +0.202 A 
BRANCH  20  23
ATOM     23  C   UNL     1      10.453   5.516   5.619  0.00  0.00    +0.023 A 
ATOM     25  C   UNL     1      10.006   4.336   6.213  0.00  0.00    +0.015 A 
ATOM     26  C   UNL     1      10.378   6.721   6.317  0.00  0.00    +0.015 A 
ATOM     27  C   UNL     1       9.484   4.361   7.506  0.00  0.00    +0.046 A 
ATOM     28  C   UNL     1       9.855   6.746   7.610  0.00  0.00    +0.046 A 
ATOM     29  C   UNL     1       9.408   5.565   8.204  0.00  0.00    +0.120 A 
BRANCH  29   4
ATOM      4  O   UNL     1       8.899   5.590   9.466  0.00  0.00    -0.495 OA
ATOM     30  C   UNL     1       9.370   4.598  10.377  0.00  0.00    +0.277 C 
ENDBRANCH  29   4
ENDBRANCH  20  23
ENDBRANCH  10  16
BRANCH   5  15
ATOM     15  C   UNL     1      10.215   5.313  -0.285  0.00  0.00    +0.160 C 
BRANCH  15  17
ATOM      2  O   UNL     1       9.898   3.823  -2.183  0.00  0.00    -0.461 OA
ATOM     17  C   UNL     1       9.668   5.058  -1.664  0.00  0.00    +0.119 A 
ATOM     19  C   UNL     1       8.955   5.829  -2.552  0.00  0.00    +0.046 A 
ATOM     21  C   UNL     1       9.327   3.807  -3.415  0.00  0.00    +0.131 A 
ATOM     22  C   UNL     1       8.734   5.017  -3.690  0.00  0.00    +0.047 A 
BRANCH  21  24
ATOM     24  C   UNL     1       9.453   2.553  -4.173  0.00  0.00    +0.230 C 
BRANCH  24   3
ATOM      3  O   UNL     1       9.134   1.437  -3.338  0.00  0.00    -0.387 OA
ATOM     32  H   UNL     1       8.204   1.541  -3.071  0.00  0.00    +0.210 HD
ENDBRANCH  24   3
ENDBRANCH  21  24
ENDBRANCH  15  17
ENDBRANCH   5  15
TORSDOF 7
ENDMDL
MODEL 8
REMARK VINA RESULT:      -6.8     27.129     29.272
REMARK  Name = 26744940
REMARK  8 active torsions:
REMARK  status: ('A' for Active; 'I' for Inactive)
REMARK    1  A    between atoms: O_3  and  C_24
REMARK    2  A    between atoms: O_4  and  C_29
REMARK    3  A    between atoms: O_4  and  C_30
REMARK    4  A    between atoms: N_5  and  C_15
REMARK    5  A    between atoms: C_10  and  C_16
REMARK    6  A    between atoms: C_15  and  C_17
REMARK    7  A    between atoms: C_20  and  C_23
REMARK    8  A    between atoms: C_21  and  C_24
REMARK                            x       y       z     vdW  Elec       q    Type
REMARK                         _______ _______ _______ _____ _____    ______ ____
ROOT
ATOM      5  N   UNL     1      -3.039 -11.931  15.008  0.00  0.00    -0.278 NA
ATOM      6  N   UNL     1      -3.877 -15.387  13.902  0.00  0.00    -0.347 N 
ATOM      7  N   UNL     1      -1.753 -15.449  13.207  0.00  0.00    -0.240 NA
ATOM     10  C   UNL     1      -1.948 -11.705  14.011  0.00  0.00    +0.152 C 
ATOM     11  C   UNL     1      -1.162 -13.029  13.701  0.00  0.00    +0.086 C 
ATOM     12  C   UNL     1      -4.052 -12.936  14.621  0.00  0.00    +0.140 C 
ATOM     13  C   UNL     1      -3.371 -14.138  14.093  0.00  0.00    +0.053 A 
ATOM     14  C   UNL     1      -2.072 -14.199  13.655  0.00  0.00    +0.065 A 
ATOM     18  C   UNL     1      -2.863 -16.142  13.366  0.00  0.00    +0.197 A 
ATOM     31  H   UNL     1      -4.816 -15.702  14.108  0.00  0.00    +0.167 HD
ENDROOT
BRANCH  10  16
ATOM      1  O   UNL     1      -1.421 -10.123  12.207  0.00  0.00    -0.336 OA
ATOM      8  N   UNL     1      -3.501 -10.951  12.111  0.00  0.00    -0.190 NA
ATOM      9  N   UNL     1      -2.021  -9.540  11.083  0.00  0.00    -0.056 NA
ATOM     16  C   UNL     1      -2.360 -10.940  12.752  0.00  0.00    +0.245 A 
ATOM     20  C   UNL     1      -3.244 -10.077  11.093  0.00  0.00    +0.202 A 
BRANCH  20  23
ATOM     23  C   UNL     1      -4.234  -9.763  10.103  0.00  0.00    +0.023 A 
ATOM     25  C   UNL     1      -4.305 -10.508   8.927  0.00  0.00    +0.015 A 
ATOM     26  C   UNL     1      -5.125  -8.712  10.318  0.00  0.00    +0.015 A 
ATOM     27  C   UNL     1      -5.268 -10.202   7.965  0.00  0.00    +0.046 A 
ATOM     28  C   UNL     1      -6.086  -8.404   9.356  0.00  0.00    +0.046 A 
ATOM     29  C   UNL     1      -6.157  -9.150   8.179  0.00  0.00    +0.120 A 
BRANCH  29   4
ATOM      4  O   UNL     1      -7.097  -8.851   7.241  0.00  0.00    -0.495 OA
ATOM     30  C   UNL     1      -6.825  -9.250   5.898  0.00  0.00    +0.277 C 
ENDBRANCH  29   4
ENDBRANCH  20  23
ENDBRANCH  10  16
BRANCH   5  15
ATOM     15  C   UNL     1      -3.661 -10.706  15.498  0.00  0.00    +0.160 C 
BRANCH  15  17
ATOM      2  O   UNL     1      -5.607 -10.466  16.940  0.00  0.00    -0.461 OA
ATOM     17  C   UNL     1      -4.328 -10.913  16.832  0.00  0.00    +0.119 A 
ATOM     19  C   UNL     1      -3.914 -11.480  18.014  0.00  0.00    +0.046 A 
ATOM     21  C   UNL     1      -6.012 -10.749  18.205  0.00  0.00    +0.131 A 
ATOM     22  C   UNL     1      -5.007 -11.373  18.907  0.00  0.00    +0.047 A 
BRANCH  21  24
ATOM     24  C   UNL     1      -7.384 -10.350  18.554  0.00  0.00    +0.230 C 
BRANCH  24   3
ATOM      3  O   UNL     1      -7.551 -10.345  19.973  0.00  0.00    -0.387 OA
ATOM     32  H   UNL     1      -7.863 -11.231  20.224  0.00  0.00    +0.210 HD
ENDBRANCH  24   3
ENDBRANCH  21  24
ENDBRANCH  15  17
ENDBRANCH   5  15
TORSDOF 7
ENDMDL
MODEL 9
REMARK VINA RESULT:      -6.8      4.208      7.410
REMARK  Name = 26744940
REMARK  8 active torsions:
REMARK  status: ('A' for Active; 'I' for Inactive)
REMARK    1  A    between atoms: O_3  and  C_24
REMARK    2  A    between atoms: O_4  and  C_29
REMARK    3  A    between atoms: O_4  and  C_30
REMARK    4  A    between atoms: N_5  and  C_15
REMARK    5  A    between atoms: C_10  and  C_16
REMARK    6  A    between atoms: C_15  and  C_17
REMARK    7  A    between atoms: C_20  and  C_23
REMARK    8  A    between atoms: C_21  and  C_24
REMARK                            x       y       z     vdW  Elec       q    Type
REMARK                         _______ _______ _______ _____ _____    ______ ____
ROOT
ATOM      5  N   UNL     1      13.782   7.953  18.390  0.00  0.00    -0.278 NA
ATOM      6  N   UNL     1      10.800   8.649  16.272  0.00  0.00    -0.347 N 
ATOM      7  N   UNL     1      12.188   9.980  15.131  0.00  0.00    -0.240 NA
ATOM     10  C   UNL     1      14.476   9.249  18.120  0.00  0.00    +0.152 C 
ATOM     11  C   UNL     1      14.204   9.759  16.660  0.00  0.00    +0.086 C 
ATOM     12  C   UNL     1      12.313   7.974  18.223  0.00  0.00    +0.140 C 
ATOM     13  C   UNL     1      11.976   8.660  16.958  0.00  0.00    +0.053 A 
ATOM     14  C   UNL     1      12.808   9.485  16.244  0.00  0.00    +0.065 A 
ATOM     18  C   UNL     1      10.978   9.460  15.178  0.00  0.00    +0.197 A 
ATOM     31  H   UNL     1       9.956   8.149  16.518  0.00  0.00    +0.167 HD
ENDROOT
BRANCH  10  16
ATOM      1  O   UNL     1      15.370  10.661  19.921  0.00  0.00    -0.336 OA
ATOM      8  N   UNL     1      13.196  10.998  19.497  0.00  0.00    -0.190 NA
ATOM      9  N   UNL     1      14.949  11.656  20.813  0.00  0.00    -0.056 NA
ATOM     16  C   UNL     1      14.278  10.331  19.183  0.00  0.00    +0.245 A 
ATOM     20  C   UNL     1      13.657  11.799  20.502  0.00  0.00    +0.202 A 
BRANCH  20  23
ATOM     23  C   UNL     1      12.800  12.733  21.174  0.00  0.00    +0.023 A 
ATOM     25  C   UNL     1      11.522  12.344  21.574  0.00  0.00    +0.015 A 
ATOM     26  C   UNL     1      13.246  14.030  21.426  0.00  0.00    +0.015 A 
ATOM     27  C   UNL     1      10.689  13.253  22.227  0.00  0.00    +0.046 A 
ATOM     28  C   UNL     1      12.413  14.939  22.078  0.00  0.00    +0.046 A 
ATOM     29  C   UNL     1      11.134  14.550  22.478  0.00  0.00    +0.120 A 
BRANCH  29   4
ATOM      4  O   UNL     1      10.322  15.437  23.115  0.00  0.00    -0.495 OA
ATOM     30  C   UNL     1       8.915  15.227  23.002  0.00  0.00    +0.277 C 
ENDBRANCH  29   4
ENDBRANCH  20  23
ENDBRANCH  10  16
BRANCH   5  15
ATOM     15  C   UNL     1      14.168   7.321  19.648  0.00  0.00    +0.160 C 
BRANCH  15  17
ATOM      2  O   UNL     1      12.367   6.021  20.642  0.00  0.00    -0.461 OA
ATOM     17  C   UNL     1      13.007   7.219  20.602  0.00  0.00    +0.119 A 
ATOM     19  C   UNL     1      12.428   8.106  21.479  0.00  0.00    +0.046 A 
ATOM     21  C   UNL     1      11.368   6.145  21.555  0.00  0.00    +0.131 A 
ATOM     22  C   UNL     1      11.363   7.409  22.098  0.00  0.00    +0.047 A 
BRANCH  21  24
ATOM     24  C   UNL     1      10.531   4.955  21.769  0.00  0.00    +0.230 C 
BRANCH  24   3
ATOM      3  O   UNL     1      10.611   4.086  20.637  0.00  0.00    -0.387 OA
ATOM     32  H   UNL     1      10.169   3.256  20.886  0.00  0.00    +0.210 HD
ENDBRANCH  24   3
ENDBRANCH  21  24
ENDBRANCH  15  17
ENDBRANCH   5  15
TORSDOF 7
ENDMDL
MODEL 10
REMARK VINA RESULT:      -6.7     13.549     16.186
REMARK  Name = 26744940
REMARK  8 active torsions:
REMARK  status: ('A' for Active; 'I' for Inactive)
REMARK    1  A    between atoms: O_3  and  C_24
REMARK    2  A    between atoms: O_4  and  C_29
REMARK    3  A    between atoms: O_4  and  C_30
REMARK    4  A    between atoms: N_5  and  C_15
REMARK    5  A    between atoms: C_10  and  C_16
REMARK    6  A    between atoms: C_15  and  C_17
REMARK    7  A    between atoms: C_20  and  C_23
REMARK    8  A    between atoms: C_21  and  C_24
REMARK                            x       y       z     vdW  Elec       q    Type
REMARK                         _______ _______ _______ _____ _____    ______ ____
ROOT
ATOM      5  N   UNL     1       9.920   6.667   5.355  0.00  0.00    -0.278 NA
ATOM      6  N   UNL     1      10.208   3.984   7.921  0.00  0.00    -0.347 N 
ATOM      7  N   UNL     1       9.085   5.410   9.227  0.00  0.00    -0.240 NA
ATOM     10  C   UNL     1       9.817   7.802   6.322  0.00  0.00    +0.152 C 
ATOM     11  C   UNL     1       9.056   7.384   7.629  0.00  0.00    +0.086 C 
ATOM     12  C   UNL     1      10.602   5.459   5.866  0.00  0.00    +0.140 C 
ATOM     13  C   UNL     1      10.087   5.141   7.215  0.00  0.00    +0.053 A 
ATOM     14  C   UNL     1       9.401   6.001   8.036  0.00  0.00    +0.065 A 
ATOM     18  C   UNL     1       9.588   4.195   9.128  0.00  0.00    +0.197 A 
ATOM     31  H   UNL     1      10.668   3.134   7.623  0.00  0.00    +0.167 HD
ENDROOT
BRANCH  10  16
ATOM      1  O   UNL     1      11.059   9.581   7.475  0.00  0.00    -0.336 OA
ATOM      8  N   UNL     1      12.321   8.333   6.109  0.00  0.00    -0.190 NA
ATOM      9  N   UNL     1      12.358  10.098   7.565  0.00  0.00    -0.056 NA
ATOM     16  C   UNL     1      11.126   8.546   6.598  0.00  0.00    +0.245 A 
ATOM     20  C   UNL     1      13.043   9.310   6.731  0.00  0.00    +0.202 A 
BRANCH  20  23
ATOM     23  C   UNL     1      14.450   9.471   6.498  0.00  0.00    +0.023 A 
ATOM     25  C   UNL     1      15.224   8.375   6.116  0.00  0.00    +0.015 A 
ATOM     26  C   UNL     1      15.042  10.723   6.654  0.00  0.00    +0.015 A 
ATOM     27  C   UNL     1      16.591   8.533   5.890  0.00  0.00    +0.046 A 
ATOM     28  C   UNL     1      16.410  10.881   6.429  0.00  0.00    +0.046 A 
ATOM     29  C   UNL     1      17.184   9.784   6.047  0.00  0.00    +0.120 A 
BRANCH  29   4
ATOM      4  O   UNL     1      18.518   9.939   5.827  0.00  0.00    -0.495 OA
ATOM     30  C   UNL     1      19.402   9.502   6.858  0.00  0.00    +0.277 C 
ENDBRANCH  29   4
ENDBRANCH  20  23
ENDBRANCH  10  16
BRANCH   5  15
ATOM     15  C   UNL     1      10.423   7.048   4.039  0.00  0.00    +0.160 C 
BRANCH  15  17
ATOM      2  O   UNL     1      12.172   5.848   2.846  0.00  0.00    -0.461 OA
ATOM     17  C   UNL     1      10.873   5.851   3.244  0.00  0.00    +0.119 A 
ATOM     19  C   UNL     1      10.233   4.712   2.814  0.00  0.00    +0.046 A 
ATOM     21  C   UNL     1      12.363   4.694   2.154  0.00  0.00    +0.131 A 
ATOM     22  C   UNL     1      11.201   3.960   2.106  0.00  0.00    +0.047 A 
BRANCH  21  24
ATOM     24  C   UNL     1      13.716   4.473   1.621  0.00  0.00    +0.230 C 
BRANCH  24   3
ATOM      3  O   UNL     1      14.203   3.192   2.029  0.00  0.00    -0.387 OA
ATOM     32  H   UNL     1      15.072   3.074   1.607  0.00  0.00    +0.210 HD
ENDBRANCH  24   3
ENDBRANCH  21  24
ENDBRANCH  15  17
ENDBRANCH   5  15
TORSDOF 7
ENDMDL
