MODEL 1
REMARK VINA RESULT:      -5.8      0.000      0.000
REMARK  Name = 11883300
REMARK  4 active torsions:
REMARK  status: ('A' for Active; 'I' for Inactive)
REMARK    1  A    between atoms: O_3  and  C_9
REMARK    2  A    between atoms: O_3  and  C_17
REMARK    3  A    between atoms: N_5  and  C_8
REMARK    4  A    between atoms: C_11  and  C_16
REMARK                            x       y       z     vdW  Elec       q    Type
REMARK                         _______ _______ _______ _____ _____    ______ ____
ROOT
ATOM      1  O   UNL     1      16.290   8.636  20.456  0.00  0.00    -0.369 OA
ATOM      2  O   UNL     1      16.230   5.884  19.106  0.00  0.00    -0.369 OA
ATOM      6  C   UNL     1      15.330   6.507  20.046  0.00  0.00    +0.172 C 
ATOM      7  C   UNL     1      16.185   7.311  21.004  0.00  0.00    +0.180 C 
ATOM      8  C   UNL     1      14.490   7.550  19.347  0.00  0.00    +0.130 C 
ATOM      9  C   UNL     1      17.505   6.580  20.958  0.00  0.00    +0.175 C 
ATOM     10  C   UNL     1      15.422   8.748  19.317  0.00  0.00    +0.185 C 
ATOM     12  C   UNL     1      17.581   6.151  19.510  0.00  0.00    +0.194 C 
ENDROOT
BRANCH   8   5
ATOM      4  O   UNL     1      11.770   7.648  18.336  0.00  0.00    -0.276 OA
ATOM      5  N   UNL     1      13.289   7.838  20.091  0.00  0.00    -0.307 N 
ATOM     16  C   UNL     1      12.026   7.862  19.518  0.00  0.00    +0.216 C 
ATOM     18  H   UNL     1      13.372   7.987  21.092  0.00  0.00    +0.149 HD
BRANCH  16  11
ATOM     11  C   UNL     1      10.956   8.163  20.505  0.00  0.00    +0.075 C 
ATOM     13  C   UNL     1      11.232   9.305  21.503  0.00  0.00    +0.013 C 
ATOM     14  C   UNL     1      10.853   7.223  21.725  0.00  0.00    +0.013 C 
ATOM     15  C   UNL     1      10.471   8.469  22.554  0.00  0.00    +0.001 C 
ENDBRANCH  16  11
ENDBRANCH   8   5
BRANCH   9   3
ATOM      3  O   UNL     1      18.605   7.378  21.332  0.00  0.00    -0.375 OA
ATOM     17  C   UNL     1      19.539   6.656  22.130  0.00  0.00    +0.194 C 
ENDBRANCH   9   3
TORSDOF 3
ENDMDL
MODEL 2
REMARK VINA RESULT:      -5.6      3.348      5.701
REMARK  Name = 11883300
REMARK  4 active torsions:
REMARK  status: ('A' for Active; 'I' for Inactive)
REMARK    1  A    between atoms: O_3  and  C_9
REMARK    2  A    between atoms: O_3  and  C_17
REMARK    3  A    between atoms: N_5  and  C_8
REMARK    4  A    between atoms: C_11  and  C_16
REMARK                            x       y       z     vdW  Elec       q    Type
REMARK                         _______ _______ _______ _____ _____    ______ ____
ROOT
ATOM      1  O   UNL     1      10.575   7.827  20.119  0.00  0.00    -0.369 OA
ATOM      2  O   UNL     1      13.604   8.291  20.229  0.00  0.00    -0.369 OA
ATOM      6  C   UNL     1      12.494   9.123  20.627  0.00  0.00    +0.172 C 
ATOM      7  C   UNL     1      11.391   8.897  19.614  0.00  0.00    +0.180 C 
ATOM      8  C   UNL     1      11.905   8.618  21.923  0.00  0.00    +0.130 C 
ATOM      9  C   UNL     1      12.158   8.481  18.381  0.00  0.00    +0.175 C 
ATOM     10  C   UNL     1      11.001   7.494  21.450  0.00  0.00    +0.185 C 
ATOM     12  C   UNL     1      13.294   7.675  18.970  0.00  0.00    +0.194 C 
ENDROOT
BRANCH   8   5
ATOM      4  O   UNL     1      12.950  10.951  23.300  0.00  0.00    -0.276 OA
ATOM      5  N   UNL     1      11.153   9.650  22.593  0.00  0.00    -0.307 N 
ATOM     16  C   UNL     1      11.743  10.732  23.227  0.00  0.00    +0.216 C 
ATOM     18  H   UNL     1      10.139   9.600  22.558  0.00  0.00    +0.149 HD
BRANCH  16  11
ATOM     11  C   UNL     1      10.746  11.661  23.819  0.00  0.00    +0.075 C 
ATOM     13  C   UNL     1      10.872  13.151  23.440  0.00  0.00    +0.013 C 
ATOM     14  C   UNL     1      10.982  12.093  25.282  0.00  0.00    +0.013 C 
ATOM     15  C   UNL     1      10.429  13.477  24.881  0.00  0.00    +0.001 C 
ENDBRANCH  16  11
ENDBRANCH   8   5
BRANCH   9   3
ATOM      3  O   UNL     1      11.393   7.730  17.468  0.00  0.00    -0.375 OA
ATOM     17  C   UNL     1      10.650   8.564  16.582  0.00  0.00    +0.194 C 
ENDBRANCH   9   3
TORSDOF 3
ENDMDL
MODEL 3
REMARK VINA RESULT:      -5.3      3.104      5.752
REMARK  Name = 11883300
REMARK  4 active torsions:
REMARK  status: ('A' for Active; 'I' for Inactive)
REMARK    1  A    between atoms: O_3  and  C_9
REMARK    2  A    between atoms: O_3  and  C_17
REMARK    3  A    between atoms: N_5  and  C_8
REMARK    4  A    between atoms: C_11  and  C_16
REMARK                            x       y       z     vdW  Elec       q    Type
REMARK                         _______ _______ _______ _____ _____    ______ ____
ROOT
ATOM      1  O   UNL     1      13.976   8.789  20.372  0.00  0.00    -0.369 OA
ATOM      2  O   UNL     1      12.330   6.644  18.925  0.00  0.00    -0.369 OA
ATOM      6  C   UNL     1      12.637   8.011  18.577  0.00  0.00    +0.172 C 
ATOM      7  C   UNL     1      12.630   8.804  19.867  0.00  0.00    +0.180 C 
ATOM      8  C   UNL     1      14.064   8.115  18.094  0.00  0.00    +0.130 C 
ATOM      9  C   UNL     1      11.696   8.002  20.741  0.00  0.00    +0.175 C 
ATOM     10  C   UNL     1      14.841   8.184  19.397  0.00  0.00    +0.185 C 
ATOM     12  C   UNL     1      12.009   6.583  20.323  0.00  0.00    +0.194 C 
ENDROOT
BRANCH   8   5
ATOM      4  O   UNL     1      13.531   8.453  15.260  0.00  0.00    -0.276 OA
ATOM      5  N   UNL     1      14.263   9.303  17.301  0.00  0.00    -0.307 N 
ATOM     16  C   UNL     1      13.978   9.369  15.946  0.00  0.00    +0.216 C 
ATOM     18  H   UNL     1      14.587  10.142  17.772  0.00  0.00    +0.149 HD
BRANCH  16  11
ATOM     11  C   UNL     1      14.250  10.712  15.370  0.00  0.00    +0.075 C 
ATOM     13  C   UNL     1      15.598  10.897  14.644  0.00  0.00    +0.013 C 
ATOM     14  C   UNL     1      14.716  11.808  16.352  0.00  0.00    +0.013 C 
ATOM     15  C   UNL     1      15.625  12.328  15.218  0.00  0.00    +0.001 C 
ENDBRANCH  16  11
ENDBRANCH   8   5
BRANCH   9   3
ATOM      3  O   UNL     1      11.899   8.205  22.120  0.00  0.00    -0.375 OA
ATOM     17  C   UNL     1      10.837   8.949  22.711  0.00  0.00    +0.194 C 
ENDBRANCH   9   3
TORSDOF 3
ENDMDL
MODEL 4
REMARK VINA RESULT:      -5.3      2.622      5.918
REMARK  Name = 11883300
REMARK  4 active torsions:
REMARK  status: ('A' for Active; 'I' for Inactive)
REMARK    1  A    between atoms: O_3  and  C_9
REMARK    2  A    between atoms: O_3  and  C_17
REMARK    3  A    between atoms: N_5  and  C_8
REMARK    4  A    between atoms: C_11  and  C_16
REMARK                            x       y       z     vdW  Elec       q    Type
REMARK                         _______ _______ _______ _____ _____    ______ ____
ROOT
ATOM      1  O   UNL     1      14.218   9.884  18.041  0.00  0.00    -0.369 OA
ATOM      2  O   UNL     1      12.070   7.896  17.127  0.00  0.00    -0.369 OA
ATOM      6  C   UNL     1      13.469   7.718  17.435  0.00  0.00    +0.172 C 
ATOM      7  C   UNL     1      14.188   8.956  16.943  0.00  0.00    +0.180 C 
ATOM      8  C   UNL     1      13.677   7.748  18.931  0.00  0.00    +0.130 C 
ATOM      9  C   UNL     1      13.288   9.437  15.829  0.00  0.00    +0.175 C 
ATOM     10  C   UNL     1      13.717   9.237  19.221  0.00  0.00    +0.185 C 
ATOM     12  C   UNL     1      11.914   9.101  16.363  0.00  0.00    +0.194 C 
ENDROOT
BRANCH   8   5
ATOM      4  O   UNL     1      14.691   7.276  21.611  0.00  0.00    -0.276 OA
ATOM      5  N   UNL     1      14.917   7.108  19.299  0.00  0.00    -0.307 N 
ATOM     16  C   UNL     1      15.318   6.927  20.614  0.00  0.00    +0.216 C 
ATOM     18  H   UNL     1      15.499   6.734  18.556  0.00  0.00    +0.149 HD
BRANCH  16  11
ATOM     11  C   UNL     1      16.622   6.222  20.721  0.00  0.00    +0.075 C 
ATOM     13  C   UNL     1      17.818   7.047  21.238  0.00  0.00    +0.013 C 
ATOM     14  C   UNL     1      17.418   6.030  19.413  0.00  0.00    +0.013 C 
ATOM     15  C   UNL     1      18.696   6.252  20.249  0.00  0.00    +0.001 C 
ENDBRANCH  16  11
ENDBRANCH   8   5
BRANCH   9   3
ATOM      3  O   UNL     1      13.426  10.810  15.546  0.00  0.00    -0.375 OA
ATOM     17  C   UNL     1      14.656  11.097  14.885  0.00  0.00    +0.194 C 
ENDBRANCH   9   3
TORSDOF 3
ENDMDL
MODEL 5
REMARK VINA RESULT:      -5.1     25.551     27.525
REMARK  Name = 11883300
REMARK  4 active torsions:
REMARK  status: ('A' for Active; 'I' for Inactive)
REMARK    1  A    between atoms: O_3  and  C_9
REMARK    2  A    between atoms: O_3  and  C_17
REMARK    3  A    between atoms: N_5  and  C_8
REMARK    4  A    between atoms: C_11  and  C_16
REMARK                            x       y       z     vdW  Elec       q    Type
REMARK                         _______ _______ _______ _____ _____    ______ ____
ROOT
ATOM      1  O   UNL     1      -6.354 -10.965  16.537  0.00  0.00    -0.369 OA
ATOM      2  O   UNL     1      -3.845 -11.485  18.221  0.00  0.00    -0.369 OA
ATOM      6  C   UNL     1      -4.110 -11.680  16.817  0.00  0.00    +0.172 C 
ATOM      7  C   UNL     1      -5.548 -12.143  16.702  0.00  0.00    +0.180 C 
ATOM      8  C   UNL     1      -4.099 -10.351  16.098  0.00  0.00    +0.130 C 
ATOM      9  C   UNL     1      -5.787 -12.803  18.039  0.00  0.00    +0.175 C 
ATOM     10  C   UNL     1      -5.496  -9.824  16.374  0.00  0.00    +0.185 C 
ATOM     12  C   UNL     1      -4.985 -11.926  18.974  0.00  0.00    +0.194 C 
ENDROOT
BRANCH   8   5
ATOM      4  O   UNL     1      -1.546 -10.568  14.733  0.00  0.00    -0.276 OA
ATOM      5  N   UNL     1      -3.874 -10.523  14.684  0.00  0.00    -0.307 N 
ATOM     16  C   UNL     1      -2.610 -10.617  14.121  0.00  0.00    +0.216 C 
ATOM     18  H   UNL     1      -4.684 -10.624  14.080  0.00  0.00    +0.149 HD
BRANCH  16  11
ATOM     11  C   UNL     1      -2.653 -10.813  12.648  0.00  0.00    +0.075 C 
ATOM     13  C   UNL     1      -1.692  -9.953  11.804  0.00  0.00    +0.013 C 
ATOM     14  C   UNL     1      -3.810 -10.129  11.891  0.00  0.00    +0.013 C 
ATOM     15  C   UNL     1      -2.809  -9.883  10.741  0.00  0.00    +0.001 C 
ENDBRANCH  16  11
ENDBRANCH   8   5
BRANCH   9   3
ATOM      3  O   UNL     1      -7.147 -12.861  18.403  0.00  0.00    -0.375 OA
ATOM     17  C   UNL     1      -7.382 -12.276  19.682  0.00  0.00    +0.194 C 
ENDBRANCH   9   3
TORSDOF 3
ENDMDL
MODEL 6
REMARK VINA RESULT:      -5.1     30.670     31.616
REMARK  Name = 11883300
REMARK  4 active torsions:
REMARK  status: ('A' for Active; 'I' for Inactive)
REMARK    1  A    between atoms: O_3  and  C_9
REMARK    2  A    between atoms: O_3  and  C_17
REMARK    3  A    between atoms: N_5  and  C_8
REMARK    4  A    between atoms: C_11  and  C_16
REMARK                            x       y       z     vdW  Elec       q    Type
REMARK                         _______ _______ _______ _____ _____    ______ ____
ROOT
ATOM      1  O   UNL     1     -14.960   2.233  29.778  0.00  0.00    -0.369 OA
ATOM      2  O   UNL     1     -14.921   0.855  32.517  0.00  0.00    -0.369 OA
ATOM      6  C   UNL     1     -14.236   2.026  32.026  0.00  0.00    +0.172 C 
ATOM      7  C   UNL     1     -13.872   1.749  30.582  0.00  0.00    +0.180 C 
ATOM      8  C   UNL     1     -15.195   3.190  31.941  0.00  0.00    +0.130 C 
ATOM      9  C   UNL     1     -13.780   0.242  30.551  0.00  0.00    +0.175 C 
ATOM     10  C   UNL     1     -15.890   2.939  30.615  0.00  0.00    +0.185 C 
ATOM     12  C   UNL     1     -14.880  -0.164  31.506  0.00  0.00    +0.194 C 
ENDROOT
BRANCH   8   5
ATOM      4  O   UNL     1     -15.035   5.134  34.092  0.00  0.00    -0.276 OA
ATOM      5  N   UNL     1     -14.491   4.449  31.934  0.00  0.00    -0.307 N 
ATOM     16  C   UNL     1     -14.472   5.316  33.016  0.00  0.00    +0.216 C 
ATOM     18  H   UNL     1     -13.947   4.686  31.110  0.00  0.00    +0.149 HD
BRANCH  16  11
ATOM     11  C   UNL     1     -13.656   6.532  32.759  0.00  0.00    +0.075 C 
ATOM     13  C   UNL     1     -13.389   7.457  33.964  0.00  0.00    +0.013 C 
ATOM     14  C   UNL     1     -14.378   7.726  32.099  0.00  0.00    +0.013 C 
ATOM     15  C   UNL     1     -13.504   8.642  32.982  0.00  0.00    +0.001 C 
ENDBRANCH  16  11
ENDBRANCH   8   5
BRANCH   9   3
ATOM      3  O   UNL     1     -13.964  -0.307  29.267  0.00  0.00    -0.375 OA
ATOM     17  C   UNL     1     -13.104  -1.420  29.035  0.00  0.00    +0.194 C 
ENDBRANCH   9   3
TORSDOF 3
ENDMDL
MODEL 7
REMARK VINA RESULT:      -5.0     14.976     16.992
REMARK  Name = 11883300
REMARK  4 active torsions:
REMARK  status: ('A' for Active; 'I' for Inactive)
REMARK    1  A    between atoms: O_3  and  C_9
REMARK    2  A    between atoms: O_3  and  C_17
REMARK    3  A    between atoms: N_5  and  C_8
REMARK    4  A    between atoms: C_11  and  C_16
REMARK                            x       y       z     vdW  Elec       q    Type
REMARK                         _______ _______ _______ _____ _____    ______ ____
ROOT
ATOM      1  O   UNL     1       9.070   5.537   6.100  0.00  0.00    -0.369 OA
ATOM      2  O   UNL     1      11.199   7.657   6.715  0.00  0.00    -0.369 OA
ATOM      6  C   UNL     1      11.296   6.354   6.103  0.00  0.00    +0.172 C 
ATOM      7  C   UNL     1      10.311   5.457   6.822  0.00  0.00    +0.180 C 
ATOM      8  C   UNL     1      10.773   6.407   4.687  0.00  0.00    +0.130 C 
ATOM      9  C   UNL     1      10.209   6.104   8.182  0.00  0.00    +0.175 C 
ATOM     10  C   UNL     1       9.273   6.289   4.893  0.00  0.00    +0.185 C 
ATOM     12  C   UNL     1      10.314   7.575   7.843  0.00  0.00    +0.194 C 
ENDROOT
BRANCH   8   5
ATOM      4  O   UNL     1      11.728   6.495   1.946  0.00  0.00    -0.276 OA
ATOM      5  N   UNL     1      11.281   5.310   3.900  0.00  0.00    -0.307 N 
ATOM     16  C   UNL     1      11.717   5.450   2.591  0.00  0.00    +0.216 C 
ATOM     18  H   UNL     1      11.364   4.401   4.346  0.00  0.00    +0.149 HD
BRANCH  16  11
ATOM     11  C   UNL     1      12.214   4.174   2.014  0.00  0.00    +0.075 C 
ATOM     13  C   UNL     1      13.709   4.114   1.641  0.00  0.00    +0.013 C 
ATOM     14  C   UNL     1      11.909   3.921   0.523  0.00  0.00    +0.013 C 
ATOM     15  C   UNL     1      13.295   3.246   0.434  0.00  0.00    +0.001 C 
ENDBRANCH  16  11
ENDBRANCH   8   5
BRANCH   9   3
ATOM      3  O   UNL     1       9.014   5.802   8.863  0.00  0.00    -0.375 OA
ATOM     17  C   UNL     1       9.201   4.784   9.842  0.00  0.00    +0.194 C 
ENDBRANCH   9   3
TORSDOF 3
ENDMDL
MODEL 8
REMARK VINA RESULT:      -4.9     30.760     31.759
REMARK  Name = 11883300
REMARK  4 active torsions:
REMARK  status: ('A' for Active; 'I' for Inactive)
REMARK    1  A    between atoms: O_3  and  C_9
REMARK    2  A    between atoms: O_3  and  C_17
REMARK    3  A    between atoms: N_5  and  C_8
REMARK    4  A    between atoms: C_11  and  C_16
REMARK                            x       y       z     vdW  Elec       q    Type
REMARK                         _______ _______ _______ _____ _____    ______ ____
ROOT
ATOM      1  O   UNL     1     -15.979   3.372  31.476  0.00  0.00    -0.369 OA
ATOM      2  O   UNL     1     -13.305   1.872  31.543  0.00  0.00    -0.369 OA
ATOM      6  C   UNL     1     -13.617   3.276  31.659  0.00  0.00    +0.172 C 
ATOM      7  C   UNL     1     -14.771   3.548  30.717  0.00  0.00    +0.180 C 
ATOM      8  C   UNL     1     -14.187   3.571  33.026  0.00  0.00    +0.130 C 
ATOM      9  C   UNL     1     -14.604   2.469  29.674  0.00  0.00    +0.175 C 
ATOM     10  C   UNL     1     -15.644   3.176  32.859  0.00  0.00    +0.185 C 
ATOM     12  C   UNL     1     -14.108   1.303  30.498  0.00  0.00    +0.194 C 
ENDROOT
BRANCH   8   5
ATOM      4  O   UNL     1     -14.118   4.757  35.675  0.00  0.00    -0.276 OA
ATOM      5  N   UNL     1     -14.057   4.968  33.357  0.00  0.00    -0.307 N 
ATOM     16  C   UNL     1     -14.033   5.442  34.660  0.00  0.00    +0.216 C 
ATOM     18  H   UNL     1     -13.932   5.629  32.596  0.00  0.00    +0.149 HD
BRANCH  16  11
ATOM     11  C   UNL     1     -13.868   6.918  34.728  0.00  0.00    +0.075 C 
ATOM     13  C   UNL     1     -13.086   7.584  33.578  0.00  0.00    +0.013 C 
ATOM     14  C   UNL     1     -12.775   7.451  35.678  0.00  0.00    +0.013 C 
ATOM     15  C   UNL     1     -12.513   8.555  34.631  0.00  0.00    +0.001 C 
ENDBRANCH  16  11
ENDBRANCH   8   5
BRANCH   9   3
ATOM      3  O   UNL     1     -15.794   2.163  28.984  0.00  0.00    -0.375 OA
ATOM     17  C   UNL     1     -15.935   2.934  27.794  0.00  0.00    +0.194 C 
ENDBRANCH   9   3
TORSDOF 3
ENDMDL
MODEL 9
REMARK VINA RESULT:      -4.8      1.983      6.333
REMARK  Name = 11883300
REMARK  4 active torsions:
REMARK  status: ('A' for Active; 'I' for Inactive)
REMARK    1  A    between atoms: O_3  and  C_9
REMARK    2  A    between atoms: O_3  and  C_17
REMARK    3  A    between atoms: N_5  and  C_8
REMARK    4  A    between atoms: C_11  and  C_16
REMARK                            x       y       z     vdW  Elec       q    Type
REMARK                         _______ _______ _______ _____ _____    ______ ____
ROOT
ATOM      1  O   UNL     1      13.871   7.323  20.965  0.00  0.00    -0.369 OA
ATOM      2  O   UNL     1      14.318   9.241  18.615  0.00  0.00    -0.369 OA
ATOM      6  C   UNL     1      15.139   8.922  19.758  0.00  0.00    +0.172 C 
ATOM      7  C   UNL     1      14.201   8.722  20.930  0.00  0.00    +0.180 C 
ATOM      8  C   UNL     1      15.782   7.568  19.573  0.00  0.00    +0.130 C 
ATOM      9  C   UNL     1      13.010   9.567  20.544  0.00  0.00    +0.175 C 
ATOM     10  C   UNL     1      14.673   6.623  20.001  0.00  0.00    +0.185 C 
ATOM     12  C   UNL     1      12.956   9.376  19.045  0.00  0.00    +0.194 C 
ENDROOT
BRANCH   8   5
ATOM      4  O   UNL     1      17.963   5.678  19.253  0.00  0.00    -0.276 OA
ATOM      5  N   UNL     1      16.947   7.424  20.411  0.00  0.00    -0.307 N 
ATOM     16  C   UNL     1      17.941   6.486  20.177  0.00  0.00    +0.216 C 
ATOM     18  H   UNL     1      17.062   8.072  21.185  0.00  0.00    +0.149 HD
BRANCH  16  11
ATOM     11  C   UNL     1      19.042   6.559  21.173  0.00  0.00    +0.075 C 
ATOM     13  C   UNL     1      19.800   7.899  21.276  0.00  0.00    +0.013 C 
ATOM     14  C   UNL     1      20.386   5.917  20.771  0.00  0.00    +0.013 C 
ATOM     15  C   UNL     1      21.076   7.070  21.532  0.00  0.00    +0.001 C 
ENDBRANCH  16  11
ENDBRANCH   8   5
BRANCH   9   3
ATOM      3  O   UNL     1      11.812   9.174  21.172  0.00  0.00    -0.375 OA
ATOM     17  C   UNL     1      10.889   8.604  20.249  0.00  0.00    +0.194 C 
ENDBRANCH   9   3
TORSDOF 3
ENDMDL
MODEL 10
REMARK VINA RESULT:      -4.7     25.514     27.100
REMARK  Name = 11883300
REMARK  4 active torsions:
REMARK  status: ('A' for Active; 'I' for Inactive)
REMARK    1  A    between atoms: O_3  and  C_9
REMARK    2  A    between atoms: O_3  and  C_17
REMARK    3  A    between atoms: N_5  and  C_8
REMARK    4  A    between atoms: C_11  and  C_16
REMARK                            x       y       z     vdW  Elec       q    Type
REMARK                         _______ _______ _______ _____ _____    ______ ____
ROOT
ATOM      1  O   UNL     1      -4.139 -12.016  14.615  0.00  0.00    -0.369 OA
ATOM      2  O   UNL     1      -1.812 -11.000  16.336  0.00  0.00    -0.369 OA
ATOM      6  C   UNL     1      -3.176 -10.546  16.208  0.00  0.00    +0.172 C 
ATOM      7  C   UNL     1      -3.557 -10.708  14.751  0.00  0.00    +0.180 C 
ATOM      8  C   UNL     1      -4.107 -11.489  16.933  0.00  0.00    +0.130 C 
ATOM      9  C   UNL     1      -2.222 -10.614  14.050  0.00  0.00    +0.175 C 
ATOM     10  C   UNL     1      -4.295 -12.602  15.918  0.00  0.00    +0.185 C 
ATOM     12  C   UNL     1      -1.300 -11.304  15.030  0.00  0.00    +0.194 C 
ENDROOT
BRANCH   8   5
ATOM      4  O   UNL     1      -5.425 -11.357  19.517  0.00  0.00    -0.276 OA
ATOM      5  N   UNL     1      -5.361 -10.847  17.246  0.00  0.00    -0.307 N 
ATOM     16  C   UNL     1      -5.913 -10.837  18.517  0.00  0.00    +0.216 C 
ATOM     18  H   UNL     1      -5.836 -10.342  16.504  0.00  0.00    +0.149 HD
BRANCH  16  11
ATOM     11  C   UNL     1      -7.198 -10.091  18.577  0.00  0.00    +0.075 C 
ATOM     13  C   UNL     1      -8.492 -10.924  18.475  0.00  0.00    +0.013 C 
ATOM     14  C   UNL     1      -7.646  -9.377  17.284  0.00  0.00    +0.013 C 
ATOM     15  C   UNL     1      -9.092  -9.752  17.671  0.00  0.00    +0.001 C 
ENDBRANCH  16  11
ENDBRANCH   8   5
BRANCH   9   3
ATOM      3  O   UNL     1      -2.206 -11.230  12.784  0.00  0.00    -0.375 OA
ATOM     17  C   UNL     1      -2.135 -10.275  11.728  0.00  0.00    +0.194 C 
ENDBRANCH   9   3
TORSDOF 3
ENDMDL
