MODEL 1
REMARK VINA RESULT:      -6.4      0.000      0.000
REMARK  Name = 38031212
REMARK  14 active torsions:
REMARK  status: ('A' for Active; 'I' for Inactive)
REMARK    1  A    between atoms: N_2  and  C_13
REMARK    2  A    between atoms: N_2  and  C_19
REMARK    3  A    between atoms: C_6  and  C_10
REMARK    4  A    between atoms: C_7  and  C_13
REMARK    5  A    between atoms: C_9  and  C_14
REMARK    6  A    between atoms: C_10  and  C_15
REMARK    7  A    between atoms: C_10  and  C_16
REMARK    8  A    between atoms: C_11  and  C_17
REMARK    9  A    between atoms: C_14  and  C_18
REMARK   10  A    between atoms: C_19  and  C_22
REMARK   11  A    between atoms: C_20  and  C_21
REMARK   12  A    between atoms: C_21  and  C_23
REMARK   13  A    between atoms: C_21  and  C_24
REMARK   14  A    between atoms: C_21  and  C_25
REMARK                            x       y       z     vdW  Elec       q    Type
REMARK                         _______ _______ _______ _____ _____    ______ ____
ROOT
ATOM      6  C   UNL     1     -16.637   3.010  28.520  0.00  0.00    +0.000 C 
ATOM      7  C   UNL     1     -17.146   1.561  28.727  0.00  0.00    +0.029 C 
ATOM      8  C   UNL     1     -17.334   3.655  27.312  0.00  0.00    +0.012 C 
ATOM      9  C   UNL     1     -17.097   2.864  26.012  0.00  0.00    +0.024 C 
ATOM     11  C   UNL     1     -17.321   1.378  26.208  0.00  0.00    -0.073 C 
ATOM     12  C   UNL     1     -17.354   0.816  27.430  0.00  0.00    -0.023 C 
ATOM     17  C   UNL     1     -17.553   0.559  24.970  0.00  0.00    +0.039 C 
ENDROOT
BRANCH   6  10
ATOM     10  C   UNL     1     -16.856   3.873  29.767  0.00  0.00    -0.013 C 
ATOM     15  C   UNL     1     -16.463   5.321  29.487  0.00  0.00    +0.007 C 
ATOM     16  C   UNL     1     -18.307   3.785  30.228  0.00  0.00    +0.007 C 
ENDBRANCH   6  10
BRANCH   7  13
ATOM     13  C   UNL     1     -16.195   0.765  29.628  0.00  0.00    +0.089 C 
BRANCH  13   2
ATOM      2  N   UNL     1     -14.810   1.061  29.302  0.00  0.00    -0.311 NA
ATOM     30  H   UNL     1     -14.509   0.492  28.511  0.00  0.00    +0.122 HD
BRANCH   2  19
ATOM     19  C   UNL     1     -13.936   0.803  30.439  0.00  0.00    +0.117 C 
BRANCH  19  22
ATOM      5  N   UNL     1     -14.687   2.579  33.697  0.00  0.00    -0.263 NA
ATOM     22  C   UNL     1     -14.027   1.892  31.474  0.00  0.00    -0.016 A 
ATOM     26  C   UNL     1     -13.567   3.177  31.206  0.00  0.00    +0.008 A 
ATOM     27  C   UNL     1     -14.574   1.647  32.724  0.00  0.00    +0.115 A 
ATOM     28  C   UNL     1     -13.666   4.163  32.182  0.00  0.00    +0.020 A 
ATOM     29  C   UNL     1     -14.229   3.816  33.399  0.00  0.00    +0.111 A 
ENDBRANCH  19  22
ENDBRANCH   2  19
ENDBRANCH  13   2
ENDBRANCH   7  13
BRANCH   9  14
ATOM     14  C   UNL     1     -15.699   3.137  25.445  0.00  0.00    +0.105 C 
BRANCH  14  18
ATOM      1  O   UNL     1     -15.009   4.828  23.827  0.00  0.00    -0.424 OA
ATOM      3  N   UNL     1     -16.473   3.338  23.026  0.00  0.00    -0.112 NA
ATOM      4  N   UNL     1     -16.172   4.229  22.012  0.00  0.00    -0.112 NA
ATOM     18  C   UNL     1     -15.772   3.728  24.065  0.00  0.00    +0.218 A 
ATOM     20  C   UNL     1     -15.314   5.080  22.524  0.00  0.00    +0.223 A 
BRANCH  20  21
ATOM     21  C   UNL     1     -14.654   6.233  21.899  0.00  0.00    +0.040 C 
ATOM     23  C   UNL     1     -15.287   6.591  20.509  0.00  0.00    +0.020 C 
ATOM     24  C   UNL     1     -13.128   5.973  21.646  0.00  0.00    +0.020 C 
ATOM     25  C   UNL     1     -14.695   7.581  22.711  0.00  0.00    +0.020 C 
ENDBRANCH  20  21
ENDBRANCH  14  18
ENDBRANCH   9  14
TORSDOF 8
ENDMDL
MODEL 2
REMARK VINA RESULT:      -6.4     32.638     35.566
REMARK  Name = 38031212
REMARK  14 active torsions:
REMARK  status: ('A' for Active; 'I' for Inactive)
REMARK    1  A    between atoms: N_2  and  C_13
REMARK    2  A    between atoms: N_2  and  C_19
REMARK    3  A    between atoms: C_6  and  C_10
REMARK    4  A    between atoms: C_7  and  C_13
REMARK    5  A    between atoms: C_9  and  C_14
REMARK    6  A    between atoms: C_10  and  C_15
REMARK    7  A    between atoms: C_10  and  C_16
REMARK    8  A    between atoms: C_11  and  C_17
REMARK    9  A    between atoms: C_14  and  C_18
REMARK   10  A    between atoms: C_19  and  C_22
REMARK   11  A    between atoms: C_20  and  C_21
REMARK   12  A    between atoms: C_21  and  C_23
REMARK   13  A    between atoms: C_21  and  C_24
REMARK   14  A    between atoms: C_21  and  C_25
REMARK                            x       y       z     vdW  Elec       q    Type
REMARK                         _______ _______ _______ _____ _____    ______ ____
ROOT
ATOM      6  C   UNL     1       8.855   8.687   5.347  0.00  0.00    +0.000 C 
ATOM      7  C   UNL     1       8.600   8.390   6.847  0.00  0.00    +0.029 C 
ATOM      8  C   UNL     1       8.601   7.429   4.502  0.00  0.00    +0.012 C 
ATOM      9  C   UNL     1       9.497   6.251   4.926  0.00  0.00    +0.024 C 
ATOM     11  C   UNL     1       9.507   6.064   6.430  0.00  0.00    -0.073 C 
ATOM     12  C   UNL     1       9.090   7.026   7.272  0.00  0.00    -0.023 C 
ATOM     17  C   UNL     1       9.966   4.728   6.943  0.00  0.00    +0.039 C 
ENDROOT
BRANCH   6  10
ATOM     10  C   UNL     1       7.983   9.839   4.839  0.00  0.00    -0.013 C 
ATOM     15  C   UNL     1       8.856  10.996   4.362  0.00  0.00    +0.007 C 
ATOM     16  C   UNL     1       7.064   9.358   3.721  0.00  0.00    +0.007 C 
ENDBRANCH   6  10
BRANCH   7  13
ATOM     13  C   UNL     1       9.236   9.463   7.738  0.00  0.00    +0.089 C 
BRANCH  13   2
ATOM      2  N   UNL     1      10.599   9.100   8.086  0.00  0.00    -0.311 NA
ATOM     30  H   UNL     1      10.747   9.219   9.088  0.00  0.00    +0.122 HD
BRANCH   2  19
ATOM     19  C   UNL     1      11.563   9.916   7.358  0.00  0.00    +0.117 C 
BRANCH  19  22
ATOM      5  N   UNL     1      15.114   9.144   6.299  0.00  0.00    -0.263 NA
ATOM     22  C   UNL     1      12.801   9.137   7.002  0.00  0.00    -0.016 A 
ATOM     26  C   UNL     1      12.807   7.747   7.033  0.00  0.00    +0.008 A 
ATOM     27  C   UNL     1      13.970   9.783   6.632  0.00  0.00    +0.115 A 
ATOM     28  C   UNL     1      13.966   7.055   6.697  0.00  0.00    +0.020 A 
ATOM     29  C   UNL     1      15.082   7.793   6.340  0.00  0.00    +0.111 A 
ENDBRANCH  19  22
ENDBRANCH   2  19
ENDBRANCH  13   2
ENDBRANCH   7  13
BRANCH   9  14
ATOM     14  C   UNL     1      10.922   6.417   4.384  0.00  0.00    +0.105 C 
BRANCH  14  18
ATOM      1  O   UNL     1      12.350   5.500   2.632  0.00  0.00    -0.424 OA
ATOM      3  N   UNL     1      10.740   4.108   3.320  0.00  0.00    -0.112 NA
ATOM      4  N   UNL     1      11.467   3.466   2.335  0.00  0.00    -0.112 NA
ATOM     18  C   UNL     1      11.291   5.292   3.459  0.00  0.00    +0.218 A 
ATOM     20  C   UNL     1      12.396   4.315   1.963  0.00  0.00    +0.223 A 
BRANCH  20  21
ATOM     21  C   UNL     1      13.451   4.163   0.954  0.00  0.00    +0.040 C 
ATOM     23  C   UNL     1      14.754   3.528   1.555  0.00  0.00    +0.020 C 
ATOM     24  C   UNL     1      13.869   5.539   0.326  0.00  0.00    +0.020 C 
ATOM     25  C   UNL     1      13.103   3.255  -0.284  0.00  0.00    +0.020 C 
ENDBRANCH  20  21
ENDBRANCH  14  18
ENDBRANCH   9  14
TORSDOF 8
ENDMDL
MODEL 3
REMARK VINA RESULT:      -6.2     31.895     35.267
REMARK  Name = 38031212
REMARK  14 active torsions:
REMARK  status: ('A' for Active; 'I' for Inactive)
REMARK    1  A    between atoms: N_2  and  C_13
REMARK    2  A    between atoms: N_2  and  C_19
REMARK    3  A    between atoms: C_6  and  C_10
REMARK    4  A    between atoms: C_7  and  C_13
REMARK    5  A    between atoms: C_9  and  C_14
REMARK    6  A    between atoms: C_10  and  C_15
REMARK    7  A    between atoms: C_10  and  C_16
REMARK    8  A    between atoms: C_11  and  C_17
REMARK    9  A    between atoms: C_14  and  C_18
REMARK   10  A    between atoms: C_19  and  C_22
REMARK   11  A    between atoms: C_20  and  C_21
REMARK   12  A    between atoms: C_21  and  C_23
REMARK   13  A    between atoms: C_21  and  C_24
REMARK   14  A    between atoms: C_21  and  C_25
REMARK                            x       y       z     vdW  Elec       q    Type
REMARK                         _______ _______ _______ _____ _____    ______ ____
ROOT
ATOM      6  C   UNL     1      17.111   8.635  21.470  0.00  0.00    +0.000 C 
ATOM      7  C   UNL     1      16.333   7.822  20.404  0.00  0.00    +0.029 C 
ATOM      8  C   UNL     1      18.611   8.658  21.136  0.00  0.00    +0.012 C 
ATOM      9  C   UNL     1      19.214   7.243  21.064  0.00  0.00    +0.024 C 
ATOM     11  C   UNL     1      18.353   6.305  20.244  0.00  0.00    -0.073 C 
ATOM     12  C   UNL     1      17.072   6.586  19.947  0.00  0.00    -0.023 C 
ATOM     17  C   UNL     1      19.012   5.054  19.733  0.00  0.00    +0.039 C 
ENDROOT
BRANCH   6  10
ATOM     10  C   UNL     1      16.584  10.068  21.588  0.00  0.00    -0.013 C 
ATOM     15  C   UNL     1      17.627  10.966  22.247  0.00  0.00    +0.007 C 
ATOM     16  C   UNL     1      16.194  10.608  20.216  0.00  0.00    +0.007 C 
ENDBRANCH   6  10
BRANCH   7  13
ATOM     13  C   UNL     1      14.944   7.427  20.917  0.00  0.00    +0.089 C 
BRANCH  13   2
ATOM      2  N   UNL     1      14.293   6.517  19.990  0.00  0.00    -0.311 NA
ATOM     30  H   UNL     1      14.842   6.439  19.134  0.00  0.00    +0.122 HD
BRANCH   2  19
ATOM     19  C   UNL     1      12.950   6.976  19.659  0.00  0.00    +0.117 C 
BRANCH  19  22
ATOM      5  N   UNL     1      13.989   8.203  16.232  0.00  0.00    -0.263 NA
ATOM     22  C   UNL     1      12.913   7.696  18.338  0.00  0.00    -0.016 A 
ATOM     26  C   UNL     1      11.831   8.494  17.986  0.00  0.00    +0.008 A 
ATOM     27  C   UNL     1      13.957   7.583  17.434  0.00  0.00    +0.115 A 
ATOM     28  C   UNL     1      11.827   9.148  16.758  0.00  0.00    +0.020 A 
ATOM     29  C   UNL     1      12.919   8.971  15.925  0.00  0.00    +0.111 A 
ENDBRANCH  19  22
ENDBRANCH   2  19
ENDBRANCH  13   2
ENDBRANCH   7  13
BRANCH   9  14
ATOM     14  C   UNL     1      19.460   6.676  22.467  0.00  0.00    +0.105 C 
BRANCH  14  18
ATOM      1  O   UNL     1      21.170   4.937  22.541  0.00  0.00    -0.424 OA
ATOM      3  N   UNL     1      21.950   7.003  22.900  0.00  0.00    -0.112 NA
ATOM      4  N   UNL     1      23.016   6.126  22.969  0.00  0.00    -0.112 NA
ATOM     18  C   UNL     1      20.894   6.265  22.649  0.00  0.00    +0.218 A 
ATOM     20  C   UNL     1      22.515   4.933  22.753  0.00  0.00    +0.223 A 
BRANCH  20  21
ATOM     21  C   UNL     1      23.190   3.630  22.708  0.00  0.00    +0.040 C 
ATOM     23  C   UNL     1      23.065   2.952  21.298  0.00  0.00    +0.020 C 
ATOM     24  C   UNL     1      22.592   2.619  23.748  0.00  0.00    +0.020 C 
ATOM     25  C   UNL     1      24.735   3.636  23.007  0.00  0.00    +0.020 C 
ENDBRANCH  20  21
ENDBRANCH  14  18
ENDBRANCH   9  14
TORSDOF 8
ENDMDL
MODEL 4
REMARK VINA RESULT:      -6.1     28.097     31.185
REMARK  Name = 38031212
REMARK  14 active torsions:
REMARK  status: ('A' for Active; 'I' for Inactive)
REMARK    1  A    between atoms: N_2  and  C_13
REMARK    2  A    between atoms: N_2  and  C_19
REMARK    3  A    between atoms: C_6  and  C_10
REMARK    4  A    between atoms: C_7  and  C_13
REMARK    5  A    between atoms: C_9  and  C_14
REMARK    6  A    between atoms: C_10  and  C_15
REMARK    7  A    between atoms: C_10  and  C_16
REMARK    8  A    between atoms: C_11  and  C_17
REMARK    9  A    between atoms: C_14  and  C_18
REMARK   10  A    between atoms: C_19  and  C_22
REMARK   11  A    between atoms: C_20  and  C_21
REMARK   12  A    between atoms: C_21  and  C_23
REMARK   13  A    between atoms: C_21  and  C_24
REMARK   14  A    between atoms: C_21  and  C_25
REMARK                            x       y       z     vdW  Elec       q    Type
REMARK                         _______ _______ _______ _____ _____    ______ ____
ROOT
ATOM      6  C   UNL     1      14.164   8.912  20.359  0.00  0.00    +0.000 C 
ATOM      7  C   UNL     1      14.218   7.470  19.792  0.00  0.00    +0.029 C 
ATOM      8  C   UNL     1      13.681   8.896  21.817  0.00  0.00    +0.012 C 
ATOM      9  C   UNL     1      12.285   8.263  21.962  0.00  0.00    +0.024 C 
ATOM     11  C   UNL     1      12.177   6.958  21.199  0.00  0.00    -0.073 C 
ATOM     12  C   UNL     1      13.057   6.614  20.243  0.00  0.00    -0.023 C 
ATOM     17  C   UNL     1      11.058   6.035  21.593  0.00  0.00    +0.039 C 
ENDROOT
BRANCH   6  10
ATOM     10  C   UNL     1      15.527   9.608  20.271  0.00  0.00    -0.013 C 
ATOM     15  C   UNL     1      15.437  11.024  20.832  0.00  0.00    +0.007 C 
ATOM     16  C   UNL     1      16.587   8.799  21.011  0.00  0.00    +0.007 C 
ENDBRANCH   6  10
BRANCH   7  13
ATOM     13  C   UNL     1      14.280   7.482  18.260  0.00  0.00    +0.089 C 
BRANCH  13   2
ATOM      2  N   UNL     1      12.946   7.400  17.691  0.00  0.00    -0.311 NA
ATOM     30  H   UNL     1      12.964   6.840  16.838  0.00  0.00    +0.122 HD
BRANCH   2  19
ATOM     19  C   UNL     1      12.424   8.726  17.383  0.00  0.00    +0.117 C 
BRANCH  19  22
ATOM      5  N   UNL     1      14.922   9.888  14.788  0.00  0.00    -0.263 NA
ATOM     22  C   UNL     1      13.442   9.579  16.674  0.00  0.00    -0.016 A 
ATOM     26  C   UNL     1      13.849  10.798  17.203  0.00  0.00    +0.008 A 
ATOM     27  C   UNL     1      14.003   9.172  15.475  0.00  0.00    +0.115 A 
ATOM     28  C   UNL     1      14.792  11.563  16.526  0.00  0.00    +0.020 A 
ATOM     29  C   UNL     1      15.294  11.068  15.334  0.00  0.00    +0.111 A 
ENDBRANCH  19  22
ENDBRANCH   2  19
ENDBRANCH  13   2
ENDBRANCH   7  13
BRANCH   9  14
ATOM     14  C   UNL     1      11.187   9.242  21.531  0.00  0.00    +0.105 C 
BRANCH  14  18
ATOM      1  O   UNL     1      11.537  10.922  23.265  0.00  0.00    -0.424 OA
ATOM      3  N   UNL     1      11.807  11.689  21.181  0.00  0.00    -0.112 NA
ATOM      4  N   UNL     1      12.034  12.737  22.055  0.00  0.00    -0.112 NA
ATOM     18  C   UNL     1      11.520  10.652  21.933  0.00  0.00    +0.218 A 
ATOM     20  C   UNL     1      11.866  12.243  23.259  0.00  0.00    +0.223 A 
BRANCH  20  21
ATOM     21  C   UNL     1      11.984  12.903  24.565  0.00  0.00    +0.040 C 
ATOM     23  C   UNL     1      12.297  14.434  24.425  0.00  0.00    +0.020 C 
ATOM     24  C   UNL     1      13.135  12.287  25.435  0.00  0.00    +0.020 C 
ATOM     25  C   UNL     1      10.713  12.843  25.492  0.00  0.00    +0.020 C 
ENDBRANCH  20  21
ENDBRANCH  14  18
ENDBRANCH   9  14
TORSDOF 8
ENDMDL
MODEL 5
REMARK VINA RESULT:      -6.1     31.305     34.423
REMARK  Name = 38031212
REMARK  14 active torsions:
REMARK  status: ('A' for Active; 'I' for Inactive)
REMARK    1  A    between atoms: N_2  and  C_13
REMARK    2  A    between atoms: N_2  and  C_19
REMARK    3  A    between atoms: C_6  and  C_10
REMARK    4  A    between atoms: C_7  and  C_13
REMARK    5  A    between atoms: C_9  and  C_14
REMARK    6  A    between atoms: C_10  and  C_15
REMARK    7  A    between atoms: C_10  and  C_16
REMARK    8  A    between atoms: C_11  and  C_17
REMARK    9  A    between atoms: C_14  and  C_18
REMARK   10  A    between atoms: C_19  and  C_22
REMARK   11  A    between atoms: C_20  and  C_21
REMARK   12  A    between atoms: C_21  and  C_23
REMARK   13  A    between atoms: C_21  and  C_24
REMARK   14  A    between atoms: C_21  and  C_25
REMARK                            x       y       z     vdW  Elec       q    Type
REMARK                         _______ _______ _______ _____ _____    ______ ____
ROOT
ATOM      6  C   UNL     1      16.796   8.576  21.473  0.00  0.00    +0.000 C 
ATOM      7  C   UNL     1      16.046   7.727  20.415  0.00  0.00    +0.029 C 
ATOM      8  C   UNL     1      18.286   8.683  21.114  0.00  0.00    +0.012 C 
ATOM      9  C   UNL     1      18.965   7.304  21.025  0.00  0.00    +0.024 C 
ATOM     11  C   UNL     1      18.143   6.323  20.213  0.00  0.00    -0.073 C 
ATOM     12  C   UNL     1      16.844   6.535  19.939  0.00  0.00    -0.023 C 
ATOM     17  C   UNL     1      18.861   5.113  19.684  0.00  0.00    +0.039 C 
ENDROOT
BRANCH   6  10
ATOM     10  C   UNL     1      16.192   9.978  21.608  0.00  0.00    -0.013 C 
ATOM     15  C   UNL     1      15.708  10.481  20.252  0.00  0.00    +0.007 C 
ATOM     16  C   UNL     1      15.052   9.971  22.621  0.00  0.00    +0.007 C 
ENDBRANCH   6  10
BRANCH   7  13
ATOM     13  C   UNL     1      14.689   7.253  20.949  0.00  0.00    +0.089 C 
BRANCH  13   2
ATOM      2  N   UNL     1      14.005   6.436  19.962  0.00  0.00    -0.311 NA
ATOM     30  H   UNL     1      14.651   6.173  19.217  0.00  0.00    +0.122 HD
BRANCH   2  19
ATOM     19  C   UNL     1      12.871   7.148  19.385  0.00  0.00    +0.117 C 
BRANCH  19  22
ATOM      5  N   UNL     1      10.553   7.787  22.308  0.00  0.00    -0.263 NA
ATOM     22  C   UNL     1      12.077   7.880  20.433  0.00  0.00    -0.016 A 
ATOM     26  C   UNL     1      12.108   9.267  20.517  0.00  0.00    +0.008 A 
ATOM     27  C   UNL     1      11.291   7.192  21.344  0.00  0.00    +0.115 A 
ATOM     28  C   UNL     1      11.362   9.916  21.496  0.00  0.00    +0.020 A 
ATOM     29  C   UNL     1      10.608   9.137  22.358  0.00  0.00    +0.111 A 
ENDBRANCH  19  22
ENDBRANCH   2  19
ENDBRANCH  13   2
ENDBRANCH   7  13
BRANCH   9  14
ATOM     14  C   UNL     1      19.265   6.744  22.421  0.00  0.00    +0.105 C 
BRANCH  14  18
ATOM      1  O   UNL     1      21.014   5.044  22.435  0.00  0.00    -0.424 OA
ATOM      3  N   UNL     1      21.758   7.124  22.785  0.00  0.00    -0.112 NA
ATOM      4  N   UNL     1      22.845   6.270  22.819  0.00  0.00    -0.112 NA
ATOM     18  C   UNL     1      20.712   6.364  22.559  0.00  0.00    +0.218 A 
ATOM     20  C   UNL     1      22.364   5.068  22.609  0.00  0.00    +0.223 A 
BRANCH  20  21
ATOM     21  C   UNL     1      23.065   3.780  22.536  0.00  0.00    +0.040 C 
ATOM     23  C   UNL     1      22.616   2.799  23.675  0.00  0.00    +0.020 C 
ATOM     24  C   UNL     1      24.619   3.945  22.672  0.00  0.00    +0.020 C 
ATOM     25  C   UNL     1      22.871   2.957  21.207  0.00  0.00    +0.020 C 
ENDBRANCH  20  21
ENDBRANCH  14  18
ENDBRANCH   9  14
TORSDOF 8
ENDMDL
MODEL 6
REMARK VINA RESULT:      -6.0     18.668     20.723
REMARK  Name = 38031212
REMARK  14 active torsions:
REMARK  status: ('A' for Active; 'I' for Inactive)
REMARK    1  A    between atoms: N_2  and  C_13
REMARK    2  A    between atoms: N_2  and  C_19
REMARK    3  A    between atoms: C_6  and  C_10
REMARK    4  A    between atoms: C_7  and  C_13
REMARK    5  A    between atoms: C_9  and  C_14
REMARK    6  A    between atoms: C_10  and  C_15
REMARK    7  A    between atoms: C_10  and  C_16
REMARK    8  A    between atoms: C_11  and  C_17
REMARK    9  A    between atoms: C_14  and  C_18
REMARK   10  A    between atoms: C_19  and  C_22
REMARK   11  A    between atoms: C_20  and  C_21
REMARK   12  A    between atoms: C_21  and  C_23
REMARK   13  A    between atoms: C_21  and  C_24
REMARK   14  A    between atoms: C_21  and  C_25
REMARK                            x       y       z     vdW  Elec       q    Type
REMARK                         _______ _______ _______ _____ _____    ______ ____
ROOT
ATOM      6  C   UNL     1      -9.015  -9.308  16.601  0.00  0.00    +0.000 C 
ATOM      7  C   UNL     1      -9.227 -10.674  17.303  0.00  0.00    +0.029 C 
ATOM      8  C   UNL     1      -9.196  -9.452  15.082  0.00  0.00    +0.012 C 
ATOM      9  C   UNL     1      -8.217 -10.472  14.473  0.00  0.00    +0.024 C 
ATOM     11  C   UNL     1      -8.171 -11.757  15.273  0.00  0.00    -0.073 C 
ATOM     12  C   UNL     1      -8.640 -11.832  16.532  0.00  0.00    -0.023 C 
ATOM     17  C   UNL     1      -7.615 -12.969  14.579  0.00  0.00    +0.039 C 
ENDROOT
BRANCH   6  10
ATOM     10  C   UNL     1      -9.971  -8.238  17.139  0.00  0.00    -0.013 C 
ATOM     15  C   UNL     1     -10.113  -7.099  16.133  0.00  0.00    +0.007 C 
ATOM     16  C   UNL     1     -11.331  -8.851  17.458  0.00  0.00    +0.007 C 
ENDBRANCH   6  10
BRANCH   7  13
ATOM     13  C   UNL     1      -8.651 -10.660  18.723  0.00  0.00    +0.089 C 
BRANCH  13   2
ATOM      2  N   UNL     1      -7.411  -9.905  18.768  0.00  0.00    -0.311 NA
ATOM     30  H   UNL     1      -7.207  -9.514  17.848  0.00  0.00    +0.122 HD
BRANCH   2  19
ATOM     19  C   UNL     1      -6.298 -10.746  19.189  0.00  0.00    +0.117 C 
BRANCH  19  22
ATOM      5  N   UNL     1      -4.602 -12.965  16.634  0.00  0.00    -0.263 NA
ATOM     22  C   UNL     1      -5.448 -11.176  18.024  0.00  0.00    -0.016 A 
ATOM     26  C   UNL     1      -4.739 -10.246  17.272  0.00  0.00    +0.008 A 
ATOM     27  C   UNL     1      -5.348 -12.511  17.667  0.00  0.00    +0.115 A 
ATOM     28  C   UNL     1      -3.961 -10.674  16.201  0.00  0.00    +0.020 A 
ATOM     29  C   UNL     1      -3.926 -12.031  15.926  0.00  0.00    +0.111 A 
ENDBRANCH  19  22
ENDBRANCH   2  19
ENDBRANCH  13   2
ENDBRANCH   7  13
BRANCH   9  14
ATOM     14  C   UNL     1      -6.815  -9.869  14.322  0.00  0.00    +0.105 C 
BRANCH  14  18
ATOM      1  O   UNL     1      -5.239 -10.196  12.488  0.00  0.00    -0.424 OA
ATOM      3  N   UNL     1      -7.117  -9.129  11.903  0.00  0.00    -0.112 NA
ATOM      4  N   UNL     1      -6.322  -9.245  10.777  0.00  0.00    -0.112 NA
ATOM     18  C   UNL     1      -6.444  -9.698  12.876  0.00  0.00    +0.218 A 
ATOM     20  C   UNL     1      -5.238  -9.874  11.165  0.00  0.00    +0.223 A 
BRANCH  20  21
ATOM     21  C   UNL     1      -4.057 -10.270  10.387  0.00  0.00    +0.040 C 
ATOM     23  C   UNL     1      -4.401 -10.504   8.874  0.00  0.00    +0.020 C 
ATOM     24  C   UNL     1      -3.423 -11.604  10.916  0.00  0.00    +0.020 C 
ATOM     25  C   UNL     1      -2.862  -9.245  10.367  0.00  0.00    +0.020 C 
ENDBRANCH  20  21
ENDBRANCH  14  18
ENDBRANCH   9  14
TORSDOF 8
ENDMDL
MODEL 7
REMARK VINA RESULT:      -6.0     32.441     35.773
REMARK  Name = 38031212
REMARK  14 active torsions:
REMARK  status: ('A' for Active; 'I' for Inactive)
REMARK    1  A    between atoms: N_2  and  C_13
REMARK    2  A    between atoms: N_2  and  C_19
REMARK    3  A    between atoms: C_6  and  C_10
REMARK    4  A    between atoms: C_7  and  C_13
REMARK    5  A    between atoms: C_9  and  C_14
REMARK    6  A    between atoms: C_10  and  C_15
REMARK    7  A    between atoms: C_10  and  C_16
REMARK    8  A    between atoms: C_11  and  C_17
REMARK    9  A    between atoms: C_14  and  C_18
REMARK   10  A    between atoms: C_19  and  C_22
REMARK   11  A    between atoms: C_20  and  C_21
REMARK   12  A    between atoms: C_21  and  C_23
REMARK   13  A    between atoms: C_21  and  C_24
REMARK   14  A    between atoms: C_21  and  C_25
REMARK                            x       y       z     vdW  Elec       q    Type
REMARK                         _______ _______ _______ _____ _____    ______ ____
ROOT
ATOM      6  C   UNL     1       8.573   8.525   5.062  0.00  0.00    +0.000 C 
ATOM      7  C   UNL     1       8.340   7.616   6.295  0.00  0.00    +0.029 C 
ATOM      8  C   UNL     1       8.481   7.705   3.766  0.00  0.00    +0.012 C 
ATOM      9  C   UNL     1       9.508   6.557   3.729  0.00  0.00    +0.024 C 
ATOM     11  C   UNL     1       9.525   5.774   5.026  0.00  0.00    -0.073 C 
ATOM     12  C   UNL     1       8.986   6.257   6.159  0.00  0.00    -0.023 C 
ATOM     17  C   UNL     1      10.136   4.402   4.980  0.00  0.00    +0.039 C 
ENDROOT
BRANCH   6  10
ATOM     10  C   UNL     1       7.574   9.686   5.014  0.00  0.00    -0.013 C 
ATOM     15  C   UNL     1       8.301  11.019   5.166  0.00  0.00    +0.007 C 
ATOM     16  C   UNL     1       6.777   9.648   3.714  0.00  0.00    +0.007 C 
ENDBRANCH   6  10
BRANCH   7  13
ATOM     13  C   UNL     1       8.834   8.291   7.580  0.00  0.00    +0.089 C 
BRANCH  13   2
ATOM      2  N   UNL     1      10.240   8.006   7.803  0.00  0.00    -0.311 NA
ATOM     30  H   UNL     1      10.407   7.821   8.792  0.00  0.00    +0.122 HD
BRANCH   2  19
ATOM     19  C   UNL     1      11.077   9.120   7.375  0.00  0.00    +0.117 C 
BRANCH  19  22
ATOM      5  N   UNL     1      14.725   9.248   6.371  0.00  0.00    -0.263 NA
ATOM     22  C   UNL     1      12.463   8.668   7.000  0.00  0.00    -0.016 A 
ATOM     26  C   UNL     1      12.781   7.317   6.926  0.00  0.00    +0.008 A 
ATOM     27  C   UNL     1      13.462   9.586   6.716  0.00  0.00    +0.115 A 
ATOM     28  C   UNL     1      14.070   6.930   6.575  0.00  0.00    +0.020 A 
ATOM     29  C   UNL     1      14.996   7.925   6.310  0.00  0.00    +0.111 A 
ENDBRANCH  19  22
ENDBRANCH   2  19
ENDBRANCH  13   2
ENDBRANCH   7  13
BRANCH   9  14
ATOM     14  C   UNL     1      10.908   7.080   3.385  0.00  0.00    +0.105 C 
BRANCH  14  18
ATOM      1  O   UNL     1      12.230   5.495   2.083  0.00  0.00    -0.424 OA
ATOM      3  N   UNL     1      11.088   6.968   0.846  0.00  0.00    -0.112 NA
ATOM      4  N   UNL     1      11.786   6.139  -0.013  0.00  0.00    -0.112 NA
ATOM     18  C   UNL     1      11.378   6.555   2.058  0.00  0.00    +0.218 A 
ATOM     20  C   UNL     1      12.437   5.296   0.753  0.00  0.00    +0.223 A 
BRANCH  20  21
ATOM     21  C   UNL     1      13.332   4.193   0.379  0.00  0.00    +0.040 C 
ATOM     23  C   UNL     1      12.727   3.306  -0.765  0.00  0.00    +0.020 C 
ATOM     24  C   UNL     1      13.623   3.235   1.586  0.00  0.00    +0.020 C 
ATOM     25  C   UNL     1      14.757   4.604  -0.151  0.00  0.00    +0.020 C 
ENDBRANCH  20  21
ENDBRANCH  14  18
ENDBRANCH   9  14
TORSDOF 8
ENDMDL
MODEL 8
REMARK VINA RESULT:      -6.0     18.734     21.205
REMARK  Name = 38031212
REMARK  14 active torsions:
REMARK  status: ('A' for Active; 'I' for Inactive)
REMARK    1  A    between atoms: N_2  and  C_13
REMARK    2  A    between atoms: N_2  and  C_19
REMARK    3  A    between atoms: C_6  and  C_10
REMARK    4  A    between atoms: C_7  and  C_13
REMARK    5  A    between atoms: C_9  and  C_14
REMARK    6  A    between atoms: C_10  and  C_15
REMARK    7  A    between atoms: C_10  and  C_16
REMARK    8  A    between atoms: C_11  and  C_17
REMARK    9  A    between atoms: C_14  and  C_18
REMARK   10  A    between atoms: C_19  and  C_22
REMARK   11  A    between atoms: C_20  and  C_21
REMARK   12  A    between atoms: C_21  and  C_23
REMARK   13  A    between atoms: C_21  and  C_24
REMARK   14  A    between atoms: C_21  and  C_25
REMARK                            x       y       z     vdW  Elec       q    Type
REMARK                         _______ _______ _______ _____ _____    ______ ____
ROOT
ATOM      6  C   UNL     1      -6.489 -10.854  15.746  0.00  0.00    +0.000 C 
ATOM      7  C   UNL     1      -7.077 -10.762  17.176  0.00  0.00    +0.029 C 
ATOM      8  C   UNL     1      -5.519 -12.041  15.640  0.00  0.00    +0.012 C 
ATOM      9  C   UNL     1      -4.354 -11.933  16.642  0.00  0.00    +0.024 C 
ATOM     11  C   UNL     1      -4.838 -11.575  18.033  0.00  0.00    -0.073 C 
ATOM     12  C   UNL     1      -6.063 -11.066  18.254  0.00  0.00    -0.023 C 
ATOM     17  C   UNL     1      -3.899 -11.859  19.171  0.00  0.00    +0.039 C 
ENDROOT
BRANCH   6  10
ATOM     10  C   UNL     1      -7.587 -10.986  14.686  0.00  0.00    -0.013 C 
ATOM     15  C   UNL     1      -7.591  -9.766  13.769  0.00  0.00    +0.007 C 
ATOM     16  C   UNL     1      -7.399 -12.267  13.880  0.00  0.00    +0.007 C 
ENDBRANCH   6  10
BRANCH   7  13
ATOM     13  C   UNL     1      -7.696  -9.382  17.431  0.00  0.00    +0.089 C 
BRANCH  13   2
ATOM      2  N   UNL     1      -8.979  -9.509  18.100  0.00  0.00    -0.311 NA
ATOM     30  H   UNL     1      -8.924 -10.222  18.827  0.00  0.00    +0.122 HD
BRANCH   2  19
ATOM     19  C   UNL     1     -10.031  -9.867  17.156  0.00  0.00    +0.117 C 
BRANCH  19  22
ATOM      5  N   UNL     1     -11.465  -7.703  14.401  0.00  0.00    -0.263 NA
ATOM     22  C   UNL     1     -10.566  -8.661  16.431  0.00  0.00    -0.016 A 
ATOM     26  C   UNL     1     -10.662  -7.427  17.065  0.00  0.00    +0.008 A 
ATOM     27  C   UNL     1     -10.978  -8.745  15.110  0.00  0.00    +0.115 A 
ATOM     28  C   UNL     1     -11.159  -6.331  16.368  0.00  0.00    +0.020 A 
ATOM     29  C   UNL     1     -11.544  -6.519  15.051  0.00  0.00    +0.111 A 
ENDBRANCH  19  22
ENDBRANCH   2  19
ENDBRANCH  13   2
ENDBRANCH   7  13
BRANCH   9  14
ATOM     14  C   UNL     1      -3.299 -10.933  16.155  0.00  0.00    +0.105 C 
BRANCH  14  18
ATOM      1  O   UNL     1      -3.556 -10.501  13.768  0.00  0.00    -0.424 OA
ATOM      3  N   UNL     1      -1.999 -12.031  14.258  0.00  0.00    -0.112 NA
ATOM      4  N   UNL     1      -2.039 -11.887  12.884  0.00  0.00    -0.112 NA
ATOM     18  C   UNL     1      -2.902 -11.203  14.731  0.00  0.00    +0.218 A 
ATOM     20  C   UNL     1      -2.961 -10.984  12.643  0.00  0.00    +0.223 A 
BRANCH  20  21
ATOM     21  C   UNL     1      -3.422 -10.437  11.361  0.00  0.00    +0.040 C 
ATOM     23  C   UNL     1      -2.375  -9.453  10.730  0.00  0.00    +0.020 C 
ATOM     24  C   UNL     1      -4.761  -9.635  11.510  0.00  0.00    +0.020 C 
ATOM     25  C   UNL     1      -3.714 -11.486  10.223  0.00  0.00    +0.020 C 
ENDBRANCH  20  21
ENDBRANCH  14  18
ENDBRANCH   9  14
TORSDOF 8
ENDMDL
MODEL 9
REMARK VINA RESULT:      -6.0     20.407     22.720
REMARK  Name = 38031212
REMARK  14 active torsions:
REMARK  status: ('A' for Active; 'I' for Inactive)
REMARK    1  A    between atoms: N_2  and  C_13
REMARK    2  A    between atoms: N_2  and  C_19
REMARK    3  A    between atoms: C_6  and  C_10
REMARK    4  A    between atoms: C_7  and  C_13
REMARK    5  A    between atoms: C_9  and  C_14
REMARK    6  A    between atoms: C_10  and  C_15
REMARK    7  A    between atoms: C_10  and  C_16
REMARK    8  A    between atoms: C_11  and  C_17
REMARK    9  A    between atoms: C_14  and  C_18
REMARK   10  A    between atoms: C_19  and  C_22
REMARK   11  A    between atoms: C_20  and  C_21
REMARK   12  A    between atoms: C_21  and  C_23
REMARK   13  A    between atoms: C_21  and  C_24
REMARK   14  A    between atoms: C_21  and  C_25
REMARK                            x       y       z     vdW  Elec       q    Type
REMARK                         _______ _______ _______ _____ _____    ______ ____
ROOT
ATOM      6  C   UNL     1      -4.213 -11.936  13.243  0.00  0.00    +0.000 C 
ATOM      7  C   UNL     1      -2.714 -11.718  12.915  0.00  0.00    +0.029 C 
ATOM      8  C   UNL     1      -5.054 -11.903  11.957  0.00  0.00    +0.012 C 
ATOM      9  C   UNL     1      -4.909 -10.569  11.201  0.00  0.00    +0.024 C 
ATOM     11  C   UNL     1      -3.459 -10.149  11.072  0.00  0.00    -0.073 C 
ATOM     12  C   UNL     1      -2.490 -10.683  11.837  0.00  0.00    -0.023 C 
ATOM     17  C   UNL     1      -3.139  -9.133  10.012  0.00  0.00    +0.039 C 
ENDROOT
BRANCH   6  10
ATOM     10  C   UNL     1      -4.446 -13.258  13.982  0.00  0.00    -0.013 C 
ATOM     15  C   UNL     1      -5.851 -13.294  14.576  0.00  0.00    +0.007 C 
ATOM     16  C   UNL     1      -4.226 -14.439  13.042  0.00  0.00    +0.007 C 
ENDBRANCH   6  10
BRANCH   7  13
ATOM     13  C   UNL     1      -1.925 -11.328  14.170  0.00  0.00    +0.089 C 
BRANCH  13   2
ATOM      2  N   UNL     1      -2.598 -10.260  14.889  0.00  0.00    -0.311 NA
ATOM     30  H   UNL     1      -2.074  -9.390  14.792  0.00  0.00    +0.122 HD
BRANCH   2  19
ATOM     19  C   UNL     1      -2.734 -10.583  16.304  0.00  0.00    +0.117 C 
BRANCH  19  22
ATOM      5  N   UNL     1      -5.866 -11.677  18.125  0.00  0.00    -0.263 NA
ATOM     22  C   UNL     1      -4.177 -10.663  16.724  0.00  0.00    -0.016 A 
ATOM     26  C   UNL     1      -5.140  -9.848  16.140  0.00  0.00    +0.008 A 
ATOM     27  C   UNL     1      -4.587 -11.553  17.704  0.00  0.00    +0.115 A 
ATOM     28  C   UNL     1      -6.466  -9.946  16.549  0.00  0.00    +0.020 A 
ATOM     29  C   UNL     1      -6.774 -10.868  17.535  0.00  0.00    +0.111 A 
ENDBRANCH  19  22
ENDBRANCH   2  19
ENDBRANCH  13   2
ENDBRANCH   7  13
BRANCH   9  14
ATOM     14  C   UNL     1      -5.742  -9.465  11.862  0.00  0.00    +0.105 C 
BRANCH  14  18
ATOM      1  O   UNL     1      -6.865  -8.550   9.899  0.00  0.00    -0.424 OA
ATOM      3  N   UNL     1      -8.246  -9.486  11.389  0.00  0.00    -0.112 NA
ATOM      4  N   UNL     1      -9.009  -9.013  10.338  0.00  0.00    -0.112 NA
ATOM     18  C   UNL     1      -7.002  -9.192  11.090  0.00  0.00    +0.218 A 
ATOM     20  C   UNL     1      -8.162  -8.476   9.492  0.00  0.00    +0.223 A 
BRANCH  20  21
ATOM     21  C   UNL     1      -8.416  -7.826   8.200  0.00  0.00    +0.040 C 
ATOM     23  C   UNL     1      -9.936  -7.858   7.814  0.00  0.00    +0.020 C 
ATOM     24  C   UNL     1      -7.639  -8.521   7.028  0.00  0.00    +0.020 C 
ATOM     25  C   UNL     1      -8.014  -6.307   8.095  0.00  0.00    +0.020 C 
ENDBRANCH  20  21
ENDBRANCH  14  18
ENDBRANCH   9  14
TORSDOF 8
ENDMDL
MODEL 10
REMARK VINA RESULT:      -5.9     17.951     20.362
REMARK  Name = 38031212
REMARK  14 active torsions:
REMARK  status: ('A' for Active; 'I' for Inactive)
REMARK    1  A    between atoms: N_2  and  C_13
REMARK    2  A    between atoms: N_2  and  C_19
REMARK    3  A    between atoms: C_6  and  C_10
REMARK    4  A    between atoms: C_7  and  C_13
REMARK    5  A    between atoms: C_9  and  C_14
REMARK    6  A    between atoms: C_10  and  C_15
REMARK    7  A    between atoms: C_10  and  C_16
REMARK    8  A    between atoms: C_11  and  C_17
REMARK    9  A    between atoms: C_14  and  C_18
REMARK   10  A    between atoms: C_19  and  C_22
REMARK   11  A    between atoms: C_20  and  C_21
REMARK   12  A    between atoms: C_21  and  C_23
REMARK   13  A    between atoms: C_21  and  C_24
REMARK   14  A    between atoms: C_21  and  C_25
REMARK                            x       y       z     vdW  Elec       q    Type
REMARK                         _______ _______ _______ _____ _____    ______ ____
ROOT
ATOM      6  C   UNL     1      -8.766 -12.481  17.737  0.00  0.00    +0.000 C 
ATOM      7  C   UNL     1      -8.548 -12.736  19.250  0.00  0.00    +0.029 C 
ATOM      8  C   UNL     1      -7.509 -12.868  16.942  0.00  0.00    +0.012 C 
ATOM      9  C   UNL     1      -6.266 -12.079  17.396  0.00  0.00    +0.024 C 
ATOM     11  C   UNL     1      -6.133 -12.059  18.905  0.00  0.00    -0.073 C 
ATOM     12  C   UNL     1      -7.159 -12.368  19.718  0.00  0.00    -0.023 C 
ATOM     17  C   UNL     1      -4.778 -11.718  19.460  0.00  0.00    +0.039 C 
ENDROOT
BRANCH   6  10
ATOM     10  C   UNL     1      -9.977 -13.250  17.200  0.00  0.00    -0.013 C 
ATOM     15  C   UNL     1     -10.662 -12.456  16.092  0.00  0.00    +0.007 C 
ATOM     16  C   UNL     1      -9.553 -14.626  16.697  0.00  0.00    +0.007 C 
ENDBRANCH   6  10
BRANCH   7  13
ATOM     13  C   UNL     1      -9.586 -11.984  20.092  0.00  0.00    +0.089 C 
BRANCH  13   2
ATOM      2  N   UNL     1      -9.425 -10.548  19.944  0.00  0.00    -0.311 NA
ATOM     30  H   UNL     1      -9.099 -10.141  20.820  0.00  0.00    +0.122 HD
BRANCH   2  19
ATOM     19  C   UNL     1     -10.681  -9.916  19.560  0.00  0.00    +0.117 C 
BRANCH  19  22
ATOM      5  N   UNL     1     -11.756  -8.521  16.209  0.00  0.00    -0.263 NA
ATOM     22  C   UNL     1     -10.606  -9.310  18.184  0.00  0.00    -0.016 A 
ATOM     26  C   UNL     1      -9.382  -8.985  17.610  0.00  0.00    +0.008 A 
ATOM     27  C   UNL     1     -11.754  -9.060  17.449  0.00  0.00    +0.115 A 
ATOM     28  C   UNL     1      -9.344  -8.427  16.336  0.00  0.00    +0.020 A 
ATOM     29  C   UNL     1     -10.547  -8.218  15.684  0.00  0.00    +0.111 A 
ENDBRANCH  19  22
ENDBRANCH   2  19
ENDBRANCH  13   2
ENDBRANCH   7  13
BRANCH   9  14
ATOM     14  C   UNL     1      -6.278 -10.656  16.827  0.00  0.00    +0.105 C 
BRANCH  14  18
ATOM      1  O   UNL     1      -4.128 -10.859  15.691  0.00  0.00    -0.424 OA
ATOM      3  N   UNL     1      -5.809 -10.221  14.360  0.00  0.00    -0.112 NA
ATOM      4  N   UNL     1      -4.662 -10.296  13.593  0.00  0.00    -0.112 NA
ATOM     18  C   UNL     1      -5.449 -10.558  15.577  0.00  0.00    +0.218 A 
ATOM     20  C   UNL     1      -3.707 -10.672  14.410  0.00  0.00    +0.223 A 
BRANCH  20  21
ATOM     21  C   UNL     1      -2.284 -10.915  14.138  0.00  0.00    +0.040 C 
ATOM     23  C   UNL     1      -1.358 -10.282  15.235  0.00  0.00    +0.020 C 
ATOM     24  C   UNL     1      -1.835 -10.306  12.764  0.00  0.00    +0.020 C 
ATOM     25  C   UNL     1      -1.838 -12.423  14.066  0.00  0.00    +0.020 C 
ENDBRANCH  20  21
ENDBRANCH  14  18
ENDBRANCH   9  14
TORSDOF 8
ENDMDL
