MODEL 1
REMARK VINA RESULT:      -7.6      0.000      0.000
REMARK  Name = 40777764
REMARK  9 active torsions:
REMARK  status: ('A' for Active; 'I' for Inactive)
REMARK    1  A    between atoms: O_5  and  C_21
REMARK    2  A    between atoms: O_5  and  C_28
REMARK    3  A    between atoms: N_6  and  C_11
REMARK    4  A    between atoms: N_7  and  C_19
REMARK    5  A    between atoms: C_9  and  C_12
REMARK    6  A    between atoms: C_15  and  C_17
REMARK    7  A    between atoms: C_16  and  C_18
REMARK    8  A    between atoms: C_20  and  C_21
REMARK    9  A    between atoms: C_26  and  C_27
REMARK                            x       y       z     vdW  Elec       q    Type
REMARK                         _______ _______ _______ _____ _____    ______ ____
ROOT
ATOM      9  C   UNL     1      17.055   7.746  20.760  0.00  0.00    +0.047 C 
ATOM     10  C   UNL     1      15.997   7.006  21.603  0.00  0.00    +0.039 C 
ATOM     11  C   UNL     1      14.867   8.017  21.839  0.00  0.00    +0.097 C 
ATOM     13  C   UNL     1      16.741   9.187  21.040  0.00  0.00    -0.021 C 
ATOM     14  C   UNL     1      15.547   9.329  21.625  0.00  0.00    -0.009 C 
ENDROOT
BRANCH   9  12
ATOM      7  N   UNL     1      20.388   6.289  21.198  0.00  0.00    -0.236 N 
ATOM      8  N   UNL     1      20.573   7.366  21.981  0.00  0.00    -0.171 NA
ATOM     12  C   UNL     1      18.473   7.334  21.083  0.00  0.00    +0.003 A 
ATOM     15  C   UNL     1      19.146   6.224  20.636  0.00  0.00    +0.046 A 
ATOM     16  C   UNL     1      19.399   8.000  21.908  0.00  0.00    +0.064 A 
ATOM     17  C   UNL     1      18.720   5.132  19.737  0.00  0.00    +0.066 C 
ATOM     18  C   UNL     1      19.208   9.256  22.652  0.00  0.00    +0.068 C 
BRANCH   7  19
ATOM     19  C   UNL     1      21.424   5.371  21.027  0.00  0.00    +0.066 A 
ATOM     22  C   UNL     1      22.559   5.727  20.298  0.00  0.00    +0.028 A 
ATOM     23  C   UNL     1      21.324   4.096  21.584  0.00  0.00    +0.028 A 
ATOM     24  C   UNL     1      23.594   4.808  20.128  0.00  0.00    +0.014 A 
ATOM     25  C   UNL     1      22.359   3.177  21.414  0.00  0.00    +0.014 A 
ATOM     26  C   UNL     1      23.494   3.532  20.685  0.00  0.00    +0.055 A 
BRANCH  26  27
ATOM      1  F   UNL     1      25.144   2.562  19.250  0.00  0.00    -0.166 F 
ATOM      2  F   UNL     1      24.203   1.263  20.717  0.00  0.00    -0.166 F 
ATOM      3  F   UNL     1      25.655   2.752  21.349  0.00  0.00    -0.166 F 
ATOM     27  C   UNL     1      24.602   2.550  20.503  0.00  0.00    +0.417 C 
ENDBRANCH  26  27
ENDBRANCH   7  19
ENDBRANCH   9  12
BRANCH  11   6
ATOM      4  O   UNL     1      12.039   8.349  22.348  0.00  0.00    -0.272 OA
ATOM      6  N   UNL     1      13.793   7.881  20.893  0.00  0.00    -0.306 N 
ATOM     20  C   UNL     1      12.456   8.060  21.230  0.00  0.00    +0.251 C 
ATOM     34  H   UNL     1      14.018   7.606  19.941  0.00  0.00    +0.149 HD
BRANCH  20  21
ATOM     21  C   UNL     1      11.541   7.857  20.042  0.00  0.00    +0.324 C 
BRANCH  21   5
ATOM      5  O   UNL     1      12.249   7.296  18.957  0.00  0.00    -0.483 OA
BRANCH   5  28
ATOM     28  C   UNL     1      12.289   8.023  17.791  0.00  0.00    +0.121 A 
ATOM     29  C   UNL     1      11.102   8.406  17.167  0.00  0.00    +0.045 A 
ATOM     30  C   UNL     1      13.517   8.375  17.230  0.00  0.00    +0.045 A 
ATOM     31  C   UNL     1      11.143   9.143  15.983  0.00  0.00    +0.004 A 
ATOM     32  C   UNL     1      13.557   9.111  16.045  0.00  0.00    +0.004 A 
ATOM     33  C   UNL     1      12.370   9.494  15.422  0.00  0.00    +0.000 A 
ENDBRANCH   5  28
ENDBRANCH  21   5
ENDBRANCH  20  21
ENDBRANCH  11   6
TORSDOF 7
ENDMDL
MODEL 2
REMARK VINA RESULT:      -7.5      5.979     10.928
REMARK  Name = 40777764
REMARK  9 active torsions:
REMARK  status: ('A' for Active; 'I' for Inactive)
REMARK    1  A    between atoms: O_5  and  C_21
REMARK    2  A    between atoms: O_5  and  C_28
REMARK    3  A    between atoms: N_6  and  C_11
REMARK    4  A    between atoms: N_7  and  C_19
REMARK    5  A    between atoms: C_9  and  C_12
REMARK    6  A    between atoms: C_15  and  C_17
REMARK    7  A    between atoms: C_16  and  C_18
REMARK    8  A    between atoms: C_20  and  C_21
REMARK    9  A    between atoms: C_26  and  C_27
REMARK                            x       y       z     vdW  Elec       q    Type
REMARK                         _______ _______ _______ _____ _____    ______ ____
ROOT
ATOM      9  C   UNL     1      20.532   6.575  21.012  0.00  0.00    +0.047 C 
ATOM     10  C   UNL     1      21.729   7.484  20.662  0.00  0.00    +0.039 C 
ATOM     11  C   UNL     1      22.951   6.844  21.333  0.00  0.00    +0.097 C 
ATOM     13  C   UNL     1      21.021   5.857  22.236  0.00  0.00    -0.021 C 
ATOM     14  C   UNL     1      22.338   6.004  22.404  0.00  0.00    -0.009 C 
ENDROOT
BRANCH   9  12
ATOM      7  N   UNL     1      17.163   8.009  21.117  0.00  0.00    -0.236 N 
ATOM      8  N   UNL     1      17.754   8.917  21.913  0.00  0.00    -0.171 NA
ATOM     12  C   UNL     1      19.239   7.335  21.198  0.00  0.00    +0.003 A 
ATOM     15  C   UNL     1      18.009   7.040  20.662  0.00  0.00    +0.046 A 
ATOM     16  C   UNL     1      19.023   8.499  21.959  0.00  0.00    +0.064 A 
ATOM     17  C   UNL     1      17.579   5.939  19.776  0.00  0.00    +0.066 C 
ATOM     18  C   UNL     1      20.005   9.256  22.753  0.00  0.00    +0.068 C 
BRANCH   7  19
ATOM     19  C   UNL     1      15.801   8.121  20.832  0.00  0.00    +0.066 A 
ATOM     22  C   UNL     1      15.382   8.772  19.672  0.00  0.00    +0.028 A 
ATOM     23  C   UNL     1      14.861   7.581  21.709  0.00  0.00    +0.028 A 
ATOM     24  C   UNL     1      14.021   8.883  19.389  0.00  0.00    +0.014 A 
ATOM     25  C   UNL     1      13.499   7.693  21.426  0.00  0.00    +0.014 A 
ATOM     26  C   UNL     1      13.079   8.343  20.266  0.00  0.00    +0.055 A 
BRANCH  26  27
ATOM      1  F   UNL     1      11.077   9.650  20.357  0.00  0.00    -0.166 F 
ATOM      2  F   UNL     1      10.879   7.496  20.574  0.00  0.00    -0.166 F 
ATOM      3  F   UNL     1      11.333   8.361  18.632  0.00  0.00    -0.166 F 
ATOM     27  C   UNL     1      11.623   8.462  19.962  0.00  0.00    +0.417 C 
ENDBRANCH  26  27
ENDBRANCH   7  19
ENDBRANCH   9  12
BRANCH  11   6
ATOM      4  O   UNL     1      25.821   6.486  21.260  0.00  0.00    -0.272 OA
ATOM      6  N   UNL     1      23.698   6.000  20.440  0.00  0.00    -0.306 N 
ATOM     20  C   UNL     1      25.083   5.891  20.478  0.00  0.00    +0.251 C 
ATOM     34  H   UNL     1      23.193   5.487  19.722  0.00  0.00    +0.149 HD
BRANCH  20  21
ATOM     21  C   UNL     1      25.605   4.935  19.427  0.00  0.00    +0.324 C 
BRANCH  21   5
ATOM      5  O   UNL     1      24.821   3.761  19.389  0.00  0.00    -0.483 OA
BRANCH   5  28
ATOM     28  C   UNL     1      25.090   2.796  20.332  0.00  0.00    +0.121 A 
ATOM     29  C   UNL     1      24.096   1.892  20.706  0.00  0.00    +0.045 A 
ATOM     30  C   UNL     1      26.355   2.724  20.915  0.00  0.00    +0.045 A 
ATOM     31  C   UNL     1      24.368   0.915  21.664  0.00  0.00    +0.004 A 
ATOM     32  C   UNL     1      26.626   1.747  21.874  0.00  0.00    +0.004 A 
ATOM     33  C   UNL     1      25.632   0.843  22.247  0.00  0.00    +0.000 A 
ENDBRANCH   5  28
ENDBRANCH  21   5
ENDBRANCH  20  21
ENDBRANCH  11   6
TORSDOF 7
ENDMDL
MODEL 3
REMARK VINA RESULT:      -7.4      1.321      2.162
REMARK  Name = 40777764
REMARK  9 active torsions:
REMARK  status: ('A' for Active; 'I' for Inactive)
REMARK    1  A    between atoms: O_5  and  C_21
REMARK    2  A    between atoms: O_5  and  C_28
REMARK    3  A    between atoms: N_6  and  C_11
REMARK    4  A    between atoms: N_7  and  C_19
REMARK    5  A    between atoms: C_9  and  C_12
REMARK    6  A    between atoms: C_15  and  C_17
REMARK    7  A    between atoms: C_16  and  C_18
REMARK    8  A    between atoms: C_20  and  C_21
REMARK    9  A    between atoms: C_26  and  C_27
REMARK                            x       y       z     vdW  Elec       q    Type
REMARK                         _______ _______ _______ _____ _____    ______ ____
ROOT
ATOM      9  C   UNL     1      17.108   7.617  20.394  0.00  0.00    +0.047 C 
ATOM     10  C   UNL     1      16.355   6.489  19.658  0.00  0.00    +0.039 C 
ATOM     11  C   UNL     1      14.883   6.633  20.066  0.00  0.00    +0.097 C 
ATOM     13  C   UNL     1      16.178   7.940  21.527  0.00  0.00    -0.021 C 
ATOM     14  C   UNL     1      14.967   7.404  21.342  0.00  0.00    -0.009 C 
ENDROOT
BRANCH   9  12
ATOM      7  N   UNL     1      20.416   6.201  21.079  0.00  0.00    -0.236 N 
ATOM      8  N   UNL     1      20.549   7.305  21.834  0.00  0.00    -0.171 NA
ATOM     12  C   UNL     1      18.506   7.227  20.815  0.00  0.00    +0.003 A 
ATOM     15  C   UNL     1      19.211   6.107  20.447  0.00  0.00    +0.046 A 
ATOM     16  C   UNL     1      19.379   7.928  21.669  0.00  0.00    +0.064 A 
ATOM     17  C   UNL     1      18.844   4.981  19.564  0.00  0.00    +0.066 C 
ATOM     18  C   UNL     1      19.137   9.208  22.356  0.00  0.00    +0.068 C 
BRANCH   7  19
ATOM     19  C   UNL     1      21.466   5.284  21.002  0.00  0.00    +0.066 A 
ATOM     22  C   UNL     1      21.314   4.003  21.532  0.00  0.00    +0.028 A 
ATOM     23  C   UNL     1      22.667   5.652  20.397  0.00  0.00    +0.028 A 
ATOM     24  C   UNL     1      22.364   3.088  21.455  0.00  0.00    +0.014 A 
ATOM     25  C   UNL     1      23.717   4.737  20.319  0.00  0.00    +0.014 A 
ATOM     26  C   UNL     1      23.566   3.455  20.849  0.00  0.00    +0.055 A 
BRANCH  26  27
ATOM      1  F   UNL     1      24.294   1.177  20.914  0.00  0.00    -0.166 F 
ATOM      2  F   UNL     1      25.636   2.682  21.726  0.00  0.00    -0.166 F 
ATOM      3  F   UNL     1      25.358   2.511  19.576  0.00  0.00    -0.166 F 
ATOM     27  C   UNL     1      24.688   2.476  20.766  0.00  0.00    +0.417 C 
ENDBRANCH  26  27
ENDBRANCH   7  19
ENDBRANCH   9  12
BRANCH  11   6
ATOM      4  O   UNL     1      12.042   6.420  19.566  0.00  0.00    -0.272 OA
ATOM      6  N   UNL     1      14.111   7.382  19.111  0.00  0.00    -0.306 N 
ATOM     20  C   UNL     1      12.742   7.210  18.940  0.00  0.00    +0.251 C 
ATOM     34  H   UNL     1      14.595   8.041  18.508  0.00  0.00    +0.149 HD
BRANCH  20  21
ATOM     21  C   UNL     1      12.188   8.126  17.870  0.00  0.00    +0.324 C 
BRANCH  21   5
ATOM      5  O   UNL     1      12.424   9.478  18.200  0.00  0.00    -0.483 OA
BRANCH   5  28
ATOM     28  C   UNL     1      13.378  10.145  17.467  0.00  0.00    +0.121 A 
ATOM     29  C   UNL     1      14.308  10.960  18.112  0.00  0.00    +0.045 A 
ATOM     30  C   UNL     1      13.413  10.010  16.079  0.00  0.00    +0.045 A 
ATOM     31  C   UNL     1      15.275  11.638  17.369  0.00  0.00    +0.004 A 
ATOM     32  C   UNL     1      14.379  10.689  15.336  0.00  0.00    +0.004 A 
ATOM     33  C   UNL     1      15.309  11.503  15.982  0.00  0.00    +0.000 A 
ENDBRANCH   5  28
ENDBRANCH  21   5
ENDBRANCH  20  21
ENDBRANCH  11   6
TORSDOF 7
ENDMDL
MODEL 4
REMARK VINA RESULT:      -7.4     28.761     32.217
REMARK  Name = 40777764
REMARK  9 active torsions:
REMARK  status: ('A' for Active; 'I' for Inactive)
REMARK    1  A    between atoms: O_5  and  C_21
REMARK    2  A    between atoms: O_5  and  C_28
REMARK    3  A    between atoms: N_6  and  C_11
REMARK    4  A    between atoms: N_7  and  C_19
REMARK    5  A    between atoms: C_9  and  C_12
REMARK    6  A    between atoms: C_15  and  C_17
REMARK    7  A    between atoms: C_16  and  C_18
REMARK    8  A    between atoms: C_20  and  C_21
REMARK    9  A    between atoms: C_26  and  C_27
REMARK                            x       y       z     vdW  Elec       q    Type
REMARK                         _______ _______ _______ _____ _____    ______ ____
ROOT
ATOM      9  C   UNL     1      -6.074 -11.129  16.771  0.00  0.00    +0.047 C 
ATOM     10  C   UNL     1      -4.831 -10.259  17.048  0.00  0.00    +0.039 C 
ATOM     11  C   UNL     1      -3.645 -11.018  16.438  0.00  0.00    +0.097 C 
ATOM     13  C   UNL     1      -5.474 -12.487  16.547  0.00  0.00    -0.021 C 
ATOM     14  C   UNL     1      -4.152 -12.420  16.363  0.00  0.00    -0.009 C 
ENDROOT
BRANCH   9  12
ATOM      7  N   UNL     1      -8.962 -10.932  19.016  0.00  0.00    -0.236 N 
ATOM      8  N   UNL     1      -8.020 -11.051  19.967  0.00  0.00    -0.171 NA
ATOM     12  C   UNL     1      -7.104 -11.068  17.875  0.00  0.00    +0.003 A 
ATOM     15  C   UNL     1      -8.465 -10.937  17.745  0.00  0.00    +0.046 A 
ATOM     16  C   UNL     1      -6.887 -11.134  19.264  0.00  0.00    +0.064 A 
ATOM     17  C   UNL     1      -9.315 -10.820  16.543  0.00  0.00    +0.066 C 
ATOM     18  C   UNL     1      -5.604 -11.278  19.973  0.00  0.00    +0.068 C 
BRANCH   7  19
ATOM     19  C   UNL     1     -10.304 -10.819  19.381  0.00  0.00    +0.066 A 
ATOM     22  C   UNL     1     -11.039  -9.696  19.001  0.00  0.00    +0.028 A 
ATOM     23  C   UNL     1     -10.910 -11.831  20.126  0.00  0.00    +0.028 A 
ATOM     24  C   UNL     1     -12.380  -9.584  19.367  0.00  0.00    +0.014 A 
ATOM     25  C   UNL     1     -12.251 -11.719  20.492  0.00  0.00    +0.014 A 
ATOM     26  C   UNL     1     -12.987 -10.596  20.113  0.00  0.00    +0.055 A 
BRANCH  26  27
ATOM      1  F   UNL     1     -14.714 -11.061  21.702  0.00  0.00    -0.166 F 
ATOM      2  F   UNL     1     -15.262 -11.058  19.598  0.00  0.00    -0.166 F 
ATOM      3  F   UNL     1     -14.849  -9.185  20.622  0.00  0.00    -0.166 F 
ATOM     27  C   UNL     1     -14.422 -10.476  20.503  0.00  0.00    +0.417 C 
ENDBRANCH  26  27
ENDBRANCH   7  19
ENDBRANCH   9  12
BRANCH  11   6
ATOM      4  O   UNL     1      -1.106 -11.295  15.078  0.00  0.00    -0.272 OA
ATOM      6  N   UNL     1      -3.315 -10.563  15.114  0.00  0.00    -0.306 N 
ATOM     20  C   UNL     1      -2.061 -10.741  14.540  0.00  0.00    +0.251 C 
ATOM     34  H   UNL     1      -4.020 -10.055  14.587  0.00  0.00    +0.149 HD
BRANCH  20  21
ATOM     21  C   UNL     1      -1.993 -10.166  13.141  0.00  0.00    +0.324 C 
BRANCH  21   5
ATOM      5  O   UNL     1      -2.217 -11.172  12.177  0.00  0.00    -0.483 OA
BRANCH   5  28
ATOM     28  C   UNL     1      -2.957 -10.828  11.070  0.00  0.00    +0.121 A 
ATOM     29  C   UNL     1      -3.660 -11.807  10.370  0.00  0.00    +0.045 A 
ATOM     30  C   UNL     1      -3.002  -9.499  10.647  0.00  0.00    +0.045 A 
ATOM     31  C   UNL     1      -4.410 -11.458   9.246  0.00  0.00    +0.004 A 
ATOM     32  C   UNL     1      -3.752  -9.151   9.523  0.00  0.00    +0.004 A 
ATOM     33  C   UNL     1      -4.455 -10.130   8.823  0.00  0.00    +0.000 A 
ENDBRANCH   5  28
ENDBRANCH  21   5
ENDBRANCH  20  21
ENDBRANCH  11   6
TORSDOF 7
ENDMDL
MODEL 5
REMARK VINA RESULT:      -7.3      1.331      2.549
REMARK  Name = 40777764
REMARK  9 active torsions:
REMARK  status: ('A' for Active; 'I' for Inactive)
REMARK    1  A    between atoms: O_5  and  C_21
REMARK    2  A    between atoms: O_5  and  C_28
REMARK    3  A    between atoms: N_6  and  C_11
REMARK    4  A    between atoms: N_7  and  C_19
REMARK    5  A    between atoms: C_9  and  C_12
REMARK    6  A    between atoms: C_15  and  C_17
REMARK    7  A    between atoms: C_16  and  C_18
REMARK    8  A    between atoms: C_20  and  C_21
REMARK    9  A    between atoms: C_26  and  C_27
REMARK                            x       y       z     vdW  Elec       q    Type
REMARK                         _______ _______ _______ _____ _____    ______ ____
ROOT
ATOM      9  C   UNL     1      17.079   7.599  20.505  0.00  0.00    +0.047 C 
ATOM     10  C   UNL     1      16.455   6.611  19.498  0.00  0.00    +0.039 C 
ATOM     11  C   UNL     1      14.968   6.522  19.865  0.00  0.00    +0.097 C 
ATOM     13  C   UNL     1      16.099   7.563  21.641  0.00  0.00    -0.021 C 
ATOM     14  C   UNL     1      14.950   6.979  21.287  0.00  0.00    -0.009 C 
ENDROOT
BRANCH   9  12
ATOM      7  N   UNL     1      20.434   6.261  21.117  0.00  0.00    -0.236 N 
ATOM      8  N   UNL     1      20.584   7.406  21.805  0.00  0.00    -0.171 NA
ATOM     12  C   UNL     1      18.499   7.249  20.884  0.00  0.00    +0.003 A 
ATOM     15  C   UNL     1      19.203   6.119  20.545  0.00  0.00    +0.046 A 
ATOM     16  C   UNL     1      19.399   8.005  21.659  0.00  0.00    +0.064 A 
ATOM     17  C   UNL     1      18.814   4.942  19.741  0.00  0.00    +0.066 C 
ATOM     18  C   UNL     1      19.169   9.318  22.286  0.00  0.00    +0.068 C 
BRANCH   7  19
ATOM     19  C   UNL     1      21.492   5.354  21.043  0.00  0.00    +0.066 A 
ATOM     22  C   UNL     1      22.602   5.641  20.249  0.00  0.00    +0.028 A 
ATOM     23  C   UNL     1      21.437   4.161  21.762  0.00  0.00    +0.028 A 
ATOM     24  C   UNL     1      23.659   4.733  20.176  0.00  0.00    +0.014 A 
ATOM     25  C   UNL     1      22.494   3.253  21.689  0.00  0.00    +0.014 A 
ATOM     26  C   UNL     1      23.605   3.539  20.895  0.00  0.00    +0.055 A 
BRANCH  26  27
ATOM      1  F   UNL     1      25.518   2.729  19.708  0.00  0.00    -0.166 F 
ATOM      2  F   UNL     1      24.314   1.272  20.783  0.00  0.00    -0.166 F 
ATOM      3  F   UNL     1      25.596   2.647  21.874  0.00  0.00    -0.166 F 
ATOM     27  C   UNL     1      24.736   2.570  20.816  0.00  0.00    +0.417 C 
ENDBRANCH  26  27
ENDBRANCH   7  19
ENDBRANCH   9  12
BRANCH  11   6
ATOM      4  O   UNL     1      12.133   6.265  19.348  0.00  0.00    -0.272 OA
ATOM      6  N   UNL     1      14.146   7.401  19.077  0.00  0.00    -0.306 N 
ATOM     20  C   UNL     1      12.785   7.196  18.882  0.00  0.00    +0.251 C 
ATOM     34  H   UNL     1      14.588   8.188  18.610  0.00  0.00    +0.149 HD
BRANCH  20  21
ATOM     21  C   UNL     1      12.171   8.272  18.011  0.00  0.00    +0.324 C 
BRANCH  21   5
ATOM      5  O   UNL     1      11.249   9.045  18.751  0.00  0.00    -0.483 OA
BRANCH   5  28
ATOM     28  C   UNL     1      11.652   9.485  19.990  0.00  0.00    +0.121 A 
ATOM     29  C   UNL     1      11.037   8.989  21.139  0.00  0.00    +0.045 A 
ATOM     30  C   UNL     1      12.672  10.430  20.097  0.00  0.00    +0.045 A 
ATOM     31  C   UNL     1      11.444   9.436  22.396  0.00  0.00    +0.004 A 
ATOM     32  C   UNL     1      13.078  10.878  21.355  0.00  0.00    +0.004 A 
ATOM     33  C   UNL     1      12.464  10.381  22.503  0.00  0.00    +0.000 A 
ENDBRANCH   5  28
ENDBRANCH  21   5
ENDBRANCH  20  21
ENDBRANCH  11   6
TORSDOF 7
ENDMDL
MODEL 6
REMARK VINA RESULT:      -7.2     29.222     31.109
REMARK  Name = 40777764
REMARK  9 active torsions:
REMARK  status: ('A' for Active; 'I' for Inactive)
REMARK    1  A    between atoms: O_5  and  C_21
REMARK    2  A    between atoms: O_5  and  C_28
REMARK    3  A    between atoms: N_6  and  C_11
REMARK    4  A    between atoms: N_7  and  C_19
REMARK    5  A    between atoms: C_9  and  C_12
REMARK    6  A    between atoms: C_15  and  C_17
REMARK    7  A    between atoms: C_16  and  C_18
REMARK    8  A    between atoms: C_20  and  C_21
REMARK    9  A    between atoms: C_26  and  C_27
REMARK                            x       y       z     vdW  Elec       q    Type
REMARK                         _______ _______ _______ _____ _____    ______ ____
ROOT
ATOM      9  C   UNL     1      -4.376 -10.945  10.506  0.00  0.00    +0.047 C 
ATOM     10  C   UNL     1      -5.724 -10.312  10.105  0.00  0.00    +0.039 C 
ATOM     11  C   UNL     1      -5.376  -9.131   9.189  0.00  0.00    +0.097 C 
ATOM     13  C   UNL     1      -3.409  -9.821  10.272  0.00  0.00    -0.021 C 
ATOM     14  C   UNL     1      -3.958  -8.838   9.552  0.00  0.00    -0.009 C 
ENDROOT
BRANCH   9  12
ATOM      7  N   UNL     1      -4.643 -11.801  14.058  0.00  0.00    -0.236 N 
ATOM      8  N   UNL     1      -4.002 -12.916  13.667  0.00  0.00    -0.171 NA
ATOM     12  C   UNL     1      -4.371 -11.501  11.911  0.00  0.00    +0.003 A 
ATOM     15  C   UNL     1      -4.888 -10.921  13.044  0.00  0.00    +0.046 A 
ATOM     16  C   UNL     1      -3.839 -12.727  12.354  0.00  0.00    +0.064 A 
ATOM     17  C   UNL     1      -5.581  -9.632  13.240  0.00  0.00    +0.066 C 
ATOM     18  C   UNL     1      -3.159 -13.759  11.554  0.00  0.00    +0.068 C 
BRANCH   7  19
ATOM     19  C   UNL     1      -4.991 -11.637  15.399  0.00  0.00    +0.066 A 
ATOM     22  C   UNL     1      -4.115 -10.996  16.275  0.00  0.00    +0.028 A 
ATOM     23  C   UNL     1      -6.215 -12.117  15.864  0.00  0.00    +0.028 A 
ATOM     24  C   UNL     1      -4.464 -10.833  17.615  0.00  0.00    +0.014 A 
ATOM     25  C   UNL     1      -6.565 -11.954  17.204  0.00  0.00    +0.014 A 
ATOM     26  C   UNL     1      -5.689 -11.313  18.081  0.00  0.00    +0.055 A 
BRANCH  26  27
ATOM      1  F   UNL     1      -6.233  -9.833  19.881  0.00  0.00    -0.166 F 
ATOM      2  F   UNL     1      -5.120 -11.637  20.366  0.00  0.00    -0.166 F 
ATOM      3  F   UNL     1      -7.230 -11.759  19.855  0.00  0.00    -0.166 F 
ATOM     27  C   UNL     1      -6.062 -11.138  19.514  0.00  0.00    +0.417 C 
ENDBRANCH  26  27
ENDBRANCH   7  19
ENDBRANCH   9  12
BRANCH  11   6
ATOM      4  O   UNL     1      -7.742  -9.202   7.526  0.00  0.00    -0.272 OA
ATOM      6  N   UNL     1      -5.446  -9.471   7.793  0.00  0.00    -0.306 N 
ATOM     20  C   UNL     1      -6.635  -9.478   7.072  0.00  0.00    +0.251 C 
ATOM     34  H   UNL     1      -4.593  -9.754   7.320  0.00  0.00    +0.149 HD
BRANCH  20  21
ATOM     21  C   UNL     1      -6.417  -9.871   5.627  0.00  0.00    +0.324 C 
BRANCH  21   5
ATOM      5  O   UNL     1      -6.378 -11.276   5.493  0.00  0.00    -0.483 OA
BRANCH   5  28
ATOM     28  C   UNL     1      -5.290 -11.815   4.849  0.00  0.00    +0.121 A 
ATOM     29  C   UNL     1      -5.387 -12.187   3.508  0.00  0.00    +0.045 A 
ATOM     30  C   UNL     1      -4.089 -11.994   5.537  0.00  0.00    +0.045 A 
ATOM     31  C   UNL     1      -4.283 -12.735   2.854  0.00  0.00    +0.004 A 
ATOM     32  C   UNL     1      -2.986 -12.543   4.883  0.00  0.00    +0.004 A 
ATOM     33  C   UNL     1      -3.083 -12.914   3.542  0.00  0.00    +0.000 A 
ENDBRANCH   5  28
ENDBRANCH  21   5
ENDBRANCH  20  21
ENDBRANCH  11   6
TORSDOF 7
ENDMDL
MODEL 7
REMARK VINA RESULT:      -7.1      5.917     10.676
REMARK  Name = 40777764
REMARK  9 active torsions:
REMARK  status: ('A' for Active; 'I' for Inactive)
REMARK    1  A    between atoms: O_5  and  C_21
REMARK    2  A    between atoms: O_5  and  C_28
REMARK    3  A    between atoms: N_6  and  C_11
REMARK    4  A    between atoms: N_7  and  C_19
REMARK    5  A    between atoms: C_9  and  C_12
REMARK    6  A    between atoms: C_15  and  C_17
REMARK    7  A    between atoms: C_16  and  C_18
REMARK    8  A    between atoms: C_20  and  C_21
REMARK    9  A    between atoms: C_26  and  C_27
REMARK                            x       y       z     vdW  Elec       q    Type
REMARK                         _______ _______ _______ _____ _____    ______ ____
ROOT
ATOM      9  C   UNL     1      20.118   7.547  21.489  0.00  0.00    +0.047 C 
ATOM     10  C   UNL     1      20.217   6.755  22.809  0.00  0.00    +0.039 C 
ATOM     11  C   UNL     1      21.038   5.500  22.484  0.00  0.00    +0.097 C 
ATOM     13  C   UNL     1      20.378   6.487  20.457  0.00  0.00    -0.021 C 
ATOM     14  C   UNL     1      20.881   5.377  21.004  0.00  0.00    -0.009 C 
ENDROOT
BRANCH   9  12
ATOM      7  N   UNL     1      16.692   8.787  21.106  0.00  0.00    -0.236 N 
ATOM      8  N   UNL     1      17.304   9.984  21.098  0.00  0.00    -0.171 NA
ATOM     12  C   UNL     1      18.805   8.277  21.327  0.00  0.00    +0.003 A 
ATOM     15  C   UNL     1      17.547   7.732  21.241  0.00  0.00    +0.046 A 
ATOM     16  C   UNL     1      18.594   9.666  21.234  0.00  0.00    +0.064 A 
ATOM     17  C   UNL     1      17.099   6.325  21.278  0.00  0.00    +0.066 C 
ATOM     18  C   UNL     1      19.603  10.738  21.269  0.00  0.00    +0.068 C 
BRANCH   7  19
ATOM     19  C   UNL     1      15.304   8.718  20.983  0.00  0.00    +0.066 A 
ATOM     22  C   UNL     1      14.500   8.746  22.122  0.00  0.00    +0.028 A 
ATOM     23  C   UNL     1      14.721   8.620  19.719  0.00  0.00    +0.028 A 
ATOM     24  C   UNL     1      13.112   8.676  21.998  0.00  0.00    +0.014 A 
ATOM     25  C   UNL     1      13.334   8.550  19.595  0.00  0.00    +0.014 A 
ATOM     26  C   UNL     1      12.529   8.578  20.734  0.00  0.00    +0.055 A 
BRANCH  26  27
ATOM      1  F   UNL     1      10.382   9.440  21.344  0.00  0.00    -0.166 F 
ATOM      2  F   UNL     1      10.542   7.300  20.998  0.00  0.00    -0.166 F 
ATOM      3  F   UNL     1      10.601   8.685  19.322  0.00  0.00    -0.166 F 
ATOM     27  C   UNL     1      11.045   8.505  20.602  0.00  0.00    +0.417 C 
ENDBRANCH  26  27
ENDBRANCH   7  19
ENDBRANCH   9  12
BRANCH  11   6
ATOM      4  O   UNL     1      22.514   4.129  24.560  0.00  0.00    -0.272 OA
ATOM      6  N   UNL     1      22.433   5.649  22.801  0.00  0.00    -0.306 N 
ATOM     20  C   UNL     1      23.059   4.945  23.822  0.00  0.00    +0.251 C 
ATOM     34  H   UNL     1      22.978   6.329  22.277  0.00  0.00    +0.149 HD
BRANCH  20  21
ATOM     21  C   UNL     1      24.528   5.297  23.934  0.00  0.00    +0.324 C 
BRANCH  21   5
ATOM      5  O   UNL     1      25.332   4.220  23.505  0.00  0.00    -0.483 OA
BRANCH   5  28
ATOM     28  C   UNL     1      25.208   3.827  22.193  0.00  0.00    +0.121 A 
ATOM     29  C   UNL     1      24.736   2.551  21.889  0.00  0.00    +0.045 A 
ATOM     30  C   UNL     1      25.557   4.705  21.166  0.00  0.00    +0.045 A 
ATOM     31  C   UNL     1      24.611   2.152  20.557  0.00  0.00    +0.004 A 
ATOM     32  C   UNL     1      25.433   4.306  19.835  0.00  0.00    +0.004 A 
ATOM     33  C   UNL     1      24.960   3.029  19.531  0.00  0.00    +0.000 A 
ENDBRANCH   5  28
ENDBRANCH  21   5
ENDBRANCH  20  21
ENDBRANCH  11   6
TORSDOF 7
ENDMDL
MODEL 8
REMARK VINA RESULT:      -7.1     29.097     31.052
REMARK  Name = 40777764
REMARK  9 active torsions:
REMARK  status: ('A' for Active; 'I' for Inactive)
REMARK    1  A    between atoms: O_5  and  C_21
REMARK    2  A    between atoms: O_5  and  C_28
REMARK    3  A    between atoms: N_6  and  C_11
REMARK    4  A    between atoms: N_7  and  C_19
REMARK    5  A    between atoms: C_9  and  C_12
REMARK    6  A    between atoms: C_15  and  C_17
REMARK    7  A    between atoms: C_16  and  C_18
REMARK    8  A    between atoms: C_20  and  C_21
REMARK    9  A    between atoms: C_26  and  C_27
REMARK                            x       y       z     vdW  Elec       q    Type
REMARK                         _______ _______ _______ _____ _____    ______ ____
ROOT
ATOM      9  C   UNL     1     -12.391  10.648  24.781  0.00  0.00    +0.047 C 
ATOM     10  C   UNL     1     -13.665   9.949  24.265  0.00  0.00    +0.039 C 
ATOM     11  C   UNL     1     -13.837  10.411  22.812  0.00  0.00    +0.097 C 
ATOM     13  C   UNL     1     -12.260  11.813  23.844  0.00  0.00    -0.021 C 
ATOM     14  C   UNL     1     -13.047  11.678  22.772  0.00  0.00    -0.009 C 
ENDROOT
BRANCH   9  12
ATOM      7  N   UNL     1     -12.098  11.206  28.390  0.00  0.00    -0.236 N 
ATOM      8  N   UNL     1     -13.175  11.984  28.189  0.00  0.00    -0.171 NA
ATOM     12  C   UNL     1     -12.463  11.019  26.245  0.00  0.00    +0.003 A 
ATOM     15  C   UNL     1     -11.633  10.605  27.257  0.00  0.00    +0.046 A 
ATOM     16  C   UNL     1     -13.394  11.866  26.876  0.00  0.00    +0.064 A 
ATOM     17  C   UNL     1     -10.459   9.708  27.239  0.00  0.00    +0.066 C 
ATOM     18  C   UNL     1     -14.518  12.592  26.262  0.00  0.00    +0.068 C 
BRANCH   7  19
ATOM     19  C   UNL     1     -11.566  11.079  29.674  0.00  0.00    +0.066 A 
ATOM     22  C   UNL     1     -11.799   9.921  30.415  0.00  0.00    +0.028 A 
ATOM     23  C   UNL     1     -10.802  12.112  30.216  0.00  0.00    +0.028 A 
ATOM     24  C   UNL     1     -11.267   9.795  31.698  0.00  0.00    +0.014 A 
ATOM     25  C   UNL     1     -10.270  11.987  31.499  0.00  0.00    +0.014 A 
ATOM     26  C   UNL     1     -10.502  10.829  32.241  0.00  0.00    +0.055 A 
BRANCH  26  27
ATOM      1  F   UNL     1      -9.335  11.832  34.072  0.00  0.00    -0.166 F 
ATOM      2  F   UNL     1      -8.978   9.722  33.691  0.00  0.00    -0.166 F 
ATOM      3  F   UNL     1     -10.862  10.372  34.560  0.00  0.00    -0.166 F 
ATOM     27  C   UNL     1      -9.933  10.694  33.613  0.00  0.00    +0.417 C 
ENDBRANCH  26  27
ENDBRANCH   7  19
ENDBRANCH   9  12
BRANCH  11   6
ATOM      4  O   UNL     1     -14.883   7.807  22.112  0.00  0.00    -0.272 OA
ATOM      6  N   UNL     1     -13.287   9.481  21.863  0.00  0.00    -0.306 N 
ATOM     20  C   UNL     1     -13.861   8.245  21.591  0.00  0.00    +0.251 C 
ATOM     34  H   UNL     1     -12.417   9.723  21.397  0.00  0.00    +0.149 HD
BRANCH  20  21
ATOM     21  C   UNL     1     -13.075   7.472  20.553  0.00  0.00    +0.324 C 
BRANCH  21   5
ATOM      5  O   UNL     1     -11.709   7.824  20.600  0.00  0.00    -0.483 OA
BRANCH   5  28
ATOM     28  C   UNL     1     -11.158   8.353  19.456  0.00  0.00    +0.121 A 
ATOM     29  C   UNL     1     -11.146   7.606  18.278  0.00  0.00    +0.045 A 
ATOM     30  C   UNL     1     -10.608   9.635  19.474  0.00  0.00    +0.045 A 
ATOM     31  C   UNL     1     -10.586   8.141  17.118  0.00  0.00    +0.004 A 
ATOM     32  C   UNL     1     -10.047  10.170  18.314  0.00  0.00    +0.004 A 
ATOM     33  C   UNL     1     -10.036   9.422  17.137  0.00  0.00    +0.000 A 
ENDBRANCH   5  28
ENDBRANCH  21   5
ENDBRANCH  20  21
ENDBRANCH  11   6
TORSDOF 7
ENDMDL
MODEL 9
REMARK VINA RESULT:      -7.0     29.384     33.398
REMARK  Name = 40777764
REMARK  9 active torsions:
REMARK  status: ('A' for Active; 'I' for Inactive)
REMARK    1  A    between atoms: O_5  and  C_21
REMARK    2  A    between atoms: O_5  and  C_28
REMARK    3  A    between atoms: N_6  and  C_11
REMARK    4  A    between atoms: N_7  and  C_19
REMARK    5  A    between atoms: C_9  and  C_12
REMARK    6  A    between atoms: C_15  and  C_17
REMARK    7  A    between atoms: C_16  and  C_18
REMARK    8  A    between atoms: C_20  and  C_21
REMARK    9  A    between atoms: C_26  and  C_27
REMARK                            x       y       z     vdW  Elec       q    Type
REMARK                         _______ _______ _______ _____ _____    ______ ____
ROOT
ATOM      9  C   UNL     1      -8.480  -8.682   5.625  0.00  0.00    +0.047 C 
ATOM     10  C   UNL     1      -7.611  -8.255   4.425  0.00  0.00    +0.039 C 
ATOM     11  C   UNL     1      -8.021  -9.170   3.264  0.00  0.00    +0.097 C 
ATOM     13  C   UNL     1      -8.881 -10.079   5.252  0.00  0.00    -0.021 C 
ATOM     14  C   UNL     1      -8.632 -10.339   3.965  0.00  0.00    -0.009 C 
ENDROOT
BRANCH   9  12
ATOM      7  N   UNL     1      -6.405  -8.819   8.642  0.00  0.00    -0.236 N 
ATOM      8  N   UNL     1      -7.226  -7.837   9.050  0.00  0.00    -0.171 NA
ATOM     12  C   UNL     1      -7.766  -8.563   6.952  0.00  0.00    +0.003 A 
ATOM     15  C   UNL     1      -6.685  -9.288   7.392  0.00  0.00    +0.046 A 
ATOM     16  C   UNL     1      -8.056  -7.685   8.014  0.00  0.00    +0.064 A 
ATOM     17  C   UNL     1      -5.913 -10.364   6.738  0.00  0.00    +0.066 C 
ATOM     18  C   UNL     1      -9.124  -6.673   8.085  0.00  0.00    +0.068 C 
BRANCH   7  19
ATOM     19  C   UNL     1      -5.381  -9.260   9.482  0.00  0.00    +0.066 A 
ATOM     22  C   UNL     1      -4.089  -8.760   9.328  0.00  0.00    +0.028 A 
ATOM     23  C   UNL     1      -5.653 -10.202  10.474  0.00  0.00    +0.028 A 
ATOM     24  C   UNL     1      -3.066  -9.201  10.168  0.00  0.00    +0.014 A 
ATOM     25  C   UNL     1      -4.630 -10.643  11.314  0.00  0.00    +0.014 A 
ATOM     26  C   UNL     1      -3.337 -10.144  11.161  0.00  0.00    +0.055 A 
BRANCH  26  27
ATOM      1  F   UNL     1      -1.029 -10.055  11.784  0.00  0.00    -0.166 F 
ATOM      2  F   UNL     1      -2.050 -11.964  11.988  0.00  0.00    -0.166 F 
ATOM      3  F   UNL     1      -2.468 -10.347  13.380  0.00  0.00    -0.166 F 
ATOM     27  C   UNL     1      -2.244 -10.615  12.060  0.00  0.00    +0.417 C 
ENDBRANCH  26  27
ENDBRANCH   7  19
ENDBRANCH   9  12
BRANCH  11   6
ATOM      4  O   UNL     1      -7.902  -8.931   0.383  0.00  0.00    -0.272 OA
ATOM      6  N   UNL     1      -9.003  -8.570   2.401  0.00  0.00    -0.306 N 
ATOM     20  C   UNL     1      -8.859  -8.500   1.021  0.00  0.00    +0.251 C 
ATOM     34  H   UNL     1      -9.823  -8.144   2.824  0.00  0.00    +0.149 HD
BRANCH  20  21
ATOM     21  C   UNL     1     -10.040  -7.817   0.363  0.00  0.00    +0.324 C 
BRANCH  21   5
ATOM      5  O   UNL     1     -10.567  -8.621  -0.671  0.00  0.00    -0.483 OA
BRANCH   5  28
ATOM     28  C   UNL     1     -10.652  -8.056  -1.922  0.00  0.00    +0.121 A 
ATOM     29  C   UNL     1      -9.848  -8.533  -2.958  0.00  0.00    +0.045 A 
ATOM     30  C   UNL     1     -11.540  -7.006  -2.155  0.00  0.00    +0.045 A 
ATOM     31  C   UNL     1      -9.934  -7.960  -4.227  0.00  0.00    +0.004 A 
ATOM     32  C   UNL     1     -11.624  -6.432  -3.424  0.00  0.00    +0.004 A 
ATOM     33  C   UNL     1     -10.821  -6.909  -4.459  0.00  0.00    +0.000 A 
ENDBRANCH   5  28
ENDBRANCH  21   5
ENDBRANCH  20  21
ENDBRANCH  11   6
TORSDOF 7
ENDMDL
MODEL 10
REMARK VINA RESULT:      -6.8     28.902     32.955
REMARK  Name = 40777764
REMARK  9 active torsions:
REMARK  status: ('A' for Active; 'I' for Inactive)
REMARK    1  A    between atoms: O_5  and  C_21
REMARK    2  A    between atoms: O_5  and  C_28
REMARK    3  A    between atoms: N_6  and  C_11
REMARK    4  A    between atoms: N_7  and  C_19
REMARK    5  A    between atoms: C_9  and  C_12
REMARK    6  A    between atoms: C_15  and  C_17
REMARK    7  A    between atoms: C_16  and  C_18
REMARK    8  A    between atoms: C_20  and  C_21
REMARK    9  A    between atoms: C_26  and  C_27
REMARK                            x       y       z     vdW  Elec       q    Type
REMARK                         _______ _______ _______ _____ _____    ______ ____
ROOT
ATOM      9  C   UNL     1      -8.398  -9.253   5.707  0.00  0.00    +0.047 C 
ATOM     10  C   UNL     1      -7.532  -8.936   4.470  0.00  0.00    +0.039 C 
ATOM     11  C   UNL     1      -7.944  -9.953   3.398  0.00  0.00    +0.097 C 
ATOM     13  C   UNL     1      -8.799 -10.679   5.462  0.00  0.00    -0.021 C 
ATOM     14  C   UNL     1      -8.552 -11.054   4.203  0.00  0.00    -0.009 C 
ENDROOT
BRANCH   9  12
ATOM      7  N   UNL     1      -6.296  -9.091   8.703  0.00  0.00    -0.236 N 
ATOM      8  N   UNL     1      -7.167  -8.130   9.058  0.00  0.00    -0.171 NA
ATOM     12  C   UNL     1      -7.682  -9.013   7.016  0.00  0.00    +0.003 A 
ATOM     15  C   UNL     1      -6.561  -9.651   7.487  0.00  0.00    +0.046 A 
ATOM     16  C   UNL     1      -8.011  -8.087   8.024  0.00  0.00    +0.064 A 
ATOM     17  C   UNL     1      -5.737 -10.723   6.893  0.00  0.00    +0.066 C 
ATOM     18  C   UNL     1      -9.132  -7.132   8.044  0.00  0.00    +0.068 C 
BRANCH   7  19
ATOM     19  C   UNL     1      -5.244  -9.423   9.557  0.00  0.00    +0.066 A 
ATOM     22  C   UNL     1      -5.442 -10.351  10.579  0.00  0.00    +0.028 A 
ATOM     23  C   UNL     1      -3.996  -8.824   9.389  0.00  0.00    +0.028 A 
ATOM     24  C   UNL     1      -4.389 -10.681  11.433  0.00  0.00    +0.014 A 
ATOM     25  C   UNL     1      -2.943  -9.155  10.242  0.00  0.00    +0.014 A 
ATOM     26  C   UNL     1      -3.140 -10.083  11.265  0.00  0.00    +0.055 A 
BRANCH  26  27
ATOM      1  F   UNL     1      -2.247 -10.115  13.484  0.00  0.00    -0.166 F 
ATOM      2  F   UNL     1      -0.851  -9.807  11.846  0.00  0.00    -0.166 F 
ATOM      3  F   UNL     1      -1.719 -11.771  12.188  0.00  0.00    -0.166 F 
ATOM     27  C   UNL     1      -2.015 -10.438  12.178  0.00  0.00    +0.417 C 
ENDBRANCH  26  27
ENDBRANCH   7  19
ENDBRANCH   9  12
BRANCH  11   6
ATOM      4  O   UNL     1      -7.478  -8.239   1.115  0.00  0.00    -0.272 OA
ATOM      6  N   UNL     1      -8.928  -9.435   2.487  0.00  0.00    -0.306 N 
ATOM     20  C   UNL     1      -8.609  -8.613   1.412  0.00  0.00    +0.251 C 
ATOM     34  H   UNL     1      -9.906  -9.649   2.658  0.00  0.00    +0.149 HD
BRANCH  20  21
ATOM     21  C   UNL     1      -9.837  -8.216   0.620  0.00  0.00    +0.324 C 
BRANCH  21   5
ATOM      5  O   UNL     1     -10.573  -7.226   1.307  0.00  0.00    -0.483 OA
BRANCH   5  28
ATOM     28  C   UNL     1     -11.132  -6.223   0.550  0.00  0.00    +0.121 A 
ATOM     29  C   UNL     1     -10.849  -4.889   0.843  0.00  0.00    +0.045 A 
ATOM     30  C   UNL     1     -11.985  -6.538  -0.508  0.00  0.00    +0.045 A 
ATOM     31  C   UNL     1     -11.417  -3.871   0.077  0.00  0.00    +0.004 A 
ATOM     32  C   UNL     1     -12.553  -5.520  -1.273  0.00  0.00    +0.004 A 
ATOM     33  C   UNL     1     -12.269  -4.186  -0.980  0.00  0.00    +0.000 A 
ENDBRANCH   5  28
ENDBRANCH  21   5
ENDBRANCH  20  21
ENDBRANCH  11   6
TORSDOF 7
ENDMDL
