MODEL 1
REMARK VINA RESULT:      -7.2      0.000      0.000
REMARK  Name = 11887646
REMARK  7 active torsions:
REMARK  status: ('A' for Active; 'I' for Inactive)
REMARK    1  A    between atoms: S_1  and  N_8
REMARK    2  A    between atoms: S_1  and  C_17
REMARK    3  A    between atoms: O_6  and  C_25
REMARK    4  A    between atoms: O_6  and  C_29
REMARK    5  A    between atoms: O_7  and  C_28
REMARK    6  A    between atoms: O_7  and  C_30
REMARK    7  A    between atoms: N_10  and  C_18
REMARK                            x       y       z     vdW  Elec       q    Type
REMARK                         _______ _______ _______ _____ _____    ______ ____
ROOT
ATOM      2  O   UNL     1     -15.752   3.492  26.769  0.00  0.00    -0.273 OA
ATOM      5  O   UNL     1     -17.048   2.151  22.450  0.00  0.00    -0.252 OA
ATOM      8  N   UNL     1     -16.980   1.368  27.810  0.00  0.00    -0.163 NA
ATOM      9  N   UNL     1     -17.606   0.906  24.249  0.00  0.00    -0.294 N 
ATOM     10  N   UNL     1     -16.398   2.923  24.579  0.00  0.00    -0.193 N 
ATOM     11  C   UNL     1     -17.646   0.630  25.655  0.00  0.00    +0.103 C 
ATOM     12  C   UNL     1     -16.486   1.251  26.402  0.00  0.00    +0.186 C 
ATOM     13  C   UNL     1     -18.869   1.187  26.367  0.00  0.00    +0.041 C 
ATOM     14  C   UNL     1     -18.449   1.090  27.827  0.00  0.00    +0.112 C 
ATOM     15  C   UNL     1     -16.170   2.666  25.954  0.00  0.00    +0.248 C 
ATOM     16  C   UNL     1     -17.031   2.023  23.678  0.00  0.00    +0.313 C 
ATOM     36  H   UNL     1     -18.063   0.247  23.627  0.00  0.00    +0.151 HD
ENDROOT
BRANCH  10  18
ATOM     18  C   UNL     1     -15.946   4.194  24.046  0.00  0.00    +0.046 A 
ATOM     21  C   UNL     1     -16.840   5.251  23.949  0.00  0.00    +0.027 A 
ATOM     22  C   UNL     1     -14.626   4.334  23.639  0.00  0.00    +0.027 A 
ATOM     26  C   UNL     1     -16.405   6.473  23.435  0.00  0.00    +0.048 A 
ATOM     27  C   UNL     1     -14.192   5.555  23.125  0.00  0.00    +0.048 A 
ATOM     28  C   UNL     1     -15.081   6.625  23.023  0.00  0.00    +0.129 A 
BRANCH  28   7
ATOM      7  O   UNL     1     -14.657   7.818  22.523  0.00  0.00    -0.456 OA
BRANCH   7  30
ATOM     30  C   UNL     1     -14.009   7.808  21.299  0.00  0.00    +0.128 A 
ATOM     31  C   UNL     1     -14.760   7.803  20.139  0.00  0.00    +0.046 A 
ATOM     32  C   UNL     1     -12.625   7.803  21.270  0.00  0.00    +0.046 A 
ATOM     33  C   UNL     1     -14.107   7.792  18.905  0.00  0.00    +0.004 A 
ATOM     34  C   UNL     1     -11.972   7.792  20.038  0.00  0.00    +0.004 A 
ATOM     35  C   UNL     1     -12.713   7.786  18.855  0.00  0.00    +0.000 A 
ENDBRANCH   7  30
ENDBRANCH  28   7
ENDBRANCH  10  18
BRANCH   8   1
ATOM      1  S   UNL     1     -16.039   0.665  29.042  0.00  0.00    +0.062 S 
ATOM      3  O   UNL     1     -14.816   0.131  28.471  0.00  0.00    -0.153 OA
ATOM      4  O   UNL     1     -16.885  -0.165  29.878  0.00  0.00    -0.153 OA
BRANCH   1  17
ATOM     17  C   UNL     1     -15.607   2.102  29.975  0.00  0.00    +0.106 A 
ATOM     19  C   UNL     1     -16.589   3.028  30.283  0.00  0.00    +0.032 A 
ATOM     20  C   UNL     1     -14.295   2.277  30.380  0.00  0.00    +0.032 A 
ATOM     23  C   UNL     1     -16.250   4.163  31.019  0.00  0.00    +0.047 A 
ATOM     24  C   UNL     1     -13.954   3.411  31.116  0.00  0.00    +0.047 A 
ATOM     25  C   UNL     1     -14.932   4.355  31.436  0.00  0.00    +0.120 A 
BRANCH  25   6
ATOM      6  O   UNL     1     -14.599   5.462  32.155  0.00  0.00    -0.495 OA
ATOM     29  C   UNL     1     -14.242   5.264  33.522  0.00  0.00    +0.277 C 
ENDBRANCH  25   6
ENDBRANCH   1  17
ENDBRANCH   8   1
TORSDOF 6
ENDMDL
MODEL 2
REMARK VINA RESULT:      -7.1      2.873      9.517
REMARK  Name = 11887646
REMARK  7 active torsions:
REMARK  status: ('A' for Active; 'I' for Inactive)
REMARK    1  A    between atoms: S_1  and  N_8
REMARK    2  A    between atoms: S_1  and  C_17
REMARK    3  A    between atoms: O_6  and  C_25
REMARK    4  A    between atoms: O_6  and  C_29
REMARK    5  A    between atoms: O_7  and  C_28
REMARK    6  A    between atoms: O_7  and  C_30
REMARK    7  A    between atoms: N_10  and  C_18
REMARK                            x       y       z     vdW  Elec       q    Type
REMARK                         _______ _______ _______ _____ _____    ______ ____
ROOT
ATOM      2  O   UNL     1     -16.060   4.074  30.109  0.00  0.00    -0.273 OA
ATOM      5  O   UNL     1     -14.391   2.062  34.021  0.00  0.00    -0.252 OA
ATOM      8  N   UNL     1     -16.188   1.690  28.924  0.00  0.00    -0.163 NA
ATOM      9  N   UNL     1     -14.916   0.803  32.222  0.00  0.00    -0.294 N 
ATOM     10  N   UNL     1     -15.175   3.159  32.089  0.00  0.00    -0.193 N 
ATOM     11  C   UNL     1     -15.368   0.617  30.875  0.00  0.00    +0.103 C 
ATOM     12  C   UNL     1     -16.298   1.719  30.416  0.00  0.00    +0.186 C 
ATOM     13  C   UNL     1     -14.257   0.630  29.836  0.00  0.00    +0.041 C 
ATOM     14  C   UNL     1     -15.044   0.806  28.544  0.00  0.00    +0.112 C 
ATOM     15  C   UNL     1     -15.842   3.104  30.839  0.00  0.00    +0.248 C 
ATOM     16  C   UNL     1     -14.782   2.024  32.850  0.00  0.00    +0.313 C 
ATOM     36  H   UNL     1     -14.643  -0.023  32.746  0.00  0.00    +0.151 HD
ENDROOT
BRANCH  10  18
ATOM     18  C   UNL     1     -14.878   4.468  32.637  0.00  0.00    +0.046 A 
ATOM     21  C   UNL     1     -15.801   5.086  33.469  0.00  0.00    +0.027 A 
ATOM     22  C   UNL     1     -13.675   5.085  32.320  0.00  0.00    +0.027 A 
ATOM     26  C   UNL     1     -15.514   6.346  33.996  0.00  0.00    +0.048 A 
ATOM     27  C   UNL     1     -13.390   6.345  32.846  0.00  0.00    +0.048 A 
ATOM     28  C   UNL     1     -14.309   6.975  33.684  0.00  0.00    +0.129 A 
BRANCH  28   7
ATOM      7  O   UNL     1     -14.029   8.204  34.199  0.00  0.00    -0.456 OA
BRANCH   7  30
ATOM     30  C   UNL     1     -12.897   8.330  34.986  0.00  0.00    +0.128 A 
ATOM     31  C   UNL     1     -12.752   7.513  36.092  0.00  0.00    +0.046 A 
ATOM     32  C   UNL     1     -11.941   9.270  34.645  0.00  0.00    +0.046 A 
ATOM     33  C   UNL     1     -11.612   7.640  36.886  0.00  0.00    +0.004 A 
ATOM     34  C   UNL     1     -10.801   9.397  35.438  0.00  0.00    +0.004 A 
ATOM     35  C   UNL     1     -10.636   8.582  36.559  0.00  0.00    +0.000 A 
ENDBRANCH   7  30
ENDBRANCH  28   7
ENDBRANCH  10  18
BRANCH   8   1
ATOM      1  S   UNL     1     -17.625   1.534  28.026  0.00  0.00    +0.062 S 
ATOM      3  O   UNL     1     -18.624   2.447  28.551  0.00  0.00    -0.153 OA
ATOM      4  O   UNL     1     -17.933   0.127  27.852  0.00  0.00    -0.153 OA
BRANCH   1  17
ATOM     17  C   UNL     1     -17.097   2.166  26.462  0.00  0.00    +0.106 A 
ATOM     19  C   UNL     1     -16.225   3.240  26.427  0.00  0.00    +0.032 A 
ATOM     20  C   UNL     1     -17.565   1.576  25.301  0.00  0.00    +0.032 A 
ATOM     23  C   UNL     1     -15.807   3.740  25.194  0.00  0.00    +0.047 A 
ATOM     24  C   UNL     1     -17.148   2.075  24.067  0.00  0.00    +0.047 A 
ATOM     25  C   UNL     1     -16.269   3.158  24.014  0.00  0.00    +0.120 A 
BRANCH  25   6
ATOM      6  O   UNL     1     -15.862   3.644  22.809  0.00  0.00    -0.495 OA
ATOM     29  C   UNL     1     -14.981   4.766  22.828  0.00  0.00    +0.277 C 
ENDBRANCH  25   6
ENDBRANCH   1  17
ENDBRANCH   8   1
TORSDOF 6
ENDMDL
MODEL 3
REMARK VINA RESULT:      -7.1     18.851     21.721
REMARK  Name = 11887646
REMARK  7 active torsions:
REMARK  status: ('A' for Active; 'I' for Inactive)
REMARK    1  A    between atoms: S_1  and  N_8
REMARK    2  A    between atoms: S_1  and  C_17
REMARK    3  A    between atoms: O_6  and  C_25
REMARK    4  A    between atoms: O_6  and  C_29
REMARK    5  A    between atoms: O_7  and  C_28
REMARK    6  A    between atoms: O_7  and  C_30
REMARK    7  A    between atoms: N_10  and  C_18
REMARK                            x       y       z     vdW  Elec       q    Type
REMARK                         _______ _______ _______ _____ _____    ______ ____
ROOT
ATOM      2  O   UNL     1      -5.642  -9.910  13.842  0.00  0.00    -0.273 OA
ATOM      5  O   UNL     1      -5.481 -12.794  17.556  0.00  0.00    -0.252 OA
ATOM      8  N   UNL     1      -3.134 -10.560  13.213  0.00  0.00    -0.163 NA
ATOM      9  N   UNL     1      -3.698 -12.596  16.183  0.00  0.00    -0.294 N 
ATOM     10  N   UNL     1      -5.633 -11.291  15.748  0.00  0.00    -0.193 N 
ATOM     11  C   UNL     1      -3.000 -12.044  15.060  0.00  0.00    +0.103 C 
ATOM     12  C   UNL     1      -3.936 -11.575  13.968  0.00  0.00    +0.186 C 
ATOM     13  C   UNL     1      -2.176 -10.807  15.382  0.00  0.00    +0.041 C 
ATOM     14  C   UNL     1      -1.897 -10.250  13.993  0.00  0.00    +0.112 C 
ATOM     15  C   UNL     1      -5.152 -10.835  14.495  0.00  0.00    +0.248 C 
ATOM     16  C   UNL     1      -4.974 -12.243  16.573  0.00  0.00    +0.313 C 
ATOM     36  H   UNL     1      -3.207 -13.276  16.756  0.00  0.00    +0.151 HD
ENDROOT
BRANCH  10  18
ATOM     18  C   UNL     1      -6.894 -10.755  16.221  0.00  0.00    +0.046 A 
ATOM     21  C   UNL     1      -8.084 -11.304  15.767  0.00  0.00    +0.027 A 
ATOM     22  C   UNL     1      -6.893  -9.697  17.121  0.00  0.00    +0.027 A 
ATOM     26  C   UNL     1      -9.298 -10.787  16.222  0.00  0.00    +0.048 A 
ATOM     27  C   UNL     1      -8.106  -9.180  17.575  0.00  0.00    +0.048 A 
ATOM     28  C   UNL     1      -9.308  -9.725  17.126  0.00  0.00    +0.129 A 
BRANCH  28   7
ATOM      7  O   UNL     1     -10.492  -9.222  17.571  0.00  0.00    -0.456 OA
BRANCH   7  30
ATOM     30  C   UNL     1     -11.111  -8.254  16.798  0.00  0.00    +0.128 A 
ATOM     31  C   UNL     1     -12.347  -8.525  16.241  0.00  0.00    +0.046 A 
ATOM     32  C   UNL     1     -10.475  -7.041  16.601  0.00  0.00    +0.046 A 
ATOM     33  C   UNL     1     -12.970  -7.550  15.460  0.00  0.00    +0.004 A 
ATOM     34  C   UNL     1     -11.097  -6.065  15.822  0.00  0.00    +0.004 A 
ATOM     35  C   UNL     1     -12.344  -6.321  15.251  0.00  0.00    +0.000 A 
ENDBRANCH   7  30
ENDBRANCH  28   7
ENDBRANCH  10  18
BRANCH   8   1
ATOM      1  S   UNL     1      -2.965 -10.773  11.534  0.00  0.00    +0.062 S 
ATOM      3  O   UNL     1      -3.003 -12.189  11.220  0.00  0.00    -0.153 OA
ATOM      4  O   UNL     1      -1.879  -9.941  11.051  0.00  0.00    -0.153 OA
BRANCH   1  17
ATOM     17  C   UNL     1      -4.479 -10.061  10.966  0.00  0.00    +0.106 A 
ATOM     19  C   UNL     1      -5.574 -10.882  10.754  0.00  0.00    +0.032 A 
ATOM     20  C   UNL     1      -4.544  -8.697  10.742  0.00  0.00    +0.032 A 
ATOM     23  C   UNL     1      -6.770 -10.322  10.305  0.00  0.00    +0.047 A 
ATOM     24  C   UNL     1      -5.739  -8.136  10.293  0.00  0.00    +0.047 A 
ATOM     25  C   UNL     1      -6.853  -8.948  10.075  0.00  0.00    +0.120 A 
BRANCH  25   6
ATOM      6  O   UNL     1      -8.019  -8.400   9.637  0.00  0.00    -0.495 OA
ATOM     29  C   UNL     1      -7.942  -7.520   8.517  0.00  0.00    +0.277 C 
ENDBRANCH  25   6
ENDBRANCH   1  17
ENDBRANCH   8   1
TORSDOF 6
ENDMDL
MODEL 4
REMARK VINA RESULT:      -7.0      2.117      3.030
REMARK  Name = 11887646
REMARK  7 active torsions:
REMARK  status: ('A' for Active; 'I' for Inactive)
REMARK    1  A    between atoms: S_1  and  N_8
REMARK    2  A    between atoms: S_1  and  C_17
REMARK    3  A    between atoms: O_6  and  C_25
REMARK    4  A    between atoms: O_6  and  C_29
REMARK    5  A    between atoms: O_7  and  C_28
REMARK    6  A    between atoms: O_7  and  C_30
REMARK    7  A    between atoms: N_10  and  C_18
REMARK                            x       y       z     vdW  Elec       q    Type
REMARK                         _______ _______ _______ _____ _____    ______ ____
ROOT
ATOM      2  O   UNL     1     -15.389   3.961  24.570  0.00  0.00    -0.273 OA
ATOM      5  O   UNL     1     -17.359   5.064  20.442  0.00  0.00    -0.252 OA
ATOM      8  N   UNL     1     -17.594   2.646  25.285  0.00  0.00    -0.163 NA
ATOM      9  N   UNL     1     -18.484   3.812  21.947  0.00  0.00    -0.294 N 
ATOM     10  N   UNL     1     -16.314   4.600  22.502  0.00  0.00    -0.193 N 
ATOM     11  C   UNL     1     -18.633   3.155  23.212  0.00  0.00    +0.103 C 
ATOM     12  C   UNL     1     -17.307   2.754  23.820  0.00  0.00    +0.186 C 
ATOM     13  C   UNL     1     -19.276   4.013  24.290  0.00  0.00    +0.041 C 
ATOM     14  C   UNL     1     -18.946   3.226  25.551  0.00  0.00    +0.112 C 
ATOM     15  C   UNL     1     -16.237   3.822  23.684  0.00  0.00    +0.248 C 
ATOM     16  C   UNL     1     -17.382   4.549  21.564  0.00  0.00    +0.313 C 
ATOM     36  H   UNL     1     -19.259   3.759  21.294  0.00  0.00    +0.151 HD
ENDROOT
BRANCH  10  18
ATOM     18  C   UNL     1     -15.221   5.511  22.221  0.00  0.00    +0.046 A 
ATOM     21  C   UNL     1     -13.969   5.001  21.909  0.00  0.00    +0.027 A 
ATOM     22  C   UNL     1     -15.443   6.881  22.271  0.00  0.00    +0.027 A 
ATOM     26  C   UNL     1     -12.917   5.878  21.640  0.00  0.00    +0.048 A 
ATOM     27  C   UNL     1     -14.391   7.757  22.004  0.00  0.00    +0.048 A 
ATOM     28  C   UNL     1     -13.128   7.255  21.688  0.00  0.00    +0.129 A 
BRANCH  28   7
ATOM      7  O   UNL     1     -12.103   8.111  21.424  0.00  0.00    -0.456 OA
BRANCH   7  30
ATOM     30  C   UNL     1     -11.860   8.436  20.100  0.00  0.00    +0.128 A 
ATOM     31  C   UNL     1     -11.540   7.431  19.207  0.00  0.00    +0.046 A 
ATOM     32  C   UNL     1     -11.944   9.760  19.707  0.00  0.00    +0.046 A 
ATOM     33  C   UNL     1     -11.295   7.759  17.873  0.00  0.00    +0.004 A 
ATOM     34  C   UNL     1     -11.699  10.089  18.373  0.00  0.00    +0.004 A 
ATOM     35  C   UNL     1     -11.374   9.088  17.457  0.00  0.00    +0.000 A 
ENDBRANCH   7  30
ENDBRANCH  28   7
ENDBRANCH  10  18
BRANCH   8   1
ATOM      1  S   UNL     1     -17.205   1.185  26.064  0.00  0.00    +0.062 S 
ATOM      3  O   UNL     1     -16.151   0.510  25.328  0.00  0.00    -0.153 OA
ATOM      4  O   UNL     1     -18.427   0.483  26.409  0.00  0.00    -0.153 OA
BRANCH   1  17
ATOM     17  C   UNL     1     -16.497   1.799  27.562  0.00  0.00    +0.106 A 
ATOM     19  C   UNL     1     -16.406   0.960  28.660  0.00  0.00    +0.032 A 
ATOM     20  C   UNL     1     -16.049   3.107  27.613  0.00  0.00    +0.032 A 
ATOM     23  C   UNL     1     -15.848   1.443  29.843  0.00  0.00    +0.047 A 
ATOM     24  C   UNL     1     -15.491   3.592  28.796  0.00  0.00    +0.047 A 
ATOM     25  C   UNL     1     -15.391   2.759  29.912  0.00  0.00    +0.120 A 
BRANCH  25   6
ATOM      6  O   UNL     1     -14.846   3.232  31.066  0.00  0.00    -0.495 OA
ATOM     29  C   UNL     1     -13.433   3.100  31.217  0.00  0.00    +0.277 C 
ENDBRANCH  25   6
ENDBRANCH   1  17
ENDBRANCH   8   1
TORSDOF 6
ENDMDL
MODEL 5
REMARK VINA RESULT:      -7.0     33.776     38.060
REMARK  Name = 11887646
REMARK  7 active torsions:
REMARK  status: ('A' for Active; 'I' for Inactive)
REMARK    1  A    between atoms: S_1  and  N_8
REMARK    2  A    between atoms: S_1  and  C_17
REMARK    3  A    between atoms: O_6  and  C_25
REMARK    4  A    between atoms: O_6  and  C_29
REMARK    5  A    between atoms: O_7  and  C_28
REMARK    6  A    between atoms: O_7  and  C_30
REMARK    7  A    between atoms: N_10  and  C_18
REMARK                            x       y       z     vdW  Elec       q    Type
REMARK                         _______ _______ _______ _____ _____    ______ ____
ROOT
ATOM      2  O   UNL     1      13.469   6.584   3.148  0.00  0.00    -0.273 OA
ATOM      5  O   UNL     1      11.759   9.356   6.544  0.00  0.00    -0.252 OA
ATOM      8  N   UNL     1      11.104   5.375   2.928  0.00  0.00    -0.163 NA
ATOM      9  N   UNL     1      10.435   7.825   5.543  0.00  0.00    -0.294 N 
ATOM     10  N   UNL     1      12.712   7.978   4.887  0.00  0.00    -0.193 N 
ATOM     11  C   UNL     1      10.180   6.758   4.622  0.00  0.00    +0.103 C 
ATOM     12  C   UNL     1      11.107   6.787   3.426  0.00  0.00    +0.186 C 
ATOM     13  C   UNL     1      10.388   5.368   5.202  0.00  0.00    +0.041 C 
ATOM     14  C   UNL     1      10.432   4.510   3.945  0.00  0.00    +0.112 C 
ATOM     15  C   UNL     1      12.547   7.095   3.791  0.00  0.00    +0.248 C 
ATOM     16  C   UNL     1      11.659   8.437   5.726  0.00  0.00    +0.313 C 
ATOM     36  H   UNL     1       9.667   8.136   6.129  0.00  0.00    +0.151 HD
ENDROOT
BRANCH  10  18
ATOM     18  C   UNL     1      14.050   8.459   5.172  0.00  0.00    +0.046 A 
ATOM     21  C   UNL     1      14.850   7.764   6.068  0.00  0.00    +0.027 A 
ATOM     22  C   UNL     1      14.511   9.609   4.545  0.00  0.00    +0.027 A 
ATOM     26  C   UNL     1      16.137   8.228   6.342  0.00  0.00    +0.048 A 
ATOM     27  C   UNL     1      15.797  10.073   4.820  0.00  0.00    +0.048 A 
ATOM     28  C   UNL     1      16.610   9.382   5.719  0.00  0.00    +0.129 A 
BRANCH  28   7
ATOM      7  O   UNL     1      17.867   9.834   5.986  0.00  0.00    -0.456 OA
BRANCH   7  30
ATOM     30  C   UNL     1      18.921   8.961   5.780  0.00  0.00    +0.128 A 
ATOM     31  C   UNL     1      19.774   8.676   6.830  0.00  0.00    +0.046 A 
ATOM     32  C   UNL     1      19.094   8.397   4.528  0.00  0.00    +0.046 A 
ATOM     33  C   UNL     1      20.838   7.797   6.623  0.00  0.00    +0.004 A 
ATOM     34  C   UNL     1      20.158   7.518   4.320  0.00  0.00    +0.004 A 
ATOM     35  C   UNL     1      21.029   7.218   5.368  0.00  0.00    +0.000 A 
ENDBRANCH   7  30
ENDBRANCH  28   7
ENDBRANCH  10  18
BRANCH   8   1
ATOM      1  S   UNL     1      10.705   5.112   1.295  0.00  0.00    +0.062 S 
ATOM      3  O   UNL     1      10.244   6.354   0.703  0.00  0.00    -0.153 OA
ATOM      4  O   UNL     1       9.911   3.903   1.182  0.00  0.00    -0.153 OA
BRANCH   1  17
ATOM     17  C   UNL     1      12.305   4.767   0.627  0.00  0.00    +0.106 A 
ATOM     19  C   UNL     1      13.113   3.835   1.255  0.00  0.00    +0.032 A 
ATOM     20  C   UNL     1      12.721   5.435  -0.512  0.00  0.00    +0.032 A 
ATOM     23  C   UNL     1      14.376   3.562   0.729  0.00  0.00    +0.047 A 
ATOM     24  C   UNL     1      13.984   5.163  -1.039  0.00  0.00    +0.047 A 
ATOM     25  C   UNL     1      14.811   4.226  -0.418  0.00  0.00    +0.120 A 
BRANCH  25   6
ATOM      6  O   UNL     1      16.043   3.960  -0.932  0.00  0.00    -0.495 OA
ATOM     29  C   UNL     1      16.480   4.773  -2.020  0.00  0.00    +0.277 C 
ENDBRANCH  25   6
ENDBRANCH   1  17
ENDBRANCH   8   1
TORSDOF 6
ENDMDL
MODEL 6
REMARK VINA RESULT:      -6.9     18.340     20.929
REMARK  Name = 11887646
REMARK  7 active torsions:
REMARK  status: ('A' for Active; 'I' for Inactive)
REMARK    1  A    between atoms: S_1  and  N_8
REMARK    2  A    between atoms: S_1  and  C_17
REMARK    3  A    between atoms: O_6  and  C_25
REMARK    4  A    between atoms: O_6  and  C_29
REMARK    5  A    between atoms: O_7  and  C_28
REMARK    6  A    between atoms: O_7  and  C_30
REMARK    7  A    between atoms: N_10  and  C_18
REMARK                            x       y       z     vdW  Elec       q    Type
REMARK                         _______ _______ _______ _____ _____    ______ ____
ROOT
ATOM      2  O   UNL     1      -6.887 -10.840  15.224  0.00  0.00    -0.273 OA
ATOM      5  O   UNL     1      -7.945 -11.365  19.778  0.00  0.00    -0.252 OA
ATOM      8  N   UNL     1      -4.480 -11.903  15.648  0.00  0.00    -0.163 NA
ATOM      9  N   UNL     1      -5.943 -12.043  18.984  0.00  0.00    -0.294 N 
ATOM     10  N   UNL     1      -7.482 -11.020  17.494  0.00  0.00    -0.193 N 
ATOM     11  C   UNL     1      -4.963 -12.211  17.952  0.00  0.00    +0.103 C 
ATOM     12  C   UNL     1      -5.582 -12.314  16.575  0.00  0.00    +0.186 C 
ATOM     13  C   UNL     1      -3.988 -11.052  17.820  0.00  0.00    +0.041 C 
ATOM     14  C   UNL     1      -3.365 -11.324  16.458  0.00  0.00    +0.112 C 
ATOM     15  C   UNL     1      -6.707 -11.321  16.346  0.00  0.00    +0.248 C 
ATOM     16  C   UNL     1      -7.176 -11.446  18.816  0.00  0.00    +0.313 C 
ATOM     36  H   UNL     1      -5.701 -12.357  19.919  0.00  0.00    +0.151 HD
ENDROOT
BRANCH  10  18
ATOM     18  C   UNL     1      -8.680 -10.225  17.309  0.00  0.00    +0.046 A 
ATOM     21  C   UNL     1      -8.595  -8.840  17.347  0.00  0.00    +0.027 A 
ATOM     22  C   UNL     1      -9.897 -10.861  17.101  0.00  0.00    +0.027 A 
ATOM     26  C   UNL     1      -9.750  -8.076  17.170  0.00  0.00    +0.048 A 
ATOM     27  C   UNL     1     -11.051 -10.097  16.926  0.00  0.00    +0.048 A 
ATOM     28  C   UNL     1     -10.977  -8.705  16.960  0.00  0.00    +0.129 A 
BRANCH  28   7
ATOM      7  O   UNL     1     -12.103  -7.959  16.787  0.00  0.00    -0.456 OA
BRANCH   7  30
ATOM     30  C   UNL     1     -12.286  -7.346  15.559  0.00  0.00    +0.128 A 
ATOM     31  C   UNL     1     -12.664  -8.114  14.473  0.00  0.00    +0.046 A 
ATOM     32  C   UNL     1     -12.085  -5.982  15.450  0.00  0.00    +0.046 A 
ATOM     33  C   UNL     1     -12.847  -7.497  13.235  0.00  0.00    +0.004 A 
ATOM     34  C   UNL     1     -12.268  -5.364  14.213  0.00  0.00    +0.004 A 
ATOM     35  C   UNL     1     -12.649  -6.122  13.105  0.00  0.00    +0.000 A 
ENDBRANCH   7  30
ENDBRANCH  28   7
ENDBRANCH  10  18
BRANCH   8   1
ATOM      1  S   UNL     1      -4.058 -12.974  14.394  0.00  0.00    +0.062 S 
ATOM      3  O   UNL     1      -5.218 -13.763  14.022  0.00  0.00    -0.153 OA
ATOM      4  O   UNL     1      -2.800 -13.620  14.717  0.00  0.00    -0.153 OA
BRANCH   1  17
ATOM     17  C   UNL     1      -3.752 -11.828  13.084  0.00  0.00    +0.106 A 
ATOM     19  C   UNL     1      -2.445 -11.540  12.730  0.00  0.00    +0.032 A 
ATOM     20  C   UNL     1      -4.823 -11.238  12.437  0.00  0.00    +0.032 A 
ATOM     23  C   UNL     1      -2.201 -10.636  11.697  0.00  0.00    +0.047 A 
ATOM     24  C   UNL     1      -4.581 -10.333  11.403  0.00  0.00    +0.047 A 
ATOM     25  C   UNL     1      -3.269 -10.032  11.033  0.00  0.00    +0.120 A 
BRANCH  25   6
ATOM      6  O   UNL     1      -3.033  -9.150  10.024  0.00  0.00    -0.495 OA
ATOM     29  C   UNL     1      -4.130  -8.836   9.167  0.00  0.00    +0.277 C 
ENDBRANCH  25   6
ENDBRANCH   1  17
ENDBRANCH   8   1
TORSDOF 6
ENDMDL
MODEL 7
REMARK VINA RESULT:      -6.8     30.893     34.624
REMARK  Name = 11887646
REMARK  7 active torsions:
REMARK  status: ('A' for Active; 'I' for Inactive)
REMARK    1  A    between atoms: S_1  and  N_8
REMARK    2  A    between atoms: S_1  and  C_17
REMARK    3  A    between atoms: O_6  and  C_25
REMARK    4  A    between atoms: O_6  and  C_29
REMARK    5  A    between atoms: O_7  and  C_28
REMARK    6  A    between atoms: O_7  and  C_30
REMARK    7  A    between atoms: N_10  and  C_18
REMARK                            x       y       z     vdW  Elec       q    Type
REMARK                         _______ _______ _______ _____ _____    ______ ____
ROOT
ATOM      2  O   UNL     1      15.967   6.731  21.131  0.00  0.00    -0.273 OA
ATOM      5  O   UNL     1      19.134  10.201  20.857  0.00  0.00    -0.252 OA
ATOM      8  N   UNL     1      13.988   8.514  21.037  0.00  0.00    -0.163 NA
ATOM      9  N   UNL     1      16.924  10.664  20.823  0.00  0.00    -0.294 N 
ATOM     10  N   UNL     1      17.619   8.405  21.047  0.00  0.00    -0.193 N 
ATOM     11  C   UNL     1      15.537  10.305  20.877  0.00  0.00    +0.103 C 
ATOM     12  C   UNL     1      15.283   8.895  20.390  0.00  0.00    +0.186 C 
ATOM     13  C   UNL     1      14.943  10.313  22.276  0.00  0.00    +0.041 C 
ATOM     14  C   UNL     1      13.647   9.542  22.067  0.00  0.00    +0.112 C 
ATOM     15  C   UNL     1      16.308   7.893  20.890  0.00  0.00    +0.248 C 
ATOM     16  C   UNL     1      17.976   9.777  20.927  0.00  0.00    +0.313 C 
ATOM     36  H   UNL     1      17.152  11.649  20.735  0.00  0.00    +0.151 HD
ENDROOT
BRANCH  10  18
ATOM     18  C   UNL     1      18.681   7.463  21.344  0.00  0.00    +0.046 A 
ATOM     21  C   UNL     1      19.321   7.519  22.574  0.00  0.00    +0.027 A 
ATOM     22  C   UNL     1      19.044   6.520  20.392  0.00  0.00    +0.027 A 
ATOM     26  C   UNL     1      20.343   6.612  22.859  0.00  0.00    +0.048 A 
ATOM     27  C   UNL     1      20.066   5.615  20.676  0.00  0.00    +0.048 A 
ATOM     28  C   UNL     1      20.716   5.661  21.910  0.00  0.00    +0.129 A 
BRANCH  28   7
ATOM      7  O   UNL     1      21.712   4.776  22.188  0.00  0.00    -0.456 OA
BRANCH   7  30
ATOM     30  C   UNL     1      22.865   4.844  21.423  0.00  0.00    +0.128 A 
ATOM     31  C   UNL     1      23.506   6.060  21.277  0.00  0.00    +0.046 A 
ATOM     32  C   UNL     1      23.343   3.692  20.823  0.00  0.00    +0.046 A 
ATOM     33  C   UNL     1      24.666   6.128  20.505  0.00  0.00    +0.004 A 
ATOM     34  C   UNL     1      24.504   3.760  20.051  0.00  0.00    +0.004 A 
ATOM     35  C   UNL     1      25.165   4.978  19.892  0.00  0.00    +0.000 A 
ENDBRANCH   7  30
ENDBRANCH  28   7
ENDBRANCH  10  18
BRANCH   8   1
ATOM      1  S   UNL     1      12.729   7.971  20.029  0.00  0.00    +0.062 S 
ATOM      3  O   UNL     1      11.497   8.649  20.386  0.00  0.00    -0.153 OA
ATOM      4  O   UNL     1      12.774   6.524  19.941  0.00  0.00    -0.153 OA
BRANCH   1  17
ATOM     17  C   UNL     1      13.261   8.619  18.473  0.00  0.00    +0.106 A 
ATOM     19  C   UNL     1      13.822   7.763  17.541  0.00  0.00    +0.032 A 
ATOM     20  C   UNL     1      13.108   9.970  18.215  0.00  0.00    +0.032 A 
ATOM     23  C   UNL     1      14.243   8.273  16.313  0.00  0.00    +0.047 A 
ATOM     24  C   UNL     1      13.529  10.482  16.987  0.00  0.00    +0.047 A 
ATOM     25  C   UNL     1      14.096   9.633  16.036  0.00  0.00    +0.120 A 
BRANCH  25   6
ATOM      6  O   UNL     1      14.506  10.132  14.838  0.00  0.00    -0.495 OA
ATOM     29  C   UNL     1      15.541  11.114  14.864  0.00  0.00    +0.277 C 
ENDBRANCH  25   6
ENDBRANCH   1  17
ENDBRANCH   8   1
TORSDOF 6
ENDMDL
MODEL 8
REMARK VINA RESULT:      -6.7     15.487     18.903
REMARK  Name = 11887646
REMARK  7 active torsions:
REMARK  status: ('A' for Active; 'I' for Inactive)
REMARK    1  A    between atoms: S_1  and  N_8
REMARK    2  A    between atoms: S_1  and  C_17
REMARK    3  A    between atoms: O_6  and  C_25
REMARK    4  A    between atoms: O_6  and  C_29
REMARK    5  A    between atoms: O_7  and  C_28
REMARK    6  A    between atoms: O_7  and  C_30
REMARK    7  A    between atoms: N_10  and  C_18
REMARK                            x       y       z     vdW  Elec       q    Type
REMARK                         _______ _______ _______ _____ _____    ______ ____
ROOT
ATOM      2  O   UNL     1     -11.886  -6.614  13.584  0.00  0.00    -0.273 OA
ATOM      5  O   UNL     1     -14.902  -7.759  17.009  0.00  0.00    -0.252 OA
ATOM      8  N   UNL     1     -13.815  -5.284  12.314  0.00  0.00    -0.163 NA
ATOM      9  N   UNL     1     -15.576  -6.486  15.270  0.00  0.00    -0.294 N 
ATOM     10  N   UNL     1     -13.337  -7.274  15.315  0.00  0.00    -0.193 N 
ATOM     11  C   UNL     1     -15.377  -5.814  14.020  0.00  0.00    +0.103 C 
ATOM     12  C   UNL     1     -13.936  -5.410  13.801  0.00  0.00    +0.186 C 
ATOM     13  C   UNL     1     -15.703  -6.657  12.798  0.00  0.00    +0.041 C 
ATOM     14  C   UNL     1     -15.044  -5.856  11.684  0.00  0.00    +0.112 C 
ATOM     15  C   UNL     1     -12.942  -6.483  14.208  0.00  0.00    +0.248 C 
ATOM     16  C   UNL     1     -14.619  -7.231  15.929  0.00  0.00    +0.313 C 
ATOM     36  H   UNL     1     -16.500  -6.438  15.689  0.00  0.00    +0.151 HD
ENDROOT
BRANCH  10  18
ATOM     18  C   UNL     1     -12.361  -8.192  15.871  0.00  0.00    +0.046 A 
ATOM     21  C   UNL     1     -11.473  -7.742  16.837  0.00  0.00    +0.027 A 
ATOM     22  C   UNL     1     -12.328  -9.507  15.426  0.00  0.00    +0.027 A 
ATOM     26  C   UNL     1     -10.533  -8.625  17.371  0.00  0.00    +0.048 A 
ATOM     27  C   UNL     1     -11.388 -10.389  15.959  0.00  0.00    +0.048 A 
ATOM     28  C   UNL     1     -10.491  -9.948  16.931  0.00  0.00    +0.129 A 
BRANCH  28   7
ATOM      7  O   UNL     1      -9.574 -10.809  17.453  0.00  0.00    -0.456 OA
BRANCH   7  30
ATOM     30  C   UNL     1      -8.236 -10.550  17.209  0.00  0.00    +0.128 A 
ATOM     31  C   UNL     1      -7.838 -10.211  15.929  0.00  0.00    +0.046 A 
ATOM     32  C   UNL     1      -7.333 -10.639  18.253  0.00  0.00    +0.046 A 
ATOM     33  C   UNL     1      -6.489  -9.951  15.684  0.00  0.00    +0.004 A 
ATOM     34  C   UNL     1      -5.984 -10.379  18.008  0.00  0.00    +0.004 A 
ATOM     35  C   UNL     1      -5.562 -10.035  16.723  0.00  0.00    +0.000 A 
ENDBRANCH   7  30
ENDBRANCH  28   7
ENDBRANCH  10  18
BRANCH   8   1
ATOM      1  S   UNL     1     -13.229  -3.814  11.688  0.00  0.00    +0.062 S 
ATOM      3  O   UNL     1     -12.503  -3.103  12.723  0.00  0.00    -0.153 OA
ATOM      4  O   UNL     1     -14.284  -3.154  10.942  0.00  0.00    -0.153 OA
BRANCH   1  17
ATOM     17  C   UNL     1     -12.043  -4.413  10.522  0.00  0.00    +0.106 A 
ATOM     19  C   UNL     1     -11.903  -5.778  10.342  0.00  0.00    +0.032 A 
ATOM     20  C   UNL     1     -11.275  -3.506   9.812  0.00  0.00    +0.032 A 
ATOM     23  C   UNL     1     -10.967  -6.252   9.423  0.00  0.00    +0.047 A 
ATOM     24  C   UNL     1     -10.339  -3.979   8.892  0.00  0.00    +0.047 A 
ATOM     25  C   UNL     1     -10.185  -5.353   8.698  0.00  0.00    +0.120 A 
BRANCH  25   6
ATOM      6  O   UNL     1      -9.271  -5.813   7.800  0.00  0.00    -0.495 OA
ATOM     29  C   UNL     1      -8.343  -6.792   8.264  0.00  0.00    +0.277 C 
ENDBRANCH  25   6
ENDBRANCH   1  17
ENDBRANCH   8   1
TORSDOF 6
ENDMDL
MODEL 9
REMARK VINA RESULT:      -6.6     16.973     19.290
REMARK  Name = 11887646
REMARK  7 active torsions:
REMARK  status: ('A' for Active; 'I' for Inactive)
REMARK    1  A    between atoms: S_1  and  N_8
REMARK    2  A    between atoms: S_1  and  C_17
REMARK    3  A    between atoms: O_6  and  C_25
REMARK    4  A    between atoms: O_6  and  C_29
REMARK    5  A    between atoms: O_7  and  C_28
REMARK    6  A    between atoms: O_7  and  C_30
REMARK    7  A    between atoms: N_10  and  C_18
REMARK                            x       y       z     vdW  Elec       q    Type
REMARK                         _______ _______ _______ _____ _____    ______ ____
ROOT
ATOM      2  O   UNL     1      -8.598 -10.106  15.737  0.00  0.00    -0.273 OA
ATOM      5  O   UNL     1     -11.127  -9.621  19.675  0.00  0.00    -0.252 OA
ATOM      8  N   UNL     1      -6.757 -11.492  17.076  0.00  0.00    -0.163 NA
ATOM      9  N   UNL     1      -9.187 -10.776  19.697  0.00  0.00    -0.294 N 
ATOM     10  N   UNL     1      -9.902  -9.773  17.668  0.00  0.00    -0.193 N 
ATOM     11  C   UNL     1      -7.998 -11.297  19.089  0.00  0.00    +0.103 C 
ATOM     12  C   UNL     1      -8.158 -11.528  17.603  0.00  0.00    +0.186 C 
ATOM     13  C   UNL     1      -6.793 -10.373  19.181  0.00  0.00    +0.041 C 
ATOM     14  C   UNL     1      -5.853 -10.988  18.154  0.00  0.00    +0.112 C 
ATOM     15  C   UNL     1      -8.896 -10.406  16.896  0.00  0.00    +0.248 C 
ATOM     16  C   UNL     1     -10.134 -10.008  19.051  0.00  0.00    +0.313 C 
ATOM     36  H   UNL     1      -9.330 -10.959  20.685  0.00  0.00    +0.151 HD
ENDROOT
BRANCH  10  18
ATOM     18  C   UNL     1     -10.768  -8.821  16.998  0.00  0.00    +0.046 A 
ATOM     21  C   UNL     1     -10.404  -7.483  16.949  0.00  0.00    +0.027 A 
ATOM     22  C   UNL     1     -11.949  -9.263  16.417  0.00  0.00    +0.027 A 
ATOM     26  C   UNL     1     -11.238  -6.568  16.305  0.00  0.00    +0.048 A 
ATOM     27  C   UNL     1     -12.783  -8.347  15.775  0.00  0.00    +0.048 A 
ATOM     28  C   UNL     1     -12.427  -7.000  15.718  0.00  0.00    +0.129 A 
BRANCH  28   7
ATOM      7  O   UNL     1     -13.240  -6.107  15.089  0.00  0.00    -0.456 OA
BRANCH   7  30
ATOM     30  C   UNL     1     -12.894  -5.715  13.807  0.00  0.00    +0.128 A 
ATOM     31  C   UNL     1     -12.877  -6.657  12.796  0.00  0.00    +0.046 A 
ATOM     32  C   UNL     1     -12.573  -4.389  13.572  0.00  0.00    +0.046 A 
ATOM     33  C   UNL     1     -12.527  -6.262  11.504  0.00  0.00    +0.004 A 
ATOM     34  C   UNL     1     -12.224  -3.994  12.281  0.00  0.00    +0.004 A 
ATOM     35  C   UNL     1     -12.201  -4.931  11.247  0.00  0.00    +0.000 A 
ENDBRANCH   7  30
ENDBRANCH  28   7
ENDBRANCH  10  18
BRANCH   8   1
ATOM      1  S   UNL     1      -6.218 -12.824  16.165  0.00  0.00    +0.062 S 
ATOM      3  O   UNL     1      -7.351 -13.453  15.512  0.00  0.00    -0.153 OA
ATOM      4  O   UNL     1      -5.298 -13.612  16.964  0.00  0.00    -0.153 OA
BRANCH   1  17
ATOM     17  C   UNL     1      -5.276 -12.000  14.918  0.00  0.00    +0.106 A 
ATOM     19  C   UNL     1      -3.899 -12.142  14.906  0.00  0.00    +0.032 A 
ATOM     20  C   UNL     1      -5.931 -11.226  13.975  0.00  0.00    +0.032 A 
ATOM     23  C   UNL     1      -3.153 -11.492  13.923  0.00  0.00    +0.047 A 
ATOM     24  C   UNL     1      -5.186 -10.576  12.991  0.00  0.00    +0.047 A 
ATOM     25  C   UNL     1      -3.797 -10.708  12.965  0.00  0.00    +0.120 A 
BRANCH  25   6
ATOM      6  O   UNL     1      -3.071 -10.074  12.004  0.00  0.00    -0.495 OA
ATOM     29  C   UNL     1      -1.655 -10.237  12.048  0.00  0.00    +0.277 C 
ENDBRANCH  25   6
ENDBRANCH   1  17
ENDBRANCH   8   1
TORSDOF 6
ENDMDL
MODEL 10
REMARK VINA RESULT:      -6.6     16.789     20.397
REMARK  Name = 11887646
REMARK  7 active torsions:
REMARK  status: ('A' for Active; 'I' for Inactive)
REMARK    1  A    between atoms: S_1  and  N_8
REMARK    2  A    between atoms: S_1  and  C_17
REMARK    3  A    between atoms: O_6  and  C_25
REMARK    4  A    between atoms: O_6  and  C_29
REMARK    5  A    between atoms: O_7  and  C_28
REMARK    6  A    between atoms: O_7  and  C_30
REMARK    7  A    between atoms: N_10  and  C_18
REMARK                            x       y       z     vdW  Elec       q    Type
REMARK                         _______ _______ _______ _____ _____    ______ ____
ROOT
ATOM      2  O   UNL     1      -9.283  -9.867  38.652  0.00  0.00    -0.273 OA
ATOM      5  O   UNL     1      -4.805  -9.254  39.957  0.00  0.00    -0.252 OA
ATOM      8  N   UNL     1      -8.614 -12.102  37.363  0.00  0.00    -0.163 NA
ATOM      9  N   UNL     1      -5.401 -11.051  38.726  0.00  0.00    -0.294 N 
ATOM     10  N   UNL     1      -7.061  -9.456  39.308  0.00  0.00    -0.193 N 
ATOM     11  C   UNL     1      -6.343 -11.856  38.007  0.00  0.00    +0.103 C 
ATOM     12  C   UNL     1      -7.757 -11.698  38.522  0.00  0.00    +0.186 C 
ATOM     13  C   UNL     1      -6.460 -11.513  36.530  0.00  0.00    +0.041 C 
ATOM     14  C   UNL     1      -7.752 -12.222  36.148  0.00  0.00    +0.112 C 
ATOM     15  C   UNL     1      -8.126 -10.258  38.829  0.00  0.00    +0.248 C 
ATOM     16  C   UNL     1      -5.698  -9.860  39.357  0.00  0.00    +0.313 C 
ATOM     36  H   UNL     1      -4.435 -11.362  38.748  0.00  0.00    +0.151 HD
ENDROOT
BRANCH  10  18
ATOM     18  C   UNL     1      -7.382  -8.127  39.793  0.00  0.00    +0.046 A 
ATOM     21  C   UNL     1      -7.077  -7.022  39.012  0.00  0.00    +0.027 A 
ATOM     22  C   UNL     1      -7.987  -7.980  41.035  0.00  0.00    +0.027 A 
ATOM     26  C   UNL     1      -7.385  -5.744  39.480  0.00  0.00    +0.048 A 
ATOM     27  C   UNL     1      -8.293  -6.703  41.503  0.00  0.00    +0.048 A 
ATOM     28  C   UNL     1      -7.993  -5.585  40.725  0.00  0.00    +0.129 A 
BRANCH  28   7
ATOM      7  O   UNL     1      -8.294  -4.338  41.181  0.00  0.00    -0.456 OA
BRANCH   7  30
ATOM     30  C   UNL     1      -9.044  -3.515  40.357  0.00  0.00    +0.128 A 
ATOM     31  C   UNL     1      -8.691  -2.184  40.233  0.00  0.00    +0.046 A 
ATOM     32  C   UNL     1     -10.127  -4.047  39.680  0.00  0.00    +0.046 A 
ATOM     33  C   UNL     1      -9.447  -1.355  39.404  0.00  0.00    +0.004 A 
ATOM     34  C   UNL     1     -10.883  -3.218  38.851  0.00  0.00    +0.004 A 
ATOM     35  C   UNL     1     -10.543  -1.872  38.713  0.00  0.00    +0.000 A 
ENDBRANCH   7  30
ENDBRANCH  28   7
ENDBRANCH  10  18
BRANCH   8   1
ATOM      1  S   UNL     1      -9.772 -13.322  37.622  0.00  0.00    +0.062 S 
ATOM      3  O   UNL     1     -10.319 -13.195  38.960  0.00  0.00    -0.153 OA
ATOM      4  O   UNL     1      -9.243 -14.592  37.160  0.00  0.00    -0.153 OA
BRANCH   1  17
ATOM     17  C   UNL     1     -11.027 -12.819  36.484  0.00  0.00    +0.106 A 
ATOM     19  C   UNL     1     -11.681 -11.616  36.688  0.00  0.00    +0.032 A 
ATOM     20  C   UNL     1     -11.335 -13.637  35.411  0.00  0.00    +0.032 A 
ATOM     23  C   UNL     1     -12.673 -11.218  35.792  0.00  0.00    +0.047 A 
ATOM     24  C   UNL     1     -12.326 -13.239  34.513  0.00  0.00    +0.047 A 
ATOM     25  C   UNL     1     -12.995 -12.029  34.704  0.00  0.00    +0.120 A 
BRANCH  25   6
ATOM      6  O   UNL     1     -13.962 -11.642  33.828  0.00  0.00    -0.495 OA
ATOM     29  C   UNL     1     -14.455 -12.631  32.926  0.00  0.00    +0.277 C 
ENDBRANCH  25   6
ENDBRANCH   1  17
ENDBRANCH   8   1
TORSDOF 6
ENDMDL
