MODEL 1
REMARK VINA RESULT:      -7.1      0.000      0.000
REMARK  Name = 38030436
REMARK  10 active torsions:
REMARK  status: ('A' for Active; 'I' for Inactive)
REMARK    1  A    between atoms: N_2  and  C_11
REMARK    2  A    between atoms: C_6  and  C_10
REMARK    3  A    between atoms: C_7  and  C_11
REMARK    4  A    between atoms: C_9  and  C_17
REMARK    5  A    between atoms: C_10  and  C_20
REMARK    6  A    between atoms: C_10  and  C_21
REMARK    7  A    between atoms: C_13  and  C_22
REMARK    8  A    between atoms: C_16  and  C_23
REMARK    9  A    between atoms: C_17  and  C_24
REMARK   10  A    between atoms: C_25  and  C_26
REMARK                            x       y       z     vdW  Elec       q    Type
REMARK                         _______ _______ _______ _____ _____    ______ ____
ROOT
ATOM      6  C   UNL     1      -5.472 -10.466  10.625  0.00  0.00    +0.000 C 
ATOM      7  C   UNL     1      -4.672 -10.103   9.352  0.00  0.00    +0.029 C 
ATOM      8  C   UNL     1      -4.575 -11.192  11.637  0.00  0.00    +0.012 C 
ATOM      9  C   UNL     1      -3.320 -10.384  12.031  0.00  0.00    +0.024 C 
ATOM     12  C   UNL     1      -3.309  -9.540   9.666  0.00  0.00    -0.023 C 
ATOM     13  C   UNL     1      -2.694  -9.645  10.858  0.00  0.00    -0.073 C 
ATOM     22  C   UNL     1      -1.369  -8.971  11.090  0.00  0.00    +0.039 C 
ENDROOT
BRANCH   6  10
ATOM     10  C   UNL     1      -6.121  -9.223  11.251  0.00  0.00    -0.013 C 
ATOM     20  C   UNL     1      -7.266  -8.722  10.376  0.00  0.00    +0.007 C 
ATOM     21  C   UNL     1      -6.614  -9.533  12.661  0.00  0.00    +0.007 C 
ENDBRANCH   6  10
BRANCH   7  11
ATOM     11  C   UNL     1      -4.517 -11.307   8.419  0.00  0.00    +0.092 C 
BRANCH  11   2
ATOM      2  N   UNL     1      -5.003 -10.987   7.076  0.00  0.00    -0.302 NA
ATOM     14  C   UNL     1      -6.016  -9.924   7.137  0.00  0.00    +0.084 C 
ATOM     15  C   UNL     1      -5.536 -12.190   6.422  0.00  0.00    +0.084 C 
ATOM     16  C   UNL     1      -7.039 -10.758   4.979  0.00  0.00    -0.012 C 
ATOM     18  C   UNL     1      -6.497  -9.541   5.735  0.00  0.00    +0.018 C 
ATOM     19  C   UNL     1      -5.999 -11.883   4.996  0.00  0.00    +0.018 C 
ATOM     23  C   UNL     1      -7.424 -10.388   3.549  0.00  0.00    +0.007 C 
ENDBRANCH  11   2
ENDBRANCH   7  11
BRANCH   9  17
ATOM     17  C   UNL     1      -2.336 -11.323  12.739  0.00  0.00    +0.105 C 
BRANCH  17  24
ATOM      1  O   UNL     1      -3.586 -11.090  14.821  0.00  0.00    -0.420 OA
ATOM      3  N   UNL     1      -1.365 -10.976  15.068  0.00  0.00    -0.112 NA
ATOM      4  N   UNL     1      -1.942 -10.830  16.316  0.00  0.00    -0.107 NA
ATOM     24  C   UNL     1      -2.362 -11.125  14.227  0.00  0.00    +0.218 A 
ATOM     25  C   UNL     1      -3.238 -10.903  16.124  0.00  0.00    +0.250 A 
BRANCH  25  26
ATOM      5  N   UNL     1      -6.529  -9.982  17.589  0.00  0.00    -0.263 NA
ATOM     26  C   UNL     1      -4.324 -10.818  17.058  0.00  0.00    +0.057 A 
ATOM     27  C   UNL     1      -4.258 -11.452  18.294  0.00  0.00    +0.016 A 
ATOM     28  C   UNL     1      -5.471 -10.101  16.756  0.00  0.00    +0.124 A 
ATOM     29  C   UNL     1      -5.327 -11.351  19.178  0.00  0.00    +0.020 A 
ATOM     30  C   UNL     1      -6.428 -10.611  18.782  0.00  0.00    +0.111 A 
ENDBRANCH  25  26
ENDBRANCH  17  24
ENDBRANCH   9  17
TORSDOF 6
ENDMDL
MODEL 2
REMARK VINA RESULT:      -6.6      2.923      8.648
REMARK  Name = 38030436
REMARK  10 active torsions:
REMARK  status: ('A' for Active; 'I' for Inactive)
REMARK    1  A    between atoms: N_2  and  C_11
REMARK    2  A    between atoms: C_6  and  C_10
REMARK    3  A    between atoms: C_7  and  C_11
REMARK    4  A    between atoms: C_9  and  C_17
REMARK    5  A    between atoms: C_10  and  C_20
REMARK    6  A    between atoms: C_10  and  C_21
REMARK    7  A    between atoms: C_13  and  C_22
REMARK    8  A    between atoms: C_16  and  C_23
REMARK    9  A    between atoms: C_17  and  C_24
REMARK   10  A    between atoms: C_25  and  C_26
REMARK                            x       y       z     vdW  Elec       q    Type
REMARK                         _______ _______ _______ _____ _____    ______ ____
ROOT
ATOM      6  C   UNL     1      -7.265 -12.004  17.027  0.00  0.00    +0.000 C 
ATOM      7  C   UNL     1      -7.349 -11.744  18.550  0.00  0.00    +0.029 C 
ATOM      8  C   UNL     1      -6.017 -11.335  16.434  0.00  0.00    +0.012 C 
ATOM      9  C   UNL     1      -4.704 -11.788  17.107  0.00  0.00    +0.024 C 
ATOM     12  C   UNL     1      -6.020 -11.918  19.241  0.00  0.00    -0.023 C 
ATOM     13  C   UNL     1      -4.831 -11.952  18.613  0.00  0.00    -0.073 C 
ATOM     22  C   UNL     1      -3.570 -12.217  19.391  0.00  0.00    +0.039 C 
ENDROOT
BRANCH   6  10
ATOM     10  C   UNL     1      -7.291 -13.507  16.714  0.00  0.00    -0.013 C 
ATOM     20  C   UNL     1      -8.347 -14.209  17.563  0.00  0.00    +0.007 C 
ATOM     21  C   UNL     1      -7.550 -13.737  15.229  0.00  0.00    +0.007 C 
ENDBRANCH   6  10
BRANCH   7  11
ATOM     11  C   UNL     1      -7.897 -10.346  18.856  0.00  0.00    +0.092 C 
BRANCH  11   2
ATOM      2  N   UNL     1      -9.056 -10.050  18.014  0.00  0.00    -0.302 NA
ATOM     14  C   UNL     1      -8.868  -8.775  17.308  0.00  0.00    +0.084 C 
ATOM     15  C   UNL     1     -10.285 -10.034  18.819  0.00  0.00    +0.084 C 
ATOM     16  C   UNL     1     -11.374  -8.475  17.153  0.00  0.00    -0.012 C 
ATOM     18  C   UNL     1     -10.049  -8.477  16.384  0.00  0.00    +0.018 C 
ATOM     19  C   UNL     1     -11.514  -9.779  17.945  0.00  0.00    +0.018 C 
ATOM     23  C   UNL     1     -12.557  -8.276  16.209  0.00  0.00    +0.007 C 
ENDBRANCH  11   2
ENDBRANCH   7  11
BRANCH   9  17
ATOM     17  C   UNL     1      -3.587 -10.816  16.703  0.00  0.00    +0.105 C 
BRANCH  17  24
ATOM      1  O   UNL     1      -3.854 -10.404  14.313  0.00  0.00    -0.420 OA
ATOM      3  N   UNL     1      -2.164 -11.779  14.823  0.00  0.00    -0.112 NA
ATOM      4  N   UNL     1      -2.199 -11.636  13.448  0.00  0.00    -0.107 NA
ATOM     24  C   UNL     1      -3.148 -11.043  15.286  0.00  0.00    +0.218 A 
ATOM     25  C   UNL     1      -3.200 -10.825  13.196  0.00  0.00    +0.250 A 
BRANCH  25  26
ATOM      5  N   UNL     1      -5.581  -9.976  10.471  0.00  0.00    -0.263 NA
ATOM     26  C   UNL     1      -3.701 -10.325  11.949  0.00  0.00    +0.057 A 
ATOM     27  C   UNL     1      -2.853  -9.722  11.026  0.00  0.00    +0.016 A 
ATOM     28  C   UNL     1      -5.045 -10.427  11.627  0.00  0.00    +0.124 A 
ATOM     29  C   UNL     1      -3.369  -9.247   9.825  0.00  0.00    +0.020 A 
ATOM     30  C   UNL     1      -4.727  -9.396   9.597  0.00  0.00    +0.111 A 
ENDBRANCH  25  26
ENDBRANCH  17  24
ENDBRANCH   9  17
TORSDOF 6
ENDMDL
MODEL 3
REMARK VINA RESULT:      -6.6      2.942      6.104
REMARK  Name = 38030436
REMARK  10 active torsions:
REMARK  status: ('A' for Active; 'I' for Inactive)
REMARK    1  A    between atoms: N_2  and  C_11
REMARK    2  A    between atoms: C_6  and  C_10
REMARK    3  A    between atoms: C_7  and  C_11
REMARK    4  A    between atoms: C_9  and  C_17
REMARK    5  A    between atoms: C_10  and  C_20
REMARK    6  A    between atoms: C_10  and  C_21
REMARK    7  A    between atoms: C_13  and  C_22
REMARK    8  A    between atoms: C_16  and  C_23
REMARK    9  A    between atoms: C_17  and  C_24
REMARK   10  A    between atoms: C_25  and  C_26
REMARK                            x       y       z     vdW  Elec       q    Type
REMARK                         _______ _______ _______ _____ _____    ______ ____
ROOT
ATOM      6  C   UNL     1      -3.447 -10.625  15.444  0.00  0.00    +0.000 C 
ATOM      7  C   UNL     1      -4.431 -11.575  14.721  0.00  0.00    +0.029 C 
ATOM      8  C   UNL     1      -3.953 -10.296  16.855  0.00  0.00    +0.012 C 
ATOM      9  C   UNL     1      -4.191 -11.549  17.725  0.00  0.00    +0.024 C 
ATOM     12  C   UNL     1      -4.915 -12.692  15.610  0.00  0.00    -0.023 C 
ATOM     13  C   UNL     1      -4.806 -12.704  16.951  0.00  0.00    -0.073 C 
ATOM     22  C   UNL     1      -5.245 -13.911  17.736  0.00  0.00    +0.039 C 
ENDROOT
BRANCH   6  10
ATOM     10  C   UNL     1      -2.030 -11.215  15.486  0.00  0.00    -0.013 C 
ATOM     20  C   UNL     1      -1.713 -11.932  14.177  0.00  0.00    +0.007 C 
ATOM     21  C   UNL     1      -1.006 -10.119  15.764  0.00  0.00    +0.007 C 
ENDBRANCH   6  10
BRANCH   7  11
ATOM     11  C   UNL     1      -5.639 -10.818  14.161  0.00  0.00    +0.092 C 
BRANCH  11   2
ATOM      2  N   UNL     1      -5.283 -10.116  12.927  0.00  0.00    -0.302 NA
ATOM     14  C   UNL     1      -6.488  -9.604  12.261  0.00  0.00    +0.084 C 
ATOM     15  C   UNL     1      -4.519 -11.000  12.036  0.00  0.00    +0.084 C 
ATOM     16  C   UNL     1      -5.301  -9.676  10.029  0.00  0.00    -0.012 C 
ATOM     18  C   UNL     1      -6.128  -8.823  10.995  0.00  0.00    +0.018 C 
ATOM     19  C   UNL     1      -4.092 -10.266  10.764  0.00  0.00    +0.018 C 
ATOM     23  C   UNL     1      -4.861  -8.861   8.816  0.00  0.00    +0.007 C 
ENDBRANCH  11   2
ENDBRANCH   7  11
BRANCH   9  17
ATOM     17  C   UNL     1      -5.020 -11.142  18.950  0.00  0.00    +0.105 C 
BRANCH  17  24
ATOM      1  O   UNL     1      -6.860 -10.033  17.792  0.00  0.00    -0.420 OA
ATOM      3  N   UNL     1      -7.479 -11.808  19.006  0.00  0.00    -0.112 NA
ATOM      4  N   UNL     1      -8.610 -11.282  18.411  0.00  0.00    -0.107 NA
ATOM     24  C   UNL     1      -6.482 -11.048  18.617  0.00  0.00    +0.218 A 
ATOM     25  C   UNL     1      -8.201 -10.248  17.712  0.00  0.00    +0.250 A 
BRANCH  25  26
ATOM      5  N   UNL     1      -9.671  -8.657  14.691  0.00  0.00    -0.263 NA
ATOM     26  C   UNL     1      -8.937  -9.328  16.894  0.00  0.00    +0.057 A 
ATOM     27  C   UNL     1      -9.612  -8.250  17.456  0.00  0.00    +0.016 A 
ATOM     28  C   UNL     1      -8.997  -9.486  15.518  0.00  0.00    +0.124 A 
ATOM     29  C   UNL     1     -10.317  -7.375  16.636  0.00  0.00    +0.020 A 
ATOM     30  C   UNL     1     -10.315  -7.620  15.273  0.00  0.00    +0.111 A 
ENDBRANCH  25  26
ENDBRANCH  17  24
ENDBRANCH   9  17
TORSDOF 6
ENDMDL
MODEL 4
REMARK VINA RESULT:      -6.5      2.143      9.556
REMARK  Name = 38030436
REMARK  10 active torsions:
REMARK  status: ('A' for Active; 'I' for Inactive)
REMARK    1  A    between atoms: N_2  and  C_11
REMARK    2  A    between atoms: C_6  and  C_10
REMARK    3  A    between atoms: C_7  and  C_11
REMARK    4  A    between atoms: C_9  and  C_17
REMARK    5  A    between atoms: C_10  and  C_20
REMARK    6  A    between atoms: C_10  and  C_21
REMARK    7  A    between atoms: C_13  and  C_22
REMARK    8  A    between atoms: C_16  and  C_23
REMARK    9  A    between atoms: C_17  and  C_24
REMARK   10  A    between atoms: C_25  and  C_26
REMARK                            x       y       z     vdW  Elec       q    Type
REMARK                         _______ _______ _______ _____ _____    ______ ____
ROOT
ATOM      6  C   UNL     1      -4.327 -12.174  12.671  0.00  0.00    +0.000 C 
ATOM      7  C   UNL     1      -3.649 -11.210  13.673  0.00  0.00    +0.029 C 
ATOM      8  C   UNL     1      -4.634 -11.451  11.352  0.00  0.00    +0.012 C 
ATOM      9  C   UNL     1      -3.387 -10.821  10.696  0.00  0.00    +0.024 C 
ATOM     12  C   UNL     1      -2.579 -10.364  13.029  0.00  0.00    -0.023 C 
ATOM     13  C   UNL     1      -2.439 -10.188  11.703  0.00  0.00    -0.073 C 
ATOM     22  C   UNL     1      -1.283  -9.391  11.162  0.00  0.00    +0.039 C 
ENDROOT
BRANCH   6  10
ATOM     10  C   UNL     1      -3.470 -13.425  12.432  0.00  0.00    -0.013 C 
ATOM     20  C   UNL     1      -3.050 -14.045  13.761  0.00  0.00    +0.007 C 
ATOM     21  C   UNL     1      -4.231 -14.436  11.580  0.00  0.00    +0.007 C 
ENDBRANCH   6  10
BRANCH   7  11
ATOM     11  C   UNL     1      -4.670 -10.296  14.358  0.00  0.00    +0.092 C 
BRANCH  11   2
ATOM      2  N   UNL     1      -5.025 -10.816  15.678  0.00  0.00    -0.302 NA
ATOM     14  C   UNL     1      -6.036  -9.960  16.314  0.00  0.00    +0.084 C 
ATOM     15  C   UNL     1      -3.827 -10.938  16.522  0.00  0.00    +0.084 C 
ATOM     16  C   UNL     1      -5.249 -10.704  18.599  0.00  0.00    -0.012 C 
ATOM     18  C   UNL     1      -6.456 -10.520  17.674  0.00  0.00    +0.018 C 
ATOM     19  C   UNL     1      -4.173 -11.532  17.888  0.00  0.00    +0.018 C 
ATOM     23  C   UNL     1      -5.661 -11.355  19.917  0.00  0.00    +0.007 C 
ENDBRANCH  11   2
ENDBRANCH   7  11
BRANCH   9  17
ATOM     17  C   UNL     1      -3.847  -9.841   9.610  0.00  0.00    +0.105 C 
BRANCH  17  24
ATOM      1  O   UNL     1      -5.131  -9.803   7.535  0.00  0.00    -0.420 OA
ATOM      3  N   UNL     1      -4.433 -11.840   8.144  0.00  0.00    -0.112 NA
ATOM      4  N   UNL     1      -5.140 -11.966   6.963  0.00  0.00    -0.107 NA
ATOM     24  C   UNL     1      -4.453 -10.561   8.440  0.00  0.00    +0.218 A 
ATOM     25  C   UNL     1      -5.528 -10.753   6.645  0.00  0.00    +0.250 A 
BRANCH  25  26
ATOM      5  N   UNL     1      -7.168 -10.688   3.309  0.00  0.00    -0.263 NA
ATOM     26  C   UNL     1      -6.293 -10.284   5.526  0.00  0.00    +0.057 A 
ATOM     27  C   UNL     1      -6.887  -9.026   5.540  0.00  0.00    +0.016 A 
ATOM     28  C   UNL     1      -6.462 -11.069   4.397  0.00  0.00    +0.124 A 
ATOM     29  C   UNL     1      -7.622  -8.599   4.439  0.00  0.00    +0.020 A 
ATOM     30  C   UNL     1      -7.732  -9.459   3.359  0.00  0.00    +0.111 A 
ENDBRANCH  25  26
ENDBRANCH  17  24
ENDBRANCH   9  17
TORSDOF 6
ENDMDL
MODEL 5
REMARK VINA RESULT:      -6.5      3.040      6.175
REMARK  Name = 38030436
REMARK  10 active torsions:
REMARK  status: ('A' for Active; 'I' for Inactive)
REMARK    1  A    between atoms: N_2  and  C_11
REMARK    2  A    between atoms: C_6  and  C_10
REMARK    3  A    between atoms: C_7  and  C_11
REMARK    4  A    between atoms: C_9  and  C_17
REMARK    5  A    between atoms: C_10  and  C_20
REMARK    6  A    between atoms: C_10  and  C_21
REMARK    7  A    between atoms: C_13  and  C_22
REMARK    8  A    between atoms: C_16  and  C_23
REMARK    9  A    between atoms: C_17  and  C_24
REMARK   10  A    between atoms: C_25  and  C_26
REMARK                            x       y       z     vdW  Elec       q    Type
REMARK                         _______ _______ _______ _____ _____    ______ ____
ROOT
ATOM      6  C   UNL     1      -3.429 -10.494  15.345  0.00  0.00    +0.000 C 
ATOM      7  C   UNL     1      -4.490 -11.186  14.457  0.00  0.00    +0.029 C 
ATOM      8  C   UNL     1      -4.000 -10.204  16.740  0.00  0.00    +0.012 C 
ATOM      9  C   UNL     1      -4.529 -11.464  17.458  0.00  0.00    +0.024 C 
ATOM     12  C   UNL     1      -5.237 -12.272  15.188  0.00  0.00    -0.023 C 
ATOM     13  C   UNL     1      -5.258 -12.419  16.525  0.00  0.00    -0.073 C 
ATOM     22  C   UNL     1      -5.967 -13.591  17.148  0.00  0.00    +0.039 C 
ENDROOT
BRANCH   6  10
ATOM     10  C   UNL     1      -2.143 -11.329  15.435  0.00  0.00    -0.013 C 
ATOM     20  C   UNL     1      -1.862 -12.019  14.103  0.00  0.00    +0.007 C 
ATOM     21  C   UNL     1      -0.967 -10.452  15.848  0.00  0.00    +0.007 C 
ENDBRANCH   6  10
BRANCH   7  11
ATOM     11  C   UNL     1      -5.493 -10.180  13.886  0.00  0.00    +0.092 C 
BRANCH  11   2
ATOM      2  N   UNL     1      -5.507 -10.237  12.424  0.00  0.00    -0.302 NA
ATOM     14  C   UNL     1      -4.140 -10.360  11.901  0.00  0.00    +0.084 C 
ATOM     15  C   UNL     1      -6.182  -9.054  11.870  0.00  0.00    +0.084 C 
ATOM     16  C   UNL     1      -4.859  -9.285   9.728  0.00  0.00    -0.012 C 
ATOM     18  C   UNL     1      -4.141 -10.473  10.375  0.00  0.00    +0.018 C 
ATOM     19  C   UNL     1      -6.253  -9.125  10.344  0.00  0.00    +0.018 C 
ATOM     23  C   UNL     1      -4.945  -9.453   8.213  0.00  0.00    +0.007 C 
ENDBRANCH  11   2
ENDBRANCH   7  11
BRANCH   9  17
ATOM     17  C   UNL     1      -5.387 -11.023  18.650  0.00  0.00    +0.105 C 
BRANCH  17  24
ATOM      1  O   UNL     1      -7.801 -10.750  18.879  0.00  0.00    -0.420 OA
ATOM      3  N   UNL     1      -6.895  -9.543  17.227  0.00  0.00    -0.112 NA
ATOM      4  N   UNL     1      -8.254  -9.294  17.242  0.00  0.00    -0.107 NA
ATOM     24  C   UNL     1      -6.675 -10.398  18.199  0.00  0.00    +0.218 A 
ATOM     25  C   UNL     1      -8.742 -10.019  18.222  0.00  0.00    +0.250 A 
BRANCH  25  26
ATOM      5  N   UNL     1     -11.632 -11.157  20.265  0.00  0.00    -0.263 NA
ATOM     26  C   UNL     1     -10.088 -10.157  18.696  0.00  0.00    +0.057 A 
ATOM     27  C   UNL     1     -11.135  -9.466  18.095  0.00  0.00    +0.016 A 
ATOM     28  C   UNL     1     -10.387 -10.983  19.769  0.00  0.00    +0.124 A 
ATOM     29  C   UNL     1     -12.430  -9.621  18.578  0.00  0.00    +0.020 A 
ATOM     30  C   UNL     1     -12.624 -10.469  19.655  0.00  0.00    +0.111 A 
ENDBRANCH  25  26
ENDBRANCH  17  24
ENDBRANCH   9  17
TORSDOF 6
ENDMDL
MODEL 6
REMARK VINA RESULT:      -6.5     21.593     25.475
REMARK  Name = 38030436
REMARK  10 active torsions:
REMARK  status: ('A' for Active; 'I' for Inactive)
REMARK    1  A    between atoms: N_2  and  C_11
REMARK    2  A    between atoms: C_6  and  C_10
REMARK    3  A    between atoms: C_7  and  C_11
REMARK    4  A    between atoms: C_9  and  C_17
REMARK    5  A    between atoms: C_10  and  C_20
REMARK    6  A    between atoms: C_10  and  C_21
REMARK    7  A    between atoms: C_13  and  C_22
REMARK    8  A    between atoms: C_16  and  C_23
REMARK    9  A    between atoms: C_17  and  C_24
REMARK   10  A    between atoms: C_25  and  C_26
REMARK                            x       y       z     vdW  Elec       q    Type
REMARK                         _______ _______ _______ _____ _____    ______ ____
ROOT
ATOM      6  C   UNL     1     -17.102   3.716  28.491  0.00  0.00    +0.000 C 
ATOM      7  C   UNL     1     -16.963   2.250  28.963  0.00  0.00    +0.029 C 
ATOM      8  C   UNL     1     -16.337   3.934  27.178  0.00  0.00    +0.012 C 
ATOM      9  C   UNL     1     -16.784   2.985  26.046  0.00  0.00    +0.024 C 
ATOM     12  C   UNL     1     -17.133   1.261  27.838  0.00  0.00    -0.023 C 
ATOM     13  C   UNL     1     -17.068   1.572  26.530  0.00  0.00    -0.073 C 
ATOM     22  C   UNL     1     -17.338   0.522  25.487  0.00  0.00    +0.039 C 
ENDROOT
BRANCH   6  10
ATOM     10  C   UNL     1     -18.576   4.121  28.348  0.00  0.00    -0.013 C 
ATOM     20  C   UNL     1     -19.388   3.600  29.531  0.00  0.00    +0.007 C 
ATOM     21  C   UNL     1     -18.703   5.636  28.230  0.00  0.00    +0.007 C 
ENDBRANCH   6  10
BRANCH   7  11
ATOM     11  C   UNL     1     -15.617   2.002  29.652  0.00  0.00    +0.092 C 
BRANCH  11   2
ATOM      2  N   UNL     1     -15.589   2.634  30.972  0.00  0.00    -0.302 NA
ATOM     14  C   UNL     1     -14.842   3.898  30.922  0.00  0.00    +0.084 C 
ATOM     15  C   UNL     1     -15.015   1.718  31.968  0.00  0.00    +0.084 C 
ATOM     16  C   UNL     1     -14.289   3.685  33.380  0.00  0.00    -0.012 C 
ATOM     18  C   UNL     1     -14.848   4.596  32.283  0.00  0.00    +0.018 C 
ATOM     19  C   UNL     1     -15.028   2.343  33.364  0.00  0.00    +0.018 C 
ATOM     23  C   UNL     1     -14.390   4.350  34.750  0.00  0.00    +0.007 C 
ENDBRANCH  11   2
ENDBRANCH   7  11
BRANCH   9  17
ATOM     17  C   UNL     1     -15.738   3.033  24.925  0.00  0.00    +0.105 C 
BRANCH  17  24
ATOM      1  O   UNL     1     -14.683   4.748  23.546  0.00  0.00    -0.420 OA
ATOM      3  N   UNL     1     -16.854   5.106  23.952  0.00  0.00    -0.112 NA
ATOM      4  N   UNL     1     -16.389   6.145  23.167  0.00  0.00    -0.107 NA
ATOM     24  C   UNL     1     -15.825   4.315  24.148  0.00  0.00    +0.218 A 
ATOM     25  C   UNL     1     -15.118   5.894  22.954  0.00  0.00    +0.250 A 
BRANCH  25  26
ATOM      5  N   UNL     1     -13.362   8.747  21.344  0.00  0.00    -0.263 NA
ATOM     26  C   UNL     1     -14.136   6.627  22.209  0.00  0.00    +0.057 A 
ATOM     27  C   UNL     1     -13.040   5.986  21.642  0.00  0.00    +0.016 A 
ATOM     28  C   UNL     1     -14.250   7.997  22.033  0.00  0.00    +0.124 A 
ATOM     29  C   UNL     1     -12.105   6.725  20.925  0.00  0.00    +0.020 A 
ATOM     30  C   UNL     1     -12.309   8.089  20.806  0.00  0.00    +0.111 A 
ENDBRANCH  25  26
ENDBRANCH  17  24
ENDBRANCH   9  17
TORSDOF 6
ENDMDL
MODEL 7
REMARK VINA RESULT:      -6.4     21.210     24.082
REMARK  Name = 38030436
REMARK  10 active torsions:
REMARK  status: ('A' for Active; 'I' for Inactive)
REMARK    1  A    between atoms: N_2  and  C_11
REMARK    2  A    between atoms: C_6  and  C_10
REMARK    3  A    between atoms: C_7  and  C_11
REMARK    4  A    between atoms: C_9  and  C_17
REMARK    5  A    between atoms: C_10  and  C_20
REMARK    6  A    between atoms: C_10  and  C_21
REMARK    7  A    between atoms: C_13  and  C_22
REMARK    8  A    between atoms: C_16  and  C_23
REMARK    9  A    between atoms: C_17  and  C_24
REMARK   10  A    between atoms: C_25  and  C_26
REMARK                            x       y       z     vdW  Elec       q    Type
REMARK                         _______ _______ _______ _____ _____    ______ ____
ROOT
ATOM      6  C   UNL     1     -13.558   8.212  21.640  0.00  0.00    +0.000 C 
ATOM      7  C   UNL     1     -14.250   9.422  20.968  0.00  0.00    +0.029 C 
ATOM      8  C   UNL     1     -14.577   7.379  22.430  0.00  0.00    +0.012 C 
ATOM      9  C   UNL     1     -15.759   6.883  21.570  0.00  0.00    +0.024 C 
ATOM     12  C   UNL     1     -15.561   9.053  20.322  0.00  0.00    -0.023 C 
ATOM     13  C   UNL     1     -16.243   7.920  20.569  0.00  0.00    -0.073 C 
ATOM     22  C   UNL     1     -17.501   7.611  19.803  0.00  0.00    +0.039 C 
ENDROOT
BRANCH   6  10
ATOM     10  C   UNL     1     -12.816   7.349  20.609  0.00  0.00    -0.013 C 
ATOM     20  C   UNL     1     -11.766   8.180  19.877  0.00  0.00    +0.007 C 
ATOM     21  C   UNL     1     -12.175   6.143  21.288  0.00  0.00    +0.007 C 
ENDBRANCH   6  10
BRANCH   7  11
ATOM     11  C   UNL     1     -14.482  10.564  21.962  0.00  0.00    +0.092 C 
BRANCH  11   2
ATOM      2  N   UNL     1     -13.575  10.446  23.105  0.00  0.00    -0.302 NA
ATOM     14  C   UNL     1     -14.332  10.457  24.365  0.00  0.00    +0.084 C 
ATOM     15  C   UNL     1     -12.574  11.521  23.080  0.00  0.00    +0.084 C 
ATOM     16  C   UNL     1     -12.309  11.354  25.589  0.00  0.00    -0.012 C 
ATOM     18  C   UNL     1     -13.403  10.282  25.568  0.00  0.00    +0.018 C 
ATOM     19  C   UNL     1     -11.585  11.381  24.239  0.00  0.00    +0.018 C 
ATOM     23  C   UNL     1     -11.328  11.115  26.733  0.00  0.00    +0.007 C 
ENDBRANCH  11   2
ENDBRANCH   7  11
BRANCH   9  17
ATOM     17  C   UNL     1     -16.870   6.390  22.504  0.00  0.00    +0.105 C 
BRANCH  17  24
ATOM      1  O   UNL     1     -16.694   4.670  24.226  0.00  0.00    -0.420 OA
ATOM      3  N   UNL     1     -16.450   3.904  22.138  0.00  0.00    -0.112 NA
ATOM      4  N   UNL     1     -16.328   2.833  23.002  0.00  0.00    -0.107 NA
ATOM     24  C   UNL     1     -16.663   4.955  22.895  0.00  0.00    +0.218 A 
ATOM     25  C   UNL     1     -16.478   3.326  24.210  0.00  0.00    +0.250 A 
BRANCH  25  26
ATOM      5  N   UNL     1     -16.736   0.662  26.790  0.00  0.00    -0.263 NA
ATOM     26  C   UNL     1     -16.448   2.679  25.490  0.00  0.00    +0.057 A 
ATOM     27  C   UNL     1     -16.120   3.385  26.642  0.00  0.00    +0.016 A 
ATOM     28  C   UNL     1     -16.746   1.332  25.616  0.00  0.00    +0.124 A 
ATOM     29  C   UNL     1     -16.100   2.731  27.869  0.00  0.00    +0.020 A 
ATOM     30  C   UNL     1     -16.413   1.382  27.889  0.00  0.00    +0.111 A 
ENDBRANCH  25  26
ENDBRANCH  17  24
ENDBRANCH   9  17
TORSDOF 6
ENDMDL
MODEL 8
REMARK VINA RESULT:      -6.3      5.788      8.849
REMARK  Name = 38030436
REMARK  10 active torsions:
REMARK  status: ('A' for Active; 'I' for Inactive)
REMARK    1  A    between atoms: N_2  and  C_11
REMARK    2  A    between atoms: C_6  and  C_10
REMARK    3  A    between atoms: C_7  and  C_11
REMARK    4  A    between atoms: C_9  and  C_17
REMARK    5  A    between atoms: C_10  and  C_20
REMARK    6  A    between atoms: C_10  and  C_21
REMARK    7  A    between atoms: C_13  and  C_22
REMARK    8  A    between atoms: C_16  and  C_23
REMARK    9  A    between atoms: C_17  and  C_24
REMARK   10  A    between atoms: C_25  and  C_26
REMARK                            x       y       z     vdW  Elec       q    Type
REMARK                         _______ _______ _______ _____ _____    ______ ____
ROOT
ATOM      6  C   UNL     1     -11.764  -8.004  14.105  0.00  0.00    +0.000 C 
ATOM      7  C   UNL     1     -13.045  -7.624  14.883  0.00  0.00    +0.029 C 
ATOM      8  C   UNL     1     -10.527  -7.872  15.005  0.00  0.00    +0.012 C 
ATOM      9  C   UNL     1     -10.617  -8.718  16.294  0.00  0.00    +0.024 C 
ATOM     12  C   UNL     1     -13.077  -8.213  16.270  0.00  0.00    -0.023 C 
ATOM     13  C   UNL     1     -12.007  -8.717  16.912  0.00  0.00    -0.073 C 
ATOM     22  C   UNL     1     -12.166  -9.361  18.262  0.00  0.00    +0.039 C 
ENDROOT
BRANCH   6  10
ATOM     10  C   UNL     1     -11.869  -9.416  13.511  0.00  0.00    -0.013 C 
ATOM     20  C   UNL     1     -13.175  -9.571  12.736  0.00  0.00    +0.007 C 
ATOM     21  C   UNL     1     -10.670  -9.706  12.613  0.00  0.00    +0.007 C 
ENDBRANCH   6  10
BRANCH   7  11
ATOM     11  C   UNL     1     -13.219  -6.104  14.978  0.00  0.00    +0.092 C 
BRANCH  11   2
ATOM      2  N   UNL     1     -13.491  -5.533  13.658  0.00  0.00    -0.302 NA
ATOM     14  C   UNL     1     -12.625  -4.371  13.413  0.00  0.00    +0.084 C 
ATOM     15  C   UNL     1     -14.910  -5.171  13.537  0.00  0.00    +0.084 C 
ATOM     16  C   UNL     1     -14.331  -3.421  11.806  0.00  0.00    -0.012 C 
ATOM     18  C   UNL     1     -12.860  -3.793  12.016  0.00  0.00    +0.018 C 
ATOM     19  C   UNL     1     -15.222  -4.621  12.144  0.00  0.00    +0.018 C 
ATOM     23  C   UNL     1     -14.577  -2.939  10.379  0.00  0.00    +0.007 C 
ENDBRANCH  11   2
ENDBRANCH   7  11
BRANCH   9  17
ATOM     17  C   UNL     1      -9.531  -8.243  17.267  0.00  0.00    +0.105 C 
BRANCH  17  24
ATOM      1  O   UNL     1      -7.376  -9.149  16.565  0.00  0.00    -0.420 OA
ATOM      3  N   UNL     1      -8.341 -10.274  18.241  0.00  0.00    -0.112 NA
ATOM      4  N   UNL     1      -7.139 -10.892  17.949  0.00  0.00    -0.107 NA
ATOM     24  C   UNL     1      -8.438  -9.263  17.410  0.00  0.00    +0.218 A 
ATOM     25  C   UNL     1      -6.611 -10.201  16.965  0.00  0.00    +0.250 A 
BRANCH  25  26
ATOM      5  N   UNL     1      -4.206 -10.550  14.152  0.00  0.00    -0.263 NA
ATOM     26  C   UNL     1      -5.374 -10.381  16.261  0.00  0.00    +0.057 A 
ATOM     27  C   UNL     1      -4.177 -10.557  16.947  0.00  0.00    +0.016 A 
ATOM     28  C   UNL     1      -5.335 -10.386  14.876  0.00  0.00    +0.124 A 
ATOM     29  C   UNL     1      -2.994 -10.730  16.236  0.00  0.00    +0.020 A 
ATOM     30  C   UNL     1      -3.061 -10.719  14.853  0.00  0.00    +0.111 A 
ENDBRANCH  25  26
ENDBRANCH  17  24
ENDBRANCH   9  17
TORSDOF 6
ENDMDL
MODEL 9
REMARK VINA RESULT:      -6.3      2.122      9.541
REMARK  Name = 38030436
REMARK  10 active torsions:
REMARK  status: ('A' for Active; 'I' for Inactive)
REMARK    1  A    between atoms: N_2  and  C_11
REMARK    2  A    between atoms: C_6  and  C_10
REMARK    3  A    between atoms: C_7  and  C_11
REMARK    4  A    between atoms: C_9  and  C_17
REMARK    5  A    between atoms: C_10  and  C_20
REMARK    6  A    between atoms: C_10  and  C_21
REMARK    7  A    between atoms: C_13  and  C_22
REMARK    8  A    between atoms: C_16  and  C_23
REMARK    9  A    between atoms: C_17  and  C_24
REMARK   10  A    between atoms: C_25  and  C_26
REMARK                            x       y       z     vdW  Elec       q    Type
REMARK                         _______ _______ _______ _____ _____    ______ ____
ROOT
ATOM      6  C   UNL     1      -5.617 -11.591  12.676  0.00  0.00    +0.000 C 
ATOM      7  C   UNL     1      -4.632 -11.145  13.782  0.00  0.00    +0.029 C 
ATOM      8  C   UNL     1      -5.634 -10.573  11.527  0.00  0.00    +0.012 C 
ATOM      9  C   UNL     1      -4.242 -10.329  10.907  0.00  0.00    +0.024 C 
ATOM     12  C   UNL     1      -3.326 -10.641  13.224  0.00  0.00    -0.023 C 
ATOM     13  C   UNL     1      -3.128 -10.283  11.942  0.00  0.00    -0.073 C 
ATOM     22  C   UNL     1      -1.759  -9.875  11.471  0.00  0.00    +0.039 C 
ENDROOT
BRANCH   6  10
ATOM     10  C   UNL     1      -5.284 -13.000  12.165  0.00  0.00    -0.013 C 
ATOM     20  C   UNL     1      -5.125 -13.966  13.335  0.00  0.00    +0.007 C 
ATOM     21  C   UNL     1      -6.363 -13.487  11.204  0.00  0.00    +0.007 C 
ENDBRANCH   6  10
BRANCH   7  11
ATOM     11  C   UNL     1      -5.244 -10.068  14.683  0.00  0.00    +0.092 C 
BRANCH  11   2
ATOM      2  N   UNL     1      -5.555 -10.615  16.004  0.00  0.00    -0.302 NA
ATOM     14  C   UNL     1      -6.514  -9.750  16.706  0.00  0.00    +0.084 C 
ATOM     15  C   UNL     1      -4.326 -10.791  16.790  0.00  0.00    +0.084 C 
ATOM     16  C   UNL     1      -5.648 -10.577  18.934  0.00  0.00    -0.012 C 
ATOM     18  C   UNL     1      -6.889 -10.336  18.069  0.00  0.00    +0.018 C 
ATOM     19  C   UNL     1      -4.628 -11.413  18.155  0.00  0.00    +0.018 C 
ATOM     23  C   UNL     1      -6.020 -11.253  20.251  0.00  0.00    +0.007 C 
ENDBRANCH  11   2
ENDBRANCH   7  11
BRANCH   9  17
ATOM     17  C   UNL     1      -4.306  -9.063  10.043  0.00  0.00    +0.105 C 
BRANCH  17  24
ATOM      1  O   UNL     1      -4.775 -10.079   7.874  0.00  0.00    -0.420 OA
ATOM      3  N   UNL     1      -6.394  -8.729   8.623  0.00  0.00    -0.112 NA
ATOM      4  N   UNL     1      -6.789  -9.230   7.397  0.00  0.00    -0.107 NA
ATOM     24  C   UNL     1      -5.214  -9.251   8.862  0.00  0.00    +0.218 A 
ATOM     25  C   UNL     1      -5.814 -10.013   6.998  0.00  0.00    +0.250 A 
BRANCH  25  26
ATOM      5  N   UNL     1      -4.383 -12.367   4.501  0.00  0.00    -0.263 NA
ATOM     26  C   UNL     1      -5.678 -10.795   5.803  0.00  0.00    +0.057 A 
ATOM     27  C   UNL     1      -6.651 -10.761   4.809  0.00  0.00    +0.016 A 
ATOM     28  C   UNL     1      -4.573 -11.606   5.602  0.00  0.00    +0.124 A 
ATOM     29  C   UNL     1      -6.490 -11.530   3.661  0.00  0.00    +0.020 A 
ATOM     30  C   UNL     1      -5.350 -12.309   3.557  0.00  0.00    +0.111 A 
ENDBRANCH  25  26
ENDBRANCH  17  24
ENDBRANCH   9  17
TORSDOF 6
ENDMDL
MODEL 10
REMARK VINA RESULT:      -6.3      3.706      7.570
REMARK  Name = 38030436
REMARK  10 active torsions:
REMARK  status: ('A' for Active; 'I' for Inactive)
REMARK    1  A    between atoms: N_2  and  C_11
REMARK    2  A    between atoms: C_6  and  C_10
REMARK    3  A    between atoms: C_7  and  C_11
REMARK    4  A    between atoms: C_9  and  C_17
REMARK    5  A    between atoms: C_10  and  C_20
REMARK    6  A    between atoms: C_10  and  C_21
REMARK    7  A    between atoms: C_13  and  C_22
REMARK    8  A    between atoms: C_16  and  C_23
REMARK    9  A    between atoms: C_17  and  C_24
REMARK   10  A    between atoms: C_25  and  C_26
REMARK                            x       y       z     vdW  Elec       q    Type
REMARK                         _______ _______ _______ _____ _____    ______ ____
ROOT
ATOM      6  C   UNL     1      -4.982 -10.963  17.652  0.00  0.00    +0.000 C 
ATOM      7  C   UNL     1      -3.903 -11.563  16.720  0.00  0.00    +0.029 C 
ATOM      8  C   UNL     1      -6.321 -10.834  16.912  0.00  0.00    +0.012 C 
ATOM      9  C   UNL     1      -6.829 -12.170  16.331  0.00  0.00    +0.024 C 
ATOM     12  C   UNL     1      -4.417 -12.730  15.916  0.00  0.00    -0.023 C 
ATOM     13  C   UNL     1      -5.718 -13.024  15.740  0.00  0.00    -0.073 C 
ATOM     22  C   UNL     1      -6.120 -14.264  14.989  0.00  0.00    +0.039 C 
ENDROOT
BRANCH   6  10
ATOM     10  C   UNL     1      -5.136 -11.790  18.936  0.00  0.00    -0.013 C 
ATOM     20  C   UNL     1      -3.766 -12.171  19.490  0.00  0.00    +0.007 C 
ATOM     21  C   UNL     1      -5.943 -11.017  19.974  0.00  0.00    +0.007 C 
ENDBRANCH   6  10
BRANCH   7  11
ATOM     11  C   UNL     1      -3.328 -10.509  15.768  0.00  0.00    +0.092 C 
BRANCH  11   2
ATOM      2  N   UNL     1      -3.470 -10.938  14.376  0.00  0.00    -0.302 NA
ATOM     14  C   UNL     1      -2.230 -10.681  13.631  0.00  0.00    +0.084 C 
ATOM     15  C   UNL     1      -4.616 -10.268  13.746  0.00  0.00    +0.084 C 
ATOM     16  C   UNL     1      -3.542 -10.536  11.473  0.00  0.00    -0.012 C 
ATOM     18  C   UNL     1      -2.344 -11.171  12.186  0.00  0.00    +0.018 C 
ATOM     19  C   UNL     1      -4.811 -10.746  12.306  0.00  0.00    +0.018 C 
ATOM     23  C   UNL     1      -3.708 -11.104  10.067  0.00  0.00    +0.007 C 
ENDBRANCH  11   2
ENDBRANCH   7  11
BRANCH   9  17
ATOM     17  C   UNL     1      -7.951 -11.872  15.328  0.00  0.00    +0.105 C 
BRANCH  17  24
ATOM      1  O   UNL     1      -9.393  -9.904  15.322  0.00  0.00    -0.420 OA
ATOM      3  N   UNL     1      -9.741 -11.290  17.044  0.00  0.00    -0.112 NA
ATOM      4  N   UNL     1     -10.618 -10.228  17.166  0.00  0.00    -0.107 NA
ATOM     24  C   UNL     1      -9.046 -11.059  15.954  0.00  0.00    +0.218 A 
ATOM     25  C   UNL     1     -10.379  -9.445  16.140  0.00  0.00    +0.250 A 
BRANCH  25  26
ATOM      5  N   UNL     1     -11.073  -5.797  15.964  0.00  0.00    -0.263 NA
ATOM     26  C   UNL     1     -10.986  -8.204  15.756  0.00  0.00    +0.057 A 
ATOM     27  C   UNL     1     -12.035  -8.171  14.843  0.00  0.00    +0.016 A 
ATOM     28  C   UNL     1     -10.546  -7.000  16.283  0.00  0.00    +0.124 A 
ATOM     29  C   UNL     1     -12.604  -6.951  14.490  0.00  0.00    +0.020 A 
ATOM     30  C   UNL     1     -12.091  -5.804  15.073  0.00  0.00    +0.111 A 
ENDBRANCH  25  26
ENDBRANCH  17  24
ENDBRANCH   9  17
TORSDOF 6
ENDMDL
