MODEL 1
REMARK VINA RESULT:      -6.4      0.000      0.000
REMARK  Name = 45783560
REMARK  9 active torsions:
REMARK  status: ('A' for Active; 'I' for Inactive)
REMARK    1  A    between atoms: O_2  and  C_25
REMARK    2  A    between atoms: O_2  and  C_26
REMARK    3  A    between atoms: O_3  and  C_27
REMARK    4  A    between atoms: O_3  and  C_28
REMARK    5  A    between atoms: N_4  and  C_13
REMARK    6  A    between atoms: C_9  and  C_14
REMARK    7  A    between atoms: C_13  and  C_15
REMARK    8  A    between atoms: C_16  and  C_19
REMARK    9  A    between atoms: C_26  and  C_27
REMARK                            x       y       z     vdW  Elec       q    Type
REMARK                         _______ _______ _______ _____ _____    ______ ____
ROOT
ATOM      1  O   UNL     1      14.439   6.861  19.396  0.00  0.00    -0.336 OA
ATOM      5  N   UNL     1      15.656   7.574  21.136  0.00  0.00    -0.190 NA
ATOM      6  N   UNL     1      15.709   6.291  19.242  0.00  0.00    -0.056 NA
ATOM     14  C   UNL     1      14.494   7.601  20.535  0.00  0.00    +0.245 A 
ATOM     16  C   UNL     1      16.369   6.758  20.307  0.00  0.00    +0.204 A 
ENDROOT
BRANCH  16  19
ATOM      8  N   UNL     1      19.696   5.123  20.009  0.00  0.00    -0.221 NA
ATOM     19  C   UNL     1      17.740   6.429  20.571  0.00  0.00    +0.041 A 
ATOM     22  C   UNL     1      18.443   7.054  21.595  0.00  0.00    +0.018 A 
ATOM     23  C   UNL     1      18.407   5.480  19.813  0.00  0.00    +0.126 A 
ATOM     24  C   UNL     1      19.771   6.715  21.827  0.00  0.00    +0.068 A 
ATOM     25  C   UNL     1      20.346   5.752  21.015  0.00  0.00    +0.215 A 
BRANCH  25   2
ATOM      2  O   UNL     1      21.654   5.400  21.223  0.00  0.00    -0.474 OA
BRANCH   2  26
ATOM     26  C   UNL     1      21.892   4.318  22.116  0.00  0.00    +0.258 C 
BRANCH  26  27
ATOM     27  C   UNL     1      22.500   4.856  23.396  0.00  0.00    +0.200 C 
BRANCH  27   3
ATOM      3  O   UNL     1      22.496   3.829  24.379  0.00  0.00    -0.380 OA
ATOM     28  C   UNL     1      22.663   2.546  23.793  0.00  0.00    +0.194 C 
ENDBRANCH  27   3
ENDBRANCH  26  27
ENDBRANCH   2  26
ENDBRANCH  25   2
ENDBRANCH  16  19
BRANCH  14   9
ATOM      4  N   UNL     1      12.424   8.744  19.757  0.00  0.00    -0.287 NA
ATOM      9  C   UNL     1      13.225   8.330  20.927  0.00  0.00    +0.146 C 
ATOM     10  C   UNL     1      12.272   7.456  21.763  0.00  0.00    +0.030 C 
ATOM     11  C   UNL     1      10.946   7.489  21.017  0.00  0.00    +0.017 C 
ATOM     12  C   UNL     1      11.029   8.759  20.196  0.00  0.00    +0.085 C 
BRANCH   4  13
ATOM     13  C   UNL     1      12.839  10.028  19.204  0.00  0.00    +0.121 C 
BRANCH  13  15
ATOM      7  N   UNL     1      13.292   8.771  15.661  0.00  0.00    -0.263 NA
ATOM     15  C   UNL     1      13.377   9.887  17.804  0.00  0.00    -0.015 A 
ATOM     17  C   UNL     1      14.414  10.695  17.351  0.00  0.00    +0.008 A 
ATOM     18  C   UNL     1      12.855   8.950  16.928  0.00  0.00    +0.115 A 
ATOM     20  C   UNL     1      14.891  10.542  16.054  0.00  0.00    +0.020 A 
ATOM     21  C   UNL     1      14.301   9.575  15.257  0.00  0.00    +0.111 A 
ENDBRANCH  13  15
ENDBRANCH   4  13
ENDBRANCH  14   9
TORSDOF 8
ENDMDL
MODEL 2
REMARK VINA RESULT:      -6.2     26.256     29.873
REMARK  Name = 45783560
REMARK  9 active torsions:
REMARK  status: ('A' for Active; 'I' for Inactive)
REMARK    1  A    between atoms: O_2  and  C_25
REMARK    2  A    between atoms: O_2  and  C_26
REMARK    3  A    between atoms: O_3  and  C_27
REMARK    4  A    between atoms: O_3  and  C_28
REMARK    5  A    between atoms: N_4  and  C_13
REMARK    6  A    between atoms: C_9  and  C_14
REMARK    7  A    between atoms: C_13  and  C_15
REMARK    8  A    between atoms: C_16  and  C_19
REMARK    9  A    between atoms: C_26  and  C_27
REMARK                            x       y       z     vdW  Elec       q    Type
REMARK                         _______ _______ _______ _____ _____    ______ ____
ROOT
ATOM      1  O   UNL     1      -5.191 -12.071  16.433  0.00  0.00    -0.336 OA
ATOM      5  N   UNL     1      -5.495 -10.097  15.420  0.00  0.00    -0.190 NA
ATOM      6  N   UNL     1      -6.497 -11.673  16.741  0.00  0.00    -0.056 NA
ATOM     14  C   UNL     1      -4.671 -11.087  15.653  0.00  0.00    +0.245 A 
ATOM     16  C   UNL     1      -6.602 -10.500  16.107  0.00  0.00    +0.204 A 
ENDROOT
BRANCH  16  19
ATOM      8  N   UNL     1      -9.312  -8.310  17.405  0.00  0.00    -0.221 NA
ATOM     19  C   UNL     1      -7.797  -9.708  16.142  0.00  0.00    +0.041 A 
ATOM     22  C   UNL     1      -8.590  -9.557  15.010  0.00  0.00    +0.018 A 
ATOM     23  C   UNL     1      -8.199  -9.069  17.304  0.00  0.00    +0.126 A 
ATOM     24  C   UNL     1      -9.744  -8.784  15.074  0.00  0.00    +0.068 A 
ATOM     25  C   UNL     1     -10.058  -8.187  16.283  0.00  0.00    +0.215 A 
BRANCH  25   2
ATOM      2  O   UNL     1     -11.190  -7.420  16.372  0.00  0.00    -0.474 OA
BRANCH   2  26
ATOM     26  C   UNL     1     -11.112  -6.099  15.852  0.00  0.00    +0.258 C 
BRANCH  26  27
ATOM     27  C   UNL     1     -12.373  -5.799  15.065  0.00  0.00    +0.200 C 
BRANCH  27   3
ATOM      3  O   UNL     1     -12.030  -5.052  13.905  0.00  0.00    -0.380 OA
ATOM     28  C   UNL     1     -13.184  -4.525  13.265  0.00  0.00    +0.194 C 
ENDBRANCH  27   3
ENDBRANCH  26  27
ENDBRANCH   2  26
ENDBRANCH  25   2
ENDBRANCH  16  19
BRANCH  14   9
ATOM      4  N   UNL     1      -2.936 -10.493  13.971  0.00  0.00    -0.287 NA
ATOM      9  C   UNL     1      -3.246 -11.283  15.179  0.00  0.00    +0.146 C 
ATOM     10  C   UNL     1      -2.206 -10.830  16.221  0.00  0.00    +0.030 C 
ATOM     11  C   UNL     1      -1.320  -9.832  15.489  0.00  0.00    +0.017 C 
ATOM     12  C   UNL     1      -1.505 -10.194  14.029  0.00  0.00    +0.085 C 
BRANCH   4  13
ATOM     13  C   UNL     1      -3.305 -11.168  12.733  0.00  0.00    +0.121 C 
BRANCH  13  15
ATOM      7  N   UNL     1      -5.654  -8.775  10.976  0.00  0.00    -0.263 NA
ATOM     15  C   UNL     1      -3.849 -10.206  11.710  0.00  0.00    -0.015 A 
ATOM     17  C   UNL     1      -3.105  -9.855  10.589  0.00  0.00    +0.008 A 
ATOM     18  C   UNL     1      -5.107  -9.643  11.856  0.00  0.00    +0.115 A 
ATOM     20  C   UNL     1      -3.634  -8.964   9.662  0.00  0.00    +0.020 A 
ATOM     21  C   UNL     1      -4.901  -8.457   9.899  0.00  0.00    +0.111 A 
ENDBRANCH  13  15
ENDBRANCH   4  13
ENDBRANCH  14   9
TORSDOF 8
ENDMDL
MODEL 3
REMARK VINA RESULT:      -6.0     26.463     29.984
REMARK  Name = 45783560
REMARK  9 active torsions:
REMARK  status: ('A' for Active; 'I' for Inactive)
REMARK    1  A    between atoms: O_2  and  C_25
REMARK    2  A    between atoms: O_2  and  C_26
REMARK    3  A    between atoms: O_3  and  C_27
REMARK    4  A    between atoms: O_3  and  C_28
REMARK    5  A    between atoms: N_4  and  C_13
REMARK    6  A    between atoms: C_9  and  C_14
REMARK    7  A    between atoms: C_13  and  C_15
REMARK    8  A    between atoms: C_16  and  C_19
REMARK    9  A    between atoms: C_26  and  C_27
REMARK                            x       y       z     vdW  Elec       q    Type
REMARK                         _______ _______ _______ _____ _____    ______ ____
ROOT
ATOM      1  O   UNL     1      -4.282 -13.302  15.483  0.00  0.00    -0.336 OA
ATOM      5  N   UNL     1      -4.563 -11.319  16.486  0.00  0.00    -0.190 NA
ATOM      6  N   UNL     1      -5.459 -13.409  16.234  0.00  0.00    -0.056 NA
ATOM     14  C   UNL     1      -3.819 -12.041  15.688  0.00  0.00    +0.245 A 
ATOM     16  C   UNL     1      -5.558 -12.200  16.796  0.00  0.00    +0.204 A 
ENDROOT
BRANCH  16  19
ATOM      8  N   UNL     1      -7.361 -10.940  19.795  0.00  0.00    -0.221 NA
ATOM     19  C   UNL     1      -6.636 -11.841  17.671  0.00  0.00    +0.041 A 
ATOM     22  C   UNL     1      -7.960 -12.029  17.291  0.00  0.00    +0.018 A 
ATOM     23  C   UNL     1      -6.392 -11.297  18.922  0.00  0.00    +0.126 A 
ATOM     24  C   UNL     1      -8.985 -11.673  18.160  0.00  0.00    +0.068 A 
ATOM     25  C   UNL     1      -8.636 -11.138  19.389  0.00  0.00    +0.215 A 
BRANCH  25   2
ATOM      2  O   UNL     1      -9.628 -10.779  20.264  0.00  0.00    -0.474 OA
BRANCH   2  26
ATOM     26  C   UNL     1     -10.760 -10.116  19.714  0.00  0.00    +0.258 C 
BRANCH  26  27
ATOM     27  C   UNL     1     -12.019 -10.837  20.155  0.00  0.00    +0.200 C 
BRANCH  27   3
ATOM      3  O   UNL     1     -12.739 -10.003  21.055  0.00  0.00    -0.380 OA
ATOM     28  C   UNL     1     -13.983  -9.595  20.504  0.00  0.00    +0.194 C 
ENDBRANCH  27   3
ENDBRANCH  26  27
ENDBRANCH   2  26
ENDBRANCH  25   2
ENDBRANCH  16  19
BRANCH  14   9
ATOM      4  N   UNL     1      -2.750 -10.675  13.903  0.00  0.00    -0.287 NA
ATOM      9  C   UNL     1      -2.536 -11.669  14.973  0.00  0.00    +0.146 C 
ATOM     10  C   UNL     1      -1.501 -11.018  15.910  0.00  0.00    +0.030 C 
ATOM     11  C   UNL     1      -1.149  -9.692  15.252  0.00  0.00    +0.017 C 
ATOM     12  C   UNL     1      -1.508  -9.909  13.796  0.00  0.00    +0.085 C 
BRANCH   4  13
ATOM     13  C   UNL     1      -3.134 -11.275  12.631  0.00  0.00    +0.121 C 
BRANCH  13  15
ATOM      7  N   UNL     1      -5.608  -8.778  11.222  0.00  0.00    -0.263 NA
ATOM     15  C   UNL     1      -3.767 -10.269  11.705  0.00  0.00    -0.015 A 
ATOM     17  C   UNL     1      -3.144  -9.897  10.518  0.00  0.00    +0.008 A 
ATOM     18  C   UNL     1      -4.986  -9.685  12.008  0.00  0.00    +0.115 A 
ATOM     20  C   UNL     1      -3.752  -8.967   9.683  0.00  0.00    +0.020 A 
ATOM     21  C   UNL     1      -4.972  -8.442  10.077  0.00  0.00    +0.111 A 
ENDBRANCH  13  15
ENDBRANCH   4  13
ENDBRANCH  14   9
TORSDOF 8
ENDMDL
MODEL 4
REMARK VINA RESULT:      -5.9     26.707     29.989
REMARK  Name = 45783560
REMARK  9 active torsions:
REMARK  status: ('A' for Active; 'I' for Inactive)
REMARK    1  A    between atoms: O_2  and  C_25
REMARK    2  A    between atoms: O_2  and  C_26
REMARK    3  A    between atoms: O_3  and  C_27
REMARK    4  A    between atoms: O_3  and  C_28
REMARK    5  A    between atoms: N_4  and  C_13
REMARK    6  A    between atoms: C_9  and  C_14
REMARK    7  A    between atoms: C_13  and  C_15
REMARK    8  A    between atoms: C_16  and  C_19
REMARK    9  A    between atoms: C_26  and  C_27
REMARK                            x       y       z     vdW  Elec       q    Type
REMARK                         _______ _______ _______ _____ _____    ______ ____
ROOT
ATOM      1  O   UNL     1      -7.143 -10.732  20.135  0.00  0.00    -0.336 OA
ATOM      5  N   UNL     1      -7.582 -11.302  18.014  0.00  0.00    -0.190 NA
ATOM      6  N   UNL     1      -5.962 -10.505  19.418  0.00  0.00    -0.056 NA
ATOM     14  C   UNL     1      -8.046 -11.200  19.234  0.00  0.00    +0.245 A 
ATOM     16  C   UNL     1      -6.301 -10.864  18.176  0.00  0.00    +0.204 A 
ENDROOT
BRANCH  16  19
ATOM      8  N   UNL     1      -5.017 -10.495  14.705  0.00  0.00    -0.221 NA
ATOM     19  C   UNL     1      -5.383 -10.799  17.076  0.00  0.00    +0.041 A 
ATOM     22  C   UNL     1      -4.017 -10.965  17.273  0.00  0.00    +0.018 A 
ATOM     23  C   UNL     1      -5.828 -10.567  15.784  0.00  0.00    +0.126 A 
ATOM     24  C   UNL     1      -3.150 -10.897  16.187  0.00  0.00    +0.068 A 
ATOM     25  C   UNL     1      -3.695 -10.662  14.936  0.00  0.00    +0.215 A 
BRANCH  25   2
ATOM      2  O   UNL     1      -2.862 -10.590  13.850  0.00  0.00    -0.474 OA
BRANCH   2  26
ATOM     26  C   UNL     1      -3.476 -10.382  12.584  0.00  0.00    +0.258 C 
BRANCH  26  27
ATOM     27  C   UNL     1      -2.478 -10.707  11.490  0.00  0.00    +0.200 C 
BRANCH  27   3
ATOM      3  O   UNL     1      -2.149  -9.512  10.793  0.00  0.00    -0.380 OA
ATOM     28  C   UNL     1      -0.880  -9.010  11.190  0.00  0.00    +0.194 C 
ENDBRANCH  27   3
ENDBRANCH  26  27
ENDBRANCH   2  26
ENDBRANCH  25   2
ENDBRANCH  16  19
BRANCH  14   9
ATOM      4  N   UNL     1     -10.504 -11.081  18.865  0.00  0.00    -0.287 NA
ATOM      9  C   UNL     1      -9.425 -11.527  19.769  0.00  0.00    +0.146 C 
ATOM     10  C   UNL     1      -9.655 -13.041  19.934  0.00  0.00    +0.030 C 
ATOM     11  C   UNL     1     -10.918 -13.340  19.139  0.00  0.00    +0.017 C 
ATOM     12  C   UNL     1     -11.623 -12.000  19.071  0.00  0.00    +0.085 C 
BRANCH   4  13
ATOM     13  C   UNL     1     -10.891  -9.691  19.075  0.00  0.00    +0.121 C 
BRANCH  13  15
ATOM      7  N   UNL     1      -9.760  -7.531  16.179  0.00  0.00    -0.263 NA
ATOM     15  C   UNL     1     -10.922  -8.916  17.784  0.00  0.00    -0.015 A 
ATOM     17  C   UNL     1     -12.079  -8.851  17.015  0.00  0.00    +0.008 A 
ATOM     18  C   UNL     1      -9.800  -8.245  17.327  0.00  0.00    +0.115 A 
ATOM     20  C   UNL     1     -12.077  -8.127  15.828  0.00  0.00    +0.020 A 
ATOM     21  C   UNL     1     -10.903  -7.491  15.458  0.00  0.00    +0.111 A 
ENDBRANCH  13  15
ENDBRANCH   4  13
ENDBRANCH  14   9
TORSDOF 8
ENDMDL
MODEL 5
REMARK VINA RESULT:      -5.8      2.628      3.376
REMARK  Name = 45783560
REMARK  9 active torsions:
REMARK  status: ('A' for Active; 'I' for Inactive)
REMARK    1  A    between atoms: O_2  and  C_25
REMARK    2  A    between atoms: O_2  and  C_26
REMARK    3  A    between atoms: O_3  and  C_27
REMARK    4  A    between atoms: O_3  and  C_28
REMARK    5  A    between atoms: N_4  and  C_13
REMARK    6  A    between atoms: C_9  and  C_14
REMARK    7  A    between atoms: C_13  and  C_15
REMARK    8  A    between atoms: C_16  and  C_19
REMARK    9  A    between atoms: C_26  and  C_27
REMARK                            x       y       z     vdW  Elec       q    Type
REMARK                         _______ _______ _______ _____ _____    ______ ____
ROOT
ATOM      1  O   UNL     1      14.267   8.505  20.101  0.00  0.00    -0.336 OA
ATOM      5  N   UNL     1      15.244   7.335  21.742  0.00  0.00    -0.190 NA
ATOM      6  N   UNL     1      15.573   8.245  19.670  0.00  0.00    -0.056 NA
ATOM     14  C   UNL     1      14.156   7.935  21.330  0.00  0.00    +0.245 A 
ATOM     16  C   UNL     1      16.085   7.551  20.691  0.00  0.00    +0.204 A 
ENDROOT
BRANCH  16  19
ATOM      8  N   UNL     1      19.686   7.213  21.560  0.00  0.00    -0.221 NA
ATOM     19  C   UNL     1      17.434   7.062  20.692  0.00  0.00    +0.041 A 
ATOM     22  C   UNL     1      17.813   6.006  19.871  0.00  0.00    +0.018 A 
ATOM     23  C   UNL     1      18.399   7.625  21.511  0.00  0.00    +0.126 A 
ATOM     24  C   UNL     1      19.127   5.553  19.893  0.00  0.00    +0.068 A 
ATOM     25  C   UNL     1      20.017   6.184  20.746  0.00  0.00    +0.215 A 
BRANCH  25   2
ATOM      2  O   UNL     1      21.318   5.756  20.786  0.00  0.00    -0.474 OA
BRANCH   2  26
ATOM     26  C   UNL     1      21.529   4.351  20.855  0.00  0.00    +0.258 C 
BRANCH  26  27
ATOM     27  C   UNL     1      22.803   4.078  21.631  0.00  0.00    +0.200 C 
BRANCH  27   3
ATOM      3  O   UNL     1      23.690   3.321  20.817  0.00  0.00    -0.380 OA
ATOM     28  C   UNL     1      24.416   4.154  19.925  0.00  0.00    +0.194 C 
ENDBRANCH  27   3
ENDBRANCH  26  27
ENDBRANCH   2  26
ENDBRANCH  25   2
ENDBRANCH  16  19
BRANCH  14   9
ATOM      4  N   UNL     1      12.097   9.302  21.617  0.00  0.00    -0.287 NA
ATOM      9  C   UNL     1      12.816   8.077  22.021  0.00  0.00    +0.146 C 
ATOM     10  C   UNL     1      11.848   6.927  21.685  0.00  0.00    +0.030 C 
ATOM     11  C   UNL     1      10.593   7.606  21.156  0.00  0.00    +0.017 C 
ATOM     12  C   UNL     1      10.670   9.002  21.739  0.00  0.00    +0.085 C 
BRANCH   4  13
ATOM     13  C   UNL     1      12.479  10.475  22.394  0.00  0.00    +0.121 C 
BRANCH  13  15
ATOM      7  N   UNL     1      12.633  13.233  19.806  0.00  0.00    -0.263 NA
ATOM     15  C   UNL     1      12.174  11.756  21.663  0.00  0.00    -0.015 A 
ATOM     17  C   UNL     1      11.197  12.630  22.128  0.00  0.00    +0.008 A 
ATOM     18  C   UNL     1      12.857  12.100  20.508  0.00  0.00    +0.115 A 
ATOM     20  C   UNL     1      10.938  13.806  21.432  0.00  0.00    +0.020 A 
ATOM     21  C   UNL     1      11.677  14.058  20.288  0.00  0.00    +0.111 A 
ENDBRANCH  13  15
ENDBRANCH   4  13
ENDBRANCH  14   9
TORSDOF 8
ENDMDL
MODEL 6
REMARK VINA RESULT:      -5.8     27.391     30.551
REMARK  Name = 45783560
REMARK  9 active torsions:
REMARK  status: ('A' for Active; 'I' for Inactive)
REMARK    1  A    between atoms: O_2  and  C_25
REMARK    2  A    between atoms: O_2  and  C_26
REMARK    3  A    between atoms: O_3  and  C_27
REMARK    4  A    between atoms: O_3  and  C_28
REMARK    5  A    between atoms: N_4  and  C_13
REMARK    6  A    between atoms: C_9  and  C_14
REMARK    7  A    between atoms: C_13  and  C_15
REMARK    8  A    between atoms: C_16  and  C_19
REMARK    9  A    between atoms: C_26  and  C_27
REMARK                            x       y       z     vdW  Elec       q    Type
REMARK                         _______ _______ _______ _____ _____    ______ ____
ROOT
ATOM      1  O   UNL     1      -6.550 -10.188  17.731  0.00  0.00    -0.336 OA
ATOM      5  N   UNL     1      -7.239  -9.938  15.614  0.00  0.00    -0.190 NA
ATOM      6  N   UNL     1      -7.725  -9.428  17.791  0.00  0.00    -0.056 NA
ATOM     14  C   UNL     1      -6.335 -10.446  16.414  0.00  0.00    +0.245 A 
ATOM     16  C   UNL     1      -8.070  -9.324  16.503  0.00  0.00    +0.204 A 
ENDROOT
BRANCH  16  19
ATOM      8  N   UNL     1     -10.890  -8.195  14.357  0.00  0.00    -0.221 NA
ATOM     19  C   UNL     1      -9.239  -8.612  16.074  0.00  0.00    +0.041 A 
ATOM     22  C   UNL     1      -9.853  -7.678  16.901  0.00  0.00    +0.018 A 
ATOM     23  C   UNL     1      -9.792  -8.832  14.823  0.00  0.00    +0.126 A 
ATOM     24  C   UNL     1     -10.985  -7.002  16.457  0.00  0.00    +0.068 A 
ATOM     25  C   UNL     1     -11.459  -7.294  15.190  0.00  0.00    +0.215 A 
BRANCH  25   2
ATOM      2  O   UNL     1     -12.573  -6.642  14.729  0.00  0.00    -0.474 OA
BRANCH   2  26
ATOM     26  C   UNL     1     -12.360  -5.413  14.045  0.00  0.00    +0.258 C 
BRANCH  26  27
ATOM     27  C   UNL     1     -13.702  -4.798  13.700  0.00  0.00    +0.200 C 
BRANCH  27   3
ATOM      3  O   UNL     1     -13.488  -3.558  13.037  0.00  0.00    -0.380 OA
ATOM     28  C   UNL     1     -12.261  -3.556  12.321  0.00  0.00    +0.194 C 
ENDBRANCH  27   3
ENDBRANCH  26  27
ENDBRANCH   2  26
ENDBRANCH  25   2
ENDBRANCH  16  19
BRANCH  14   9
ATOM      4  N   UNL     1      -4.413 -10.780  14.869  0.00  0.00    -0.287 NA
ATOM      9  C   UNL     1      -5.107 -11.265  16.079  0.00  0.00    +0.146 C 
ATOM     10  C   UNL     1      -4.039 -11.216  17.188  0.00  0.00    +0.030 C 
ATOM     11  C   UNL     1      -2.767 -10.751  16.494  0.00  0.00    +0.017 C 
ATOM     12  C   UNL     1      -3.000 -11.114  15.041  0.00  0.00    +0.085 C 
BRANCH   4  13
ATOM     13  C   UNL     1      -4.960 -11.330  13.635  0.00  0.00    +0.121 C 
BRANCH  13  15
ATOM      7  N   UNL     1      -3.452  -9.643  10.599  0.00  0.00    -0.263 NA
ATOM     15  C   UNL     1      -4.785 -10.386  12.474  0.00  0.00    -0.015 A 
ATOM     17  C   UNL     1      -5.738  -9.412  12.193  0.00  0.00    +0.008 A 
ATOM     18  C   UNL     1      -3.671 -10.459  11.655  0.00  0.00    +0.115 A 
ATOM     20  C   UNL     1      -5.548  -8.554  11.116  0.00  0.00    +0.020 A 
ATOM     21  C   UNL     1      -4.400  -8.710  10.357  0.00  0.00    +0.111 A 
ENDBRANCH  13  15
ENDBRANCH   4  13
ENDBRANCH  14   9
TORSDOF 8
ENDMDL
MODEL 7
REMARK VINA RESULT:      -5.7     28.751     31.628
REMARK  Name = 45783560
REMARK  9 active torsions:
REMARK  status: ('A' for Active; 'I' for Inactive)
REMARK    1  A    between atoms: O_2  and  C_25
REMARK    2  A    between atoms: O_2  and  C_26
REMARK    3  A    between atoms: O_3  and  C_27
REMARK    4  A    between atoms: O_3  and  C_28
REMARK    5  A    between atoms: N_4  and  C_13
REMARK    6  A    between atoms: C_9  and  C_14
REMARK    7  A    between atoms: C_13  and  C_15
REMARK    8  A    between atoms: C_16  and  C_19
REMARK    9  A    between atoms: C_26  and  C_27
REMARK                            x       y       z     vdW  Elec       q    Type
REMARK                         _______ _______ _______ _____ _____    ______ ____
ROOT
ATOM      1  O   UNL     1     -14.471  -5.050  13.430  0.00  0.00    -0.336 OA
ATOM      5  N   UNL     1     -12.238  -4.886  13.383  0.00  0.00    -0.190 NA
ATOM      6  N   UNL     1     -13.991  -6.009  14.330  0.00  0.00    -0.056 NA
ATOM     14  C   UNL     1     -13.374  -4.434  12.917  0.00  0.00    +0.245 A 
ATOM     16  C   UNL     1     -12.666  -5.850  14.247  0.00  0.00    +0.204 A 
ENDROOT
BRANCH  16  19
ATOM      8  N   UNL     1     -10.313  -8.583  15.156  0.00  0.00    -0.221 NA
ATOM     19  C   UNL     1     -11.745  -6.640  15.012  0.00  0.00    +0.041 A 
ATOM     22  C   UNL     1     -11.385  -6.270  16.303  0.00  0.00    +0.018 A 
ATOM     23  C   UNL     1     -11.185  -7.795  14.489  0.00  0.00    +0.126 A 
ATOM     24  C   UNL     1     -10.490  -7.056  17.021  0.00  0.00    +0.068 A 
ATOM     25  C   UNL     1      -9.988  -8.191  16.409  0.00  0.00    +0.215 A 
BRANCH  25   2
ATOM      2  O   UNL     1      -9.104  -8.982  17.095  0.00  0.00    -0.474 OA
BRANCH   2  26
ATOM     26  C   UNL     1      -8.211  -9.770  16.318  0.00  0.00    +0.258 C 
BRANCH  26  27
ATOM     27  C   UNL     1      -6.802  -9.593  16.850  0.00  0.00    +0.200 C 
BRANCH  27   3
ATOM      3  O   UNL     1      -5.942 -10.526  16.208  0.00  0.00    -0.380 OA
ATOM     28  C   UNL     1      -4.582 -10.307  16.554  0.00  0.00    +0.194 C 
ENDBRANCH  27   3
ENDBRANCH  26  27
ENDBRANCH   2  26
ENDBRANCH  25   2
ENDBRANCH  16  19
BRANCH  14   9
ATOM      4  N   UNL     1     -13.241  -3.732  10.533  0.00  0.00    -0.287 NA
ATOM      9  C   UNL     1     -13.629  -3.338  11.903  0.00  0.00    +0.146 C 
ATOM     10  C   UNL     1     -15.119  -2.964  11.794  0.00  0.00    +0.030 C 
ATOM     11  C   UNL     1     -15.461  -3.118  10.319  0.00  0.00    +0.017 C 
ATOM     12  C   UNL     1     -14.119  -2.993   9.626  0.00  0.00    +0.085 C 
BRANCH   4  13
ATOM     13  C   UNL     1     -11.831  -3.494  10.245  0.00  0.00    +0.121 C 
BRANCH  13  15
ATOM      7  N   UNL     1     -11.088  -7.121   9.456  0.00  0.00    -0.263 NA
ATOM     15  C   UNL     1     -11.164  -4.714   9.667  0.00  0.00    -0.015 A 
ATOM     17  C   UNL     1     -10.050  -4.599   8.842  0.00  0.00    +0.008 A 
ATOM     18  C   UNL     1     -11.639  -5.987   9.941  0.00  0.00    +0.115 A 
ATOM     20  C   UNL     1      -9.455  -5.743   8.324  0.00  0.00    +0.020 A 
ATOM     21  C   UNL     1     -10.007  -6.969   8.657  0.00  0.00    +0.111 A 
ENDBRANCH  13  15
ENDBRANCH   4  13
ENDBRANCH  14   9
TORSDOF 8
ENDMDL
MODEL 8
REMARK VINA RESULT:      -5.5     27.811     29.752
REMARK  Name = 45783560
REMARK  9 active torsions:
REMARK  status: ('A' for Active; 'I' for Inactive)
REMARK    1  A    between atoms: O_2  and  C_25
REMARK    2  A    between atoms: O_2  and  C_26
REMARK    3  A    between atoms: O_3  and  C_27
REMARK    4  A    between atoms: O_3  and  C_28
REMARK    5  A    between atoms: N_4  and  C_13
REMARK    6  A    between atoms: C_9  and  C_14
REMARK    7  A    between atoms: C_13  and  C_15
REMARK    8  A    between atoms: C_16  and  C_19
REMARK    9  A    between atoms: C_26  and  C_27
REMARK                            x       y       z     vdW  Elec       q    Type
REMARK                         _______ _______ _______ _____ _____    ______ ____
ROOT
ATOM      1  O   UNL     1      -4.323 -12.200  16.610  0.00  0.00    -0.336 OA
ATOM      5  N   UNL     1      -5.073 -10.325  15.641  0.00  0.00    -0.190 NA
ATOM      6  N   UNL     1      -3.806 -12.200  15.309  0.00  0.00    -0.056 NA
ATOM     14  C   UNL     1      -5.057 -11.062  16.723  0.00  0.00    +0.245 A 
ATOM     16  C   UNL     1      -4.292 -11.063  14.801  0.00  0.00    +0.204 A 
ENDROOT
BRANCH  16  19
ATOM      8  N   UNL     1      -4.805  -9.621  11.412  0.00  0.00    -0.221 NA
ATOM     19  C   UNL     1      -4.017 -10.637  13.460  0.00  0.00    +0.041 A 
ATOM     22  C   UNL     1      -2.756 -10.806  12.899  0.00  0.00    +0.018 A 
ATOM     23  C   UNL     1      -4.998 -10.043  12.681  0.00  0.00    +0.126 A 
ATOM     24  C   UNL     1      -2.518 -10.384  11.596  0.00  0.00    +0.068 A 
ATOM     25  C   UNL     1      -3.565  -9.803  10.901  0.00  0.00    +0.215 A 
BRANCH  25   2
ATOM      2  O   UNL     1      -3.357  -9.379   9.615  0.00  0.00    -0.474 OA
BRANCH   2  26
ATOM     26  C   UNL     1      -4.513  -9.171   8.813  0.00  0.00    +0.258 C 
BRANCH  26  27
ATOM     27  C   UNL     1      -4.819 -10.441   8.044  0.00  0.00    +0.200 C 
BRANCH  27   3
ATOM      3  O   UNL     1      -6.174 -10.807   8.273  0.00  0.00    -0.380 OA
ATOM     28  C   UNL     1      -6.983  -9.670   8.539  0.00  0.00    +0.194 C 
ENDBRANCH  27   3
ENDBRANCH  26  27
ENDBRANCH   2  26
ENDBRANCH  25   2
ENDBRANCH  16  19
BRANCH  14   9
ATOM      4  N   UNL     1      -7.187 -10.610  17.928  0.00  0.00    -0.287 NA
ATOM      9  C   UNL     1      -5.732 -10.824  18.058  0.00  0.00    +0.146 C 
ATOM     10  C   UNL     1      -5.597 -12.024  19.014  0.00  0.00    +0.030 C 
ATOM     11  C   UNL     1      -7.023 -12.375  19.415  0.00  0.00    +0.017 C 
ATOM     12  C   UNL     1      -7.788 -11.089  19.173  0.00  0.00    +0.085 C 
BRANCH   4  13
ATOM     13  C   UNL     1      -7.541  -9.224  17.647  0.00  0.00    +0.121 C 
BRANCH  13  15
ATOM      7  N   UNL     1     -10.168  -9.711  14.965  0.00  0.00    -0.263 NA
ATOM     15  C   UNL     1      -8.843  -9.118  16.899  0.00  0.00    -0.015 A 
ATOM     17  C   UNL     1      -9.899  -8.366  17.402  0.00  0.00    +0.008 A 
ATOM     18  C   UNL     1      -9.026  -9.765  15.688  0.00  0.00    +0.115 A 
ATOM     20  C   UNL     1     -11.090  -8.286  16.688  0.00  0.00    +0.020 A 
ATOM     21  C   UNL     1     -11.172  -8.971  15.486  0.00  0.00    +0.111 A 
ENDBRANCH  13  15
ENDBRANCH   4  13
ENDBRANCH  14   9
TORSDOF 8
ENDMDL
MODEL 9
REMARK VINA RESULT:      -5.4     28.834     32.103
REMARK  Name = 45783560
REMARK  9 active torsions:
REMARK  status: ('A' for Active; 'I' for Inactive)
REMARK    1  A    between atoms: O_2  and  C_25
REMARK    2  A    between atoms: O_2  and  C_26
REMARK    3  A    between atoms: O_3  and  C_27
REMARK    4  A    between atoms: O_3  and  C_28
REMARK    5  A    between atoms: N_4  and  C_13
REMARK    6  A    between atoms: C_9  and  C_14
REMARK    7  A    between atoms: C_13  and  C_15
REMARK    8  A    between atoms: C_16  and  C_19
REMARK    9  A    between atoms: C_26  and  C_27
REMARK                            x       y       z     vdW  Elec       q    Type
REMARK                         _______ _______ _______ _____ _____    ______ ____
ROOT
ATOM      1  O   UNL     1      -8.006 -10.916  16.235  0.00  0.00    -0.336 OA
ATOM      5  N   UNL     1      -8.135  -8.832  17.045  0.00  0.00    -0.190 NA
ATOM      6  N   UNL     1      -9.165 -10.356  15.685  0.00  0.00    -0.056 NA
ATOM     14  C   UNL     1      -7.460  -9.953  17.023  0.00  0.00    +0.245 A 
ATOM     16  C   UNL     1      -9.172  -9.126  16.210  0.00  0.00    +0.204 A 
ENDROOT
BRANCH  16  19
ATOM      8  N   UNL     1     -11.905  -7.363  14.406  0.00  0.00    -0.221 NA
ATOM     19  C   UNL     1     -10.201  -8.169  15.920  0.00  0.00    +0.041 A 
ATOM     22  C   UNL     1     -10.503  -7.150  16.815  0.00  0.00    +0.018 A 
ATOM     23  C   UNL     1     -10.925  -8.232  14.741  0.00  0.00    +0.126 A 
ATOM     24  C   UNL     1     -11.505  -6.236  16.508  0.00  0.00    +0.068 A 
ATOM     25  C   UNL     1     -12.169  -6.384  15.302  0.00  0.00    +0.215 A 
BRANCH  25   2
ATOM      2  O   UNL     1     -13.161  -5.497  14.975  0.00  0.00    -0.474 OA
BRANCH   2  26
ATOM     26  C   UNL     1     -13.672  -5.566  13.650  0.00  0.00    +0.258 C 
BRANCH  26  27
ATOM     27  C   UNL     1     -13.751  -4.165  13.074  0.00  0.00    +0.200 C 
BRANCH  27   3
ATOM      3  O   UNL     1     -12.433  -3.658  12.907  0.00  0.00    -0.380 OA
ATOM     28  C   UNL     1     -12.165  -3.343  11.548  0.00  0.00    +0.194 C 
ENDBRANCH  27   3
ENDBRANCH  26  27
ENDBRANCH   2  26
ENDBRANCH  25   2
ENDBRANCH  16  19
BRANCH  14   9
ATOM      4  N   UNL     1      -6.230 -11.660  18.353  0.00  0.00    -0.287 NA
ATOM      9  C   UNL     1      -6.177 -10.317  17.742  0.00  0.00    +0.146 C 
ATOM     10  C   UNL     1      -4.960 -10.365  16.799  0.00  0.00    +0.030 C 
ATOM     11  C   UNL     1      -4.360 -11.749  16.994  0.00  0.00    +0.017 C 
ATOM     12  C   UNL     1      -4.857 -12.164  18.365  0.00  0.00    +0.085 C 
BRANCH   4  13
ATOM     13  C   UNL     1      -6.826 -11.663  19.683  0.00  0.00    +0.121 C 
BRANCH  13  15
ATOM      7  N   UNL     1      -9.783 -14.024  19.561  0.00  0.00    -0.263 NA
ATOM     15  C   UNL     1      -8.248 -12.159  19.660  0.00  0.00    -0.015 A 
ATOM     17  C   UNL     1      -9.318 -11.271  19.711  0.00  0.00    +0.008 A 
ATOM     18  C   UNL     1      -8.532 -13.513  19.586  0.00  0.00    +0.115 A 
ATOM     20  C   UNL     1     -10.619 -11.759  19.687  0.00  0.00    +0.020 A 
ATOM     21  C   UNL     1     -10.797 -13.131  19.612  0.00  0.00    +0.111 A 
ENDBRANCH  13  15
ENDBRANCH   4  13
ENDBRANCH  14   9
TORSDOF 8
ENDMDL
MODEL 10
REMARK VINA RESULT:      -5.3     27.350     31.153
REMARK  Name = 45783560
REMARK  9 active torsions:
REMARK  status: ('A' for Active; 'I' for Inactive)
REMARK    1  A    between atoms: O_2  and  C_25
REMARK    2  A    between atoms: O_2  and  C_26
REMARK    3  A    between atoms: O_3  and  C_27
REMARK    4  A    between atoms: O_3  and  C_28
REMARK    5  A    between atoms: N_4  and  C_13
REMARK    6  A    between atoms: C_9  and  C_14
REMARK    7  A    between atoms: C_13  and  C_15
REMARK    8  A    between atoms: C_16  and  C_19
REMARK    9  A    between atoms: C_26  and  C_27
REMARK                            x       y       z     vdW  Elec       q    Type
REMARK                         _______ _______ _______ _____ _____    ______ ____
ROOT
ATOM      1  O   UNL     1      -7.724 -11.034  15.383  0.00  0.00    -0.336 OA
ATOM      5  N   UNL     1      -8.709  -9.819  16.986  0.00  0.00    -0.190 NA
ATOM      6  N   UNL     1      -8.621 -10.181  14.729  0.00  0.00    -0.056 NA
ATOM     14  C   UNL     1      -7.839 -10.756  16.708  0.00  0.00    +0.245 A 
ATOM     16  C   UNL     1      -9.163  -9.496  15.741  0.00  0.00    +0.204 A 
ENDROOT
BRANCH  16  19
ATOM      8  N   UNL     1     -12.265  -7.825  14.549  0.00  0.00    -0.221 NA
ATOM     19  C   UNL     1     -10.161  -8.485  15.542  0.00  0.00    +0.041 A 
ATOM     22  C   UNL     1     -10.025  -7.223  16.110  0.00  0.00    +0.018 A 
ATOM     23  C   UNL     1     -11.290  -8.733  14.777  0.00  0.00    +0.126 A 
ATOM     24  C   UNL     1     -11.008  -6.262  15.899  0.00  0.00    +0.068 A 
ATOM     25  C   UNL     1     -12.097  -6.609  15.118  0.00  0.00    +0.215 A 
BRANCH  25   2
ATOM      2  O   UNL     1     -13.080  -5.680  14.895  0.00  0.00    -0.474 OA
BRANCH   2  26
ATOM     26  C   UNL     1     -13.382  -5.380  13.538  0.00  0.00    +0.258 C 
BRANCH  26  27
ATOM     27  C   UNL     1     -12.521  -4.217  13.084  0.00  0.00    +0.200 C 
BRANCH  27   3
ATOM      3  O   UNL     1     -13.358  -3.210  12.529  0.00  0.00    -0.380 OA
ATOM     28  C   UNL     1     -14.727  -3.449  12.822  0.00  0.00    +0.194 C 
ENDBRANCH  27   3
ENDBRANCH  26  27
ENDBRANCH   2  26
ENDBRANCH  25   2
ENDBRANCH  16  19
BRANCH  14   9
ATOM      4  N   UNL     1      -5.520 -11.392  17.351  0.00  0.00    -0.287 NA
ATOM      9  C   UNL     1      -6.958 -11.557  17.644  0.00  0.00    +0.146 C 
ATOM     10  C   UNL     1      -7.109 -11.128  19.115  0.00  0.00    +0.030 C 
ATOM     11  C   UNL     1      -5.698 -10.799  19.580  0.00  0.00    +0.017 C 
ATOM     12  C   UNL     1      -4.817 -11.573  18.620  0.00  0.00    +0.085 C 
BRANCH   4  13
ATOM     13  C   UNL     1      -5.036 -12.303  16.321  0.00  0.00    +0.121 C 
BRANCH  13  15
ATOM      7  N   UNL     1      -1.826 -10.894  14.891  0.00  0.00    -0.263 NA
ATOM     15  C   UNL     1      -4.079 -11.623  15.377  0.00  0.00    -0.015 A 
ATOM     17  C   UNL     1      -4.516 -11.108  14.162  0.00  0.00    +0.008 A 
ATOM     18  C   UNL     1      -2.736 -11.492  15.692  0.00  0.00    +0.115 A 
ATOM     20  C   UNL     1      -3.610 -10.485  13.311  0.00  0.00    +0.020 A 
ATOM     21  C   UNL     1      -2.288 -10.405  13.719  0.00  0.00    +0.111 A 
ENDBRANCH  13  15
ENDBRANCH   4  13
ENDBRANCH  14   9
TORSDOF 8
ENDMDL
