MODEL 1
REMARK VINA RESULT:      -7.1      0.000      0.000
REMARK  Name = 45784399
REMARK  12 active torsions:
REMARK  status: ('A' for Active; 'I' for Inactive)
REMARK    1  A    between atoms: O_1  and  C_12
REMARK    2  A    between atoms: N_5  and  C_16
REMARK    3  A    between atoms: N_6  and  C_26
REMARK    4  A    between atoms: N_7  and  C_27
REMARK    5  A    between atoms: C_9  and  C_19
REMARK    6  A    between atoms: C_11  and  C_21
REMARK    7  A    between atoms: C_15  and  C_20
REMARK    8  A    between atoms: C_20  and  C_22
REMARK    9  A    between atoms: C_20  and  C_23
REMARK   10  A    between atoms: C_24  and  C_25
REMARK   11  A    between atoms: C_26  and  C_27
REMARK   12  A    between atoms: C_34  and  C_37
REMARK                            x       y       z     vdW  Elec       q    Type
REMARK                         _______ _______ _______ _____ _____    ______ ____
ROOT
ATOM      9  C   UNL     1      16.601   7.243  20.172  0.00  0.00    -0.027 C 
ATOM     10  C   UNL     1      17.712   8.089  20.881  0.00  0.00    +0.028 C 
ATOM     11  C   UNL     1      18.747   7.157  21.606  0.00  0.00    +0.012 C 
ATOM     12  C   UNL     1      17.090   9.210  21.762  0.00  0.00    +0.122 C 
ATOM     13  C   UNL     1      15.666   8.183  19.376  0.00  0.00    +0.007 C 
ATOM     14  C   UNL     1      17.268   6.278  19.165  0.00  0.00    +0.009 C 
ATOM     15  C   UNL     1      16.076  10.083  20.985  0.00  0.00    +0.029 C 
ATOM     16  C   UNL     1      19.356   6.142  20.598  0.00  0.00    +0.076 C 
ATOM     17  C   UNL     1      15.024   9.258  20.244  0.00  0.00    +0.007 C 
ATOM     18  C   UNL     1      18.303   5.366  19.807  0.00  0.00    +0.023 C 
ATOM     19  C   UNL     1      15.749   6.424  21.175  0.00  0.00    +0.011 C 
ATOM     21  C   UNL     1      19.885   7.924  22.301  0.00  0.00    +0.010 C 
ENDROOT
BRANCH  16   5
ATOM      3  O   UNL     1      22.127   5.666  20.012  0.00  0.00    -0.270 OA
ATOM      5  N   UNL     1      20.228   5.192  21.256  0.00  0.00    -0.308 N 
ATOM     24  C   UNL     1      21.556   5.036  20.899  0.00  0.00    +0.244 C 
ATOM     38  H   UNL     1      19.796   4.555  21.918  0.00  0.00    +0.149 HD
BRANCH  24  25
ATOM     25  C   UNL     1      22.311   4.000  21.651  0.00  0.00    +0.037 A 
ATOM     28  C   UNL     1      22.259   3.974  23.045  0.00  0.00    +0.014 A 
ATOM     29  C   UNL     1      23.070   3.054  20.963  0.00  0.00    +0.014 A 
ATOM     30  C   UNL     1      22.966   3.000  23.751  0.00  0.00    +0.019 A 
ATOM     31  C   UNL     1      23.777   2.080  21.669  0.00  0.00    +0.019 A 
ATOM     34  C   UNL     1      23.725   2.054  23.063  0.00  0.00    +0.052 A 
BRANCH  34  37
ATOM      8  N   UNL     1      25.039   0.247  24.373  0.00  0.00    -0.191 NA
ATOM     37  C   UNL     1      24.450   1.057  23.786  0.00  0.00    +0.099 C 
ENDBRANCH  34  37
ENDBRANCH  24  25
ENDBRANCH  16   5
BRANCH  12   1
ATOM      1  O   UNL     1      18.121  10.088  22.215  0.00  0.00    -0.391 OA
ATOM     39  H   UNL     1      18.380  10.660  21.471  0.00  0.00    +0.210 HD
ENDBRANCH  12   1
BRANCH  15  20
ATOM     20  C   UNL     1      15.379  11.096  21.902  0.00  0.00    +0.077 C 
ATOM     22  C   UNL     1      15.197  10.505  23.296  0.00  0.00    +0.017 C 
BRANCH  20  23
ATOM      2  O   UNL     1      13.955  12.215  20.293  0.00  0.00    -0.276 OA
ATOM      6  N   UNL     1      12.959  11.008  22.004  0.00  0.00    -0.314 N 
ATOM     23  C   UNL     1      14.041  11.510  21.296  0.00  0.00    +0.216 C 
ATOM     40  H   UNL     1      13.121  10.449  22.836  0.00  0.00    +0.149 HD
BRANCH   6  26
ATOM     26  C   UNL     1      11.589  11.267  21.624  0.00  0.00    +0.119 C 
BRANCH  26  27
ATOM     27  C   UNL     1      10.729  10.022  21.787  0.00  0.00    +0.103 C 
BRANCH  27   7
ATOM      4  O   UNL     1      11.574   6.286  20.071  0.00  0.00    -0.377 OA
ATOM      7  N   UNL     1      11.452   8.840  21.321  0.00  0.00    -0.297 NA
ATOM     32  C   UNL     1      10.964   7.630  21.998  0.00  0.00    +0.112 C 
ATOM     33  C   UNL     1      11.324   8.690  19.866  0.00  0.00    +0.112 C 
ATOM     35  C   UNL     1      11.725   6.410  21.486  0.00  0.00    +0.175 C 
ATOM     36  C   UNL     1      12.075   7.445  19.404  0.00  0.00    +0.175 C 
ENDBRANCH  27   7
ENDBRANCH  26  27
ENDBRANCH   6  26
ENDBRANCH  20  23
ENDBRANCH  15  20
TORSDOF 9
ENDMDL
MODEL 2
REMARK VINA RESULT:      -7.1     28.978     32.198
REMARK  Name = 45784399
REMARK  12 active torsions:
REMARK  status: ('A' for Active; 'I' for Inactive)
REMARK    1  A    between atoms: O_1  and  C_12
REMARK    2  A    between atoms: N_5  and  C_16
REMARK    3  A    between atoms: N_6  and  C_26
REMARK    4  A    between atoms: N_7  and  C_27
REMARK    5  A    between atoms: C_9  and  C_19
REMARK    6  A    between atoms: C_11  and  C_21
REMARK    7  A    between atoms: C_15  and  C_20
REMARK    8  A    between atoms: C_20  and  C_22
REMARK    9  A    between atoms: C_20  and  C_23
REMARK   10  A    between atoms: C_24  and  C_25
REMARK   11  A    between atoms: C_26  and  C_27
REMARK   12  A    between atoms: C_34  and  C_37
REMARK                            x       y       z     vdW  Elec       q    Type
REMARK                         _______ _______ _______ _____ _____    ______ ____
ROOT
ATOM      9  C   UNL     1     -14.944   8.668  22.174  0.00  0.00    -0.027 C 
ATOM     10  C   UNL     1     -14.124   7.414  21.720  0.00  0.00    +0.028 C 
ATOM     11  C   UNL     1     -14.119   6.313  22.840  0.00  0.00    +0.012 C 
ATOM     12  C   UNL     1     -12.723   7.824  21.179  0.00  0.00    +0.122 C 
ATOM     13  C   UNL     1     -15.024   9.682  21.009  0.00  0.00    +0.007 C 
ATOM     14  C   UNL     1     -16.387   8.228  22.516  0.00  0.00    +0.009 C 
ATOM     15  C   UNL     1     -12.804   8.915  20.086  0.00  0.00    +0.029 C 
ATOM     16  C   UNL     1     -15.576   5.934  23.228  0.00  0.00    +0.076 C 
ATOM     17  C   UNL     1     -13.654  10.115  20.504  0.00  0.00    +0.007 C 
ATOM     18  C   UNL     1     -16.445   7.141  23.578  0.00  0.00    +0.023 C 
ATOM     19  C   UNL     1     -14.320   9.371  23.407  0.00  0.00    +0.011 C 
ATOM     21  C   UNL     1     -13.352   5.039  22.448  0.00  0.00    +0.010 C 
ENDROOT
BRANCH  16   5
ATOM      3  O   UNL     1     -17.384   3.729  23.565  0.00  0.00    -0.270 OA
ATOM      5  N   UNL     1     -15.610   5.006  24.339  0.00  0.00    -0.308 N 
ATOM     24  C   UNL     1     -16.525   3.970  24.410  0.00  0.00    +0.244 C 
ATOM     38  H   UNL     1     -15.007   5.214  25.128  0.00  0.00    +0.149 HD
BRANCH  24  25
ATOM     25  C   UNL     1     -16.448   3.121  25.627  0.00  0.00    +0.037 A 
ATOM     28  C   UNL     1     -16.687   1.750  25.539  0.00  0.00    +0.014 A 
ATOM     29  C   UNL     1     -16.134   3.697  26.858  0.00  0.00    +0.014 A 
ATOM     30  C   UNL     1     -16.612   0.954  26.681  0.00  0.00    +0.019 A 
ATOM     31  C   UNL     1     -16.060   2.901  28.001  0.00  0.00    +0.019 A 
ATOM     34  C   UNL     1     -16.299   1.530  27.912  0.00  0.00    +0.052 A 
BRANCH  34  37
ATOM      8  N   UNL     1     -16.161   0.052  30.035  0.00  0.00    -0.191 NA
ATOM     37  C   UNL     1     -16.223   0.714  29.084  0.00  0.00    +0.099 C 
ENDBRANCH  34  37
ENDBRANCH  24  25
ENDBRANCH  16   5
BRANCH  12   1
ATOM      1  O   UNL     1     -12.094   6.691  20.579  0.00  0.00    -0.391 OA
ATOM     39  H   UNL     1     -11.593   6.998  19.804  0.00  0.00    +0.210 HD
ENDBRANCH  12   1
BRANCH  15  20
ATOM     20  C   UNL     1     -11.412   9.397  19.661  0.00  0.00    +0.077 C 
ATOM     22  C   UNL     1     -11.316  10.914  19.796  0.00  0.00    +0.017 C 
BRANCH  20  23
ATOM      2  O   UNL     1     -11.196   7.774  17.876  0.00  0.00    -0.276 OA
ATOM      6  N   UNL     1     -10.762  10.003  17.406  0.00  0.00    -0.314 N 
ATOM     23  C   UNL     1     -11.119   8.948  18.232  0.00  0.00    +0.216 C 
ATOM     40  H   UNL     1     -10.705  10.941  17.789  0.00  0.00    +0.149 HD
BRANCH   6  26
ATOM     26  C   UNL     1     -10.437   9.826  16.009  0.00  0.00    +0.119 C 
BRANCH  26  27
ATOM     27  C   UNL     1     -11.640  10.116  15.123  0.00  0.00    +0.103 C 
BRANCH  27   7
ATOM      4  O   UNL     1     -12.089   6.336  13.355  0.00  0.00    -0.377 OA
ATOM      7  N   UNL     1     -11.801   9.061  14.124  0.00  0.00    -0.297 NA
ATOM     32  C   UNL     1     -10.666   8.128  14.164  0.00  0.00    +0.112 C 
ATOM     33  C   UNL     1     -13.060   8.333  14.332  0.00  0.00    +0.112 C 
ATOM     35  C   UNL     1     -10.863   7.031  13.122  0.00  0.00    +0.175 C 
ATOM     36  C   UNL     1     -13.200   7.231  13.286  0.00  0.00    +0.175 C 
ENDBRANCH  27   7
ENDBRANCH  26  27
ENDBRANCH   6  26
ENDBRANCH  20  23
ENDBRANCH  15  20
TORSDOF 9
ENDMDL
MODEL 3
REMARK VINA RESULT:      -7.1     29.116     33.318
REMARK  Name = 45784399
REMARK  12 active torsions:
REMARK  status: ('A' for Active; 'I' for Inactive)
REMARK    1  A    between atoms: O_1  and  C_12
REMARK    2  A    between atoms: N_5  and  C_16
REMARK    3  A    between atoms: N_6  and  C_26
REMARK    4  A    between atoms: N_7  and  C_27
REMARK    5  A    between atoms: C_9  and  C_19
REMARK    6  A    between atoms: C_11  and  C_21
REMARK    7  A    between atoms: C_15  and  C_20
REMARK    8  A    between atoms: C_20  and  C_22
REMARK    9  A    between atoms: C_20  and  C_23
REMARK   10  A    between atoms: C_24  and  C_25
REMARK   11  A    between atoms: C_26  and  C_27
REMARK   12  A    between atoms: C_34  and  C_37
REMARK                            x       y       z     vdW  Elec       q    Type
REMARK                         _______ _______ _______ _____ _____    ______ ____
ROOT
ATOM      9  C   UNL     1      -5.852 -11.378   6.204  0.00  0.00    -0.027 C 
ATOM     10  C   UNL     1      -6.035  -9.921   6.747  0.00  0.00    +0.028 C 
ATOM     11  C   UNL     1      -5.988  -9.900   8.318  0.00  0.00    +0.012 C 
ATOM     12  C   UNL     1      -7.274  -9.231   6.106  0.00  0.00    +0.122 C 
ATOM     13  C   UNL     1      -5.790 -11.348   4.659  0.00  0.00    +0.007 C 
ATOM     14  C   UNL     1      -4.509 -11.943   6.719  0.00  0.00    +0.009 C 
ATOM     15  C   UNL     1      -7.256  -9.296   4.560  0.00  0.00    +0.029 C 
ATOM     16  C   UNL     1      -4.665 -10.539   8.825  0.00  0.00    +0.076 C 
ATOM     17  C   UNL     1      -7.020 -10.709   4.026  0.00  0.00    +0.007 C 
ATOM     18  C   UNL     1      -4.394 -11.923   8.236  0.00  0.00    +0.023 C 
ATOM     19  C   UNL     1      -7.003 -12.322   6.638  0.00  0.00    +0.011 C 
ATOM     21  C   UNL     1      -6.133  -8.492   8.919  0.00  0.00    +0.010 C 
ENDROOT
BRANCH  16   5
ATOM      3  O   UNL     1      -2.576  -9.627  10.572  0.00  0.00    -0.270 OA
ATOM      5  N   UNL     1      -4.639 -10.642  10.269  0.00  0.00    -0.308 N 
ATOM     24  C   UNL     1      -3.581 -10.170  11.026  0.00  0.00    +0.244 C 
ATOM     38  H   UNL     1      -5.381 -11.182  10.703  0.00  0.00    +0.149 HD
BRANCH  24  25
ATOM     25  C   UNL     1      -3.694 -10.375  12.493  0.00  0.00    +0.037 A 
ATOM     28  C   UNL     1      -2.545 -10.552  13.264  0.00  0.00    +0.014 A 
ATOM     29  C   UNL     1      -4.950 -10.388  13.100  0.00  0.00    +0.014 A 
ATOM     30  C   UNL     1      -2.651 -10.743  14.641  0.00  0.00    +0.019 A 
ATOM     31  C   UNL     1      -5.057 -10.579  14.478  0.00  0.00    +0.019 A 
ATOM     34  C   UNL     1      -3.907 -10.756  15.248  0.00  0.00    +0.052 A 
BRANCH  34  37
ATOM      8  N   UNL     1      -4.106 -11.113  17.805  0.00  0.00    -0.191 NA
ATOM     37  C   UNL     1      -4.016 -10.953  16.659  0.00  0.00    +0.099 C 
ENDBRANCH  34  37
ENDBRANCH  24  25
ENDBRANCH  16   5
BRANCH  12   1
ATOM      1  O   UNL     1      -7.282  -7.847   6.456  0.00  0.00    -0.391 OA
ATOM     39  H   UNL     1      -7.255  -7.327   5.635  0.00  0.00    +0.210 HD
ENDBRANCH  12   1
BRANCH  15  20
ATOM     20  C   UNL     1      -8.545  -8.729   3.954  0.00  0.00    +0.077 C 
ATOM     22  C   UNL     1      -9.728  -9.631   4.294  0.00  0.00    +0.017 C 
BRANCH  20  23
ATOM      2  O   UNL     1      -7.446  -7.959   1.938  0.00  0.00    -0.276 OA
ATOM      6  N   UNL     1      -9.404  -9.184   1.734  0.00  0.00    -0.314 N 
ATOM     23  C   UNL     1      -8.384  -8.570   2.445  0.00  0.00    +0.216 C 
ATOM     40  H   UNL     1     -10.152  -9.653   2.236  0.00  0.00    +0.149 HD
BRANCH   6  26
ATOM     26  C   UNL     1      -9.470  -9.169   0.291  0.00  0.00    +0.119 C 
BRANCH  26  27
ATOM     27  C   UNL     1      -8.982 -10.486  -0.296  0.00  0.00    +0.103 C 
BRANCH  27   7
ATOM      4  O   UNL     1      -6.453  -9.540  -3.509  0.00  0.00    -0.377 OA
ATOM      7  N   UNL     1      -7.780 -10.269  -1.099  0.00  0.00    -0.297 NA
ATOM     32  C   UNL     1      -7.769 -11.159  -2.270  0.00  0.00    +0.112 C 
ATOM     33  C   UNL     1      -7.686  -8.868  -1.531  0.00  0.00    +0.112 C 
ATOM     35  C   UNL     1      -6.512 -10.906  -3.098  0.00  0.00    +0.175 C 
ATOM     36  C   UNL     1      -6.431  -8.670  -2.377  0.00  0.00    +0.175 C 
ENDBRANCH  27   7
ENDBRANCH  26  27
ENDBRANCH   6  26
ENDBRANCH  20  23
ENDBRANCH  15  20
TORSDOF 9
ENDMDL
MODEL 4
REMARK VINA RESULT:      -7.0     28.249     32.022
REMARK  Name = 45784399
REMARK  12 active torsions:
REMARK  status: ('A' for Active; 'I' for Inactive)
REMARK    1  A    between atoms: O_1  and  C_12
REMARK    2  A    between atoms: N_5  and  C_16
REMARK    3  A    between atoms: N_6  and  C_26
REMARK    4  A    between atoms: N_7  and  C_27
REMARK    5  A    between atoms: C_9  and  C_19
REMARK    6  A    between atoms: C_11  and  C_21
REMARK    7  A    between atoms: C_15  and  C_20
REMARK    8  A    between atoms: C_20  and  C_22
REMARK    9  A    between atoms: C_20  and  C_23
REMARK   10  A    between atoms: C_24  and  C_25
REMARK   11  A    between atoms: C_26  and  C_27
REMARK   12  A    between atoms: C_34  and  C_37
REMARK                            x       y       z     vdW  Elec       q    Type
REMARK                         _______ _______ _______ _____ _____    ______ ____
ROOT
ATOM      9  C   UNL     1      -4.775 -11.021  16.896  0.00  0.00    -0.027 C 
ATOM     10  C   UNL     1      -5.552 -10.386  15.694  0.00  0.00    +0.028 C 
ATOM     11  C   UNL     1      -7.104 -10.474  15.923  0.00  0.00    +0.012 C 
ATOM     12  C   UNL     1      -5.044 -10.947  14.335  0.00  0.00    +0.122 C 
ATOM     13  C   UNL     1      -3.256 -10.817  16.693  0.00  0.00    +0.007 C 
ATOM     14  C   UNL     1      -5.179 -10.292  18.198  0.00  0.00    +0.009 C 
ATOM     15  C   UNL     1      -3.509 -10.835  14.182  0.00  0.00    +0.029 C 
ATOM     16  C   UNL     1      -7.488  -9.803  17.272  0.00  0.00    +0.076 C 
ATOM     17  C   UNL     1      -2.748 -11.401  15.381  0.00  0.00    +0.007 C 
ATOM     18  C   UNL     1      -6.677 -10.320  18.459  0.00  0.00    +0.023 C 
ATOM     19  C   UNL     1      -5.059 -12.537  17.051  0.00  0.00    +0.011 C 
ATOM     21  C   UNL     1      -7.930  -9.841  14.790  0.00  0.00    +0.010 C 
ENDROOT
BRANCH  16   5
ATOM      3  O   UNL     1      -9.479  -7.734  17.342  0.00  0.00    -0.270 OA
ATOM      5  N   UNL     1      -8.895  -9.967  17.570  0.00  0.00    -0.308 N 
ATOM     24  C   UNL     1      -9.779  -8.902  17.579  0.00  0.00    +0.244 C 
ATOM     38  H   UNL     1      -9.192 -10.884  17.889  0.00  0.00    +0.149 HD
BRANCH  24  25
ATOM     25  C   UNL     1     -11.185  -9.232  17.930  0.00  0.00    +0.037 A 
ATOM     28  C   UNL     1     -12.222  -8.870  17.071  0.00  0.00    +0.014 A 
ATOM     29  C   UNL     1     -11.466  -9.904  19.119  0.00  0.00    +0.014 A 
ATOM     30  C   UNL     1     -13.542  -9.181  17.400  0.00  0.00    +0.019 A 
ATOM     31  C   UNL     1     -12.785 -10.215  19.450  0.00  0.00    +0.019 A 
ATOM     34  C   UNL     1     -13.822  -9.853  18.589  0.00  0.00    +0.052 A 
BRANCH  34  37
ATOM      8  N   UNL     1     -16.272 -10.430  19.202  0.00  0.00    -0.191 NA
ATOM     37  C   UNL     1     -15.174 -10.172  18.928  0.00  0.00    +0.099 C 
ENDBRANCH  34  37
ENDBRANCH  24  25
ENDBRANCH  16   5
BRANCH  12   1
ATOM      1  O   UNL     1      -5.617 -10.194  13.265  0.00  0.00    -0.391 OA
ATOM     39  H   UNL     1      -4.930  -9.604  12.909  0.00  0.00    +0.210 HD
ENDBRANCH  12   1
BRANCH  15  20
ATOM     20  C   UNL     1      -3.015 -11.510  12.897  0.00  0.00    +0.077 C 
ATOM     22  C   UNL     1      -1.883 -12.481  13.215  0.00  0.00    +0.017 C 
BRANCH  20  23
ATOM      2  O   UNL     1      -1.455  -9.941  11.911  0.00  0.00    -0.276 OA
ATOM      6  N   UNL     1      -3.566 -10.143  10.973  0.00  0.00    -0.314 N 
ATOM     23  C   UNL     1      -2.572 -10.452  11.891  0.00  0.00    +0.216 C 
ATOM     40  H   UNL     1      -4.470 -10.600  11.042  0.00  0.00    +0.149 HD
BRANCH   6  26
ATOM     26  C   UNL     1      -3.383  -9.168   9.923  0.00  0.00    +0.119 C 
BRANCH  26  27
ATOM     27  C   UNL     1      -4.558  -9.175   8.955  0.00  0.00    +0.103 C 
BRANCH  27   7
ATOM      4  O   UNL     1      -8.540 -10.251   9.732  0.00  0.00    -0.377 OA
ATOM      7  N   UNL     1      -5.743  -9.737   9.600  0.00  0.00    -0.297 NA
ATOM     32  C   UNL     1      -6.704  -8.677   9.938  0.00  0.00    +0.112 C 
ATOM     33  C   UNL     1      -6.382 -10.739   8.736  0.00  0.00    +0.112 C 
ATOM     35  C   UNL     1      -7.937  -9.289  10.598  0.00  0.00    +0.175 C 
ATOM     36  C   UNL     1      -7.622 -11.302   9.425  0.00  0.00    +0.175 C 
ENDBRANCH  27   7
ENDBRANCH  26  27
ENDBRANCH   6  26
ENDBRANCH  20  23
ENDBRANCH  15  20
TORSDOF 9
ENDMDL
MODEL 5
REMARK VINA RESULT:      -6.8     31.129     33.938
REMARK  Name = 45784399
REMARK  12 active torsions:
REMARK  status: ('A' for Active; 'I' for Inactive)
REMARK    1  A    between atoms: O_1  and  C_12
REMARK    2  A    between atoms: N_5  and  C_16
REMARK    3  A    between atoms: N_6  and  C_26
REMARK    4  A    between atoms: N_7  and  C_27
REMARK    5  A    between atoms: C_9  and  C_19
REMARK    6  A    between atoms: C_11  and  C_21
REMARK    7  A    between atoms: C_15  and  C_20
REMARK    8  A    between atoms: C_20  and  C_22
REMARK    9  A    between atoms: C_20  and  C_23
REMARK   10  A    between atoms: C_24  and  C_25
REMARK   11  A    between atoms: C_26  and  C_27
REMARK   12  A    between atoms: C_34  and  C_37
REMARK                            x       y       z     vdW  Elec       q    Type
REMARK                         _______ _______ _______ _____ _____    ______ ____
ROOT
ATOM      9  C   UNL     1     -12.335  -4.311  10.682  0.00  0.00    -0.027 C 
ATOM     10  C   UNL     1     -11.836  -5.771  10.949  0.00  0.00    +0.028 C 
ATOM     11  C   UNL     1     -11.465  -6.490   9.602  0.00  0.00    +0.012 C 
ATOM     12  C   UNL     1     -12.823  -6.544  11.870  0.00  0.00    +0.122 C 
ATOM     13  C   UNL     1     -12.583  -3.596  12.030  0.00  0.00    +0.007 C 
ATOM     14  C   UNL     1     -11.232  -3.531   9.930  0.00  0.00    +0.009 C 
ATOM     15  C   UNL     1     -13.148  -5.775  13.172  0.00  0.00    +0.029 C 
ATOM     16  C   UNL     1     -10.409  -5.658   8.821  0.00  0.00    +0.076 C 
ATOM     17  C   UNL     1     -13.580  -4.330  12.918  0.00  0.00    +0.007 C 
ATOM     18  C   UNL     1     -10.811  -4.196   8.628  0.00  0.00    +0.023 C 
ATOM     19  C   UNL     1     -13.642  -4.274   9.850  0.00  0.00    +0.011 C 
ATOM     21  C   UNL     1     -10.938  -7.922   9.794  0.00  0.00    +0.010 C 
ENDROOT
BRANCH  16   5
ATOM      3  O   UNL     1      -7.915  -6.776   7.941  0.00  0.00    -0.270 OA
ATOM      5  N   UNL     1     -10.130  -6.232   7.522  0.00  0.00    -0.308 N 
ATOM     24  C   UNL     1      -8.889  -6.748   7.192  0.00  0.00    +0.244 C 
ATOM     38  H   UNL     1     -10.852  -6.138   6.814  0.00  0.00    +0.149 HD
BRANCH  24  25
ATOM     25  C   UNL     1      -8.755  -7.277   5.809  0.00  0.00    +0.037 A 
ATOM     28  C   UNL     1      -9.754  -7.031   4.868  0.00  0.00    +0.014 A 
ATOM     29  C   UNL     1      -7.629  -8.019   5.454  0.00  0.00    +0.014 A 
ATOM     30  C   UNL     1      -9.628  -7.526   3.571  0.00  0.00    +0.019 A 
ATOM     31  C   UNL     1      -7.502  -8.514   4.156  0.00  0.00    +0.019 A 
ATOM     34  C   UNL     1      -8.502  -8.267   3.215  0.00  0.00    +0.052 A 
BRANCH  34  37
ATOM      8  N   UNL     1      -8.267  -9.188   0.805  0.00  0.00    -0.191 NA
ATOM     37  C   UNL     1      -8.372  -8.776   1.885  0.00  0.00    +0.099 C 
ENDBRANCH  34  37
ENDBRANCH  24  25
ENDBRANCH  16   5
BRANCH  12   1
ATOM      1  O   UNL     1     -12.234  -7.784  12.265  0.00  0.00    -0.391 OA
ATOM     39  H   UNL     1     -12.835  -8.218  12.895  0.00  0.00    +0.210 HD
ENDBRANCH  12   1
BRANCH  15  20
ATOM     20  C   UNL     1     -14.220  -6.491  14.002  0.00  0.00    +0.077 C 
ATOM     22  C   UNL     1     -15.496  -5.656  14.047  0.00  0.00    +0.017 C 
BRANCH  20  23
ATOM      2  O   UNL     1     -14.420  -6.827  16.393  0.00  0.00    -0.276 OA
ATOM      6  N   UNL     1     -12.314  -6.944  15.430  0.00  0.00    -0.314 N 
ATOM     23  C   UNL     1     -13.690  -6.770  15.406  0.00  0.00    +0.216 C 
ATOM     40  H   UNL     1     -11.785  -6.860  14.567  0.00  0.00    +0.149 HD
BRANCH   6  26
ATOM     26  C   UNL     1     -11.582  -7.218  16.644  0.00  0.00    +0.119 C 
BRANCH  26  27
ATOM     27  C   UNL     1     -10.097  -7.398  16.363  0.00  0.00    +0.103 C 
BRANCH  27   7
ATOM      4  O   UNL     1      -8.728 -10.935  18.159  0.00  0.00    -0.377 OA
ATOM      7  N   UNL     1      -9.507  -8.328  17.324  0.00  0.00    -0.297 NA
ATOM     32  C   UNL     1     -10.498  -9.323  17.760  0.00  0.00    +0.112 C 
ATOM     33  C   UNL     1      -8.337  -9.002  16.746  0.00  0.00    +0.112 C 
ATOM     35  C   UNL     1      -9.856 -10.290  18.752  0.00  0.00    +0.175 C 
ATOM     36  C   UNL     1      -7.747  -9.977  17.761  0.00  0.00    +0.175 C 
ENDBRANCH  27   7
ENDBRANCH  26  27
ENDBRANCH   6  26
ENDBRANCH  20  23
ENDBRANCH  15  20
TORSDOF 9
ENDMDL
MODEL 6
REMARK VINA RESULT:      -6.8     20.055     23.111
REMARK  Name = 45784399
REMARK  12 active torsions:
REMARK  status: ('A' for Active; 'I' for Inactive)
REMARK    1  A    between atoms: O_1  and  C_12
REMARK    2  A    between atoms: N_5  and  C_16
REMARK    3  A    between atoms: N_6  and  C_26
REMARK    4  A    between atoms: N_7  and  C_27
REMARK    5  A    between atoms: C_9  and  C_19
REMARK    6  A    between atoms: C_11  and  C_21
REMARK    7  A    between atoms: C_15  and  C_20
REMARK    8  A    between atoms: C_20  and  C_22
REMARK    9  A    between atoms: C_20  and  C_23
REMARK   10  A    between atoms: C_24  and  C_25
REMARK   11  A    between atoms: C_26  and  C_27
REMARK   12  A    between atoms: C_34  and  C_37
REMARK                            x       y       z     vdW  Elec       q    Type
REMARK                         _______ _______ _______ _____ _____    ______ ____
ROOT
ATOM      9  C   UNL     1      13.629   4.937  -0.357  0.00  0.00    -0.027 C 
ATOM     10  C   UNL     1      12.070   4.792  -0.339  0.00  0.00    +0.028 C 
ATOM     11  C   UNL     1      11.549   4.542   1.122  0.00  0.00    +0.012 C 
ATOM     12  C   UNL     1      11.587   3.767  -1.405  0.00  0.00    +0.122 C 
ATOM     13  C   UNL     1      14.097   5.294  -1.787  0.00  0.00    +0.007 C 
ATOM     14  C   UNL     1      14.037   6.101   0.576  0.00  0.00    +0.009 C 
ATOM     15  C   UNL     1      12.144   4.070  -2.816  0.00  0.00    +0.029 C 
ATOM     16  C   UNL     1      12.029   5.681   2.066  0.00  0.00    +0.076 C 
ATOM     17  C   UNL     1      13.660   4.271  -2.828  0.00  0.00    +0.007 C 
ATOM     18  C   UNL     1      13.536   5.927   2.002  0.00  0.00    +0.023 C 
ATOM     19  C   UNL     1      14.351   3.643   0.096  0.00  0.00    +0.011 C 
ATOM     21  C   UNL     1      10.019   4.419   1.217  0.00  0.00    +0.010 C 
ENDROOT
BRANCH  16   5
ATOM      3  O   UNL     1      10.480   7.388   3.778  0.00  0.00    -0.270 OA
ATOM      5  N   UNL     1      11.665   5.423   3.443  0.00  0.00    -0.308 N 
ATOM     24  C   UNL     1      10.911   6.313   4.188  0.00  0.00    +0.244 C 
ATOM     38  H   UNL     1      12.083   4.610   3.884  0.00  0.00    +0.149 HD
BRANCH  24  25
ATOM     25  C   UNL     1      10.644   5.915   5.595  0.00  0.00    +0.037 A 
ATOM     28  C   UNL     1      11.022   6.755   6.642  0.00  0.00    +0.014 A 
ATOM     29  C   UNL     1      10.014   4.701   5.867  0.00  0.00    +0.014 A 
ATOM     30  C   UNL     1      10.770   6.382   7.962  0.00  0.00    +0.019 A 
ATOM     31  C   UNL     1       9.763   4.327   7.188  0.00  0.00    +0.019 A 
ATOM     34  C   UNL     1      10.141   5.168   8.234  0.00  0.00    +0.052 A 
BRANCH  34  37
ATOM      8  N   UNL     1       9.675   4.472  10.685  0.00  0.00    -0.191 NA
ATOM     37  C   UNL     1       9.883   4.784   9.587  0.00  0.00    +0.099 C 
ENDBRANCH  34  37
ENDBRANCH  24  25
ENDBRANCH  16   5
BRANCH  12   1
ATOM      1  O   UNL     1      10.164   3.821  -1.508  0.00  0.00    -0.391 OA
ATOM     39  H   UNL     1       9.903   3.370  -2.330  0.00  0.00    +0.210 HD
ENDBRANCH  12   1
BRANCH  15  20
ATOM     20  C   UNL     1      11.765   2.978  -3.823  0.00  0.00    +0.077 C 
ATOM     22  C   UNL     1      12.949   2.668  -4.734  0.00  0.00    +0.017 C 
BRANCH  20  23
ATOM      2  O   UNL     1       9.919   2.646  -5.356  0.00  0.00    -0.276 OA
ATOM      6  N   UNL     1      10.238   4.754  -4.445  0.00  0.00    -0.314 N 
ATOM     23  C   UNL     1      10.545   3.414  -4.628  0.00  0.00    +0.216 C 
ATOM     40  H   UNL     1      10.822   5.322  -3.839  0.00  0.00    +0.149 HD
BRANCH   6  26
ATOM     26  C   UNL     1       9.125   5.398  -5.103  0.00  0.00    +0.119 C 
BRANCH  26  27
ATOM     27  C   UNL     1       7.848   5.262  -4.286  0.00  0.00    +0.103 C 
BRANCH  27   7
ATOM      4  O   UNL     1       6.108   8.391  -2.097  0.00  0.00    -0.377 OA
ATOM      7  N   UNL     1       7.339   6.581  -3.915  0.00  0.00    -0.297 NA
ATOM     32  C   UNL     1       5.898   6.521  -3.630  0.00  0.00    +0.112 C 
ATOM     33  C   UNL     1       8.062   7.111  -2.752  0.00  0.00    +0.112 C 
ATOM     35  C   UNL     1       5.393   7.906  -3.234  0.00  0.00    +0.175 C 
ATOM     36  C   UNL     1       7.505   8.482  -2.377  0.00  0.00    +0.175 C 
ENDBRANCH  27   7
ENDBRANCH  26  27
ENDBRANCH   6  26
ENDBRANCH  20  23
ENDBRANCH  15  20
TORSDOF 9
ENDMDL
MODEL 7
REMARK VINA RESULT:      -6.7     28.552     32.049
REMARK  Name = 45784399
REMARK  12 active torsions:
REMARK  status: ('A' for Active; 'I' for Inactive)
REMARK    1  A    between atoms: O_1  and  C_12
REMARK    2  A    between atoms: N_5  and  C_16
REMARK    3  A    between atoms: N_6  and  C_26
REMARK    4  A    between atoms: N_7  and  C_27
REMARK    5  A    between atoms: C_9  and  C_19
REMARK    6  A    between atoms: C_11  and  C_21
REMARK    7  A    between atoms: C_15  and  C_20
REMARK    8  A    between atoms: C_20  and  C_22
REMARK    9  A    between atoms: C_20  and  C_23
REMARK   10  A    between atoms: C_24  and  C_25
REMARK   11  A    between atoms: C_26  and  C_27
REMARK   12  A    between atoms: C_34  and  C_37
REMARK                            x       y       z     vdW  Elec       q    Type
REMARK                         _______ _______ _______ _____ _____    ______ ____
ROOT
ATOM      9  C   UNL     1      -4.717 -11.293  17.197  0.00  0.00    -0.027 C 
ATOM     10  C   UNL     1      -5.690 -10.507  16.255  0.00  0.00    +0.028 C 
ATOM     11  C   UNL     1      -7.158 -10.540  16.813  0.00  0.00    +0.012 C 
ATOM     12  C   UNL     1      -5.528 -10.958  14.774  0.00  0.00    +0.122 C 
ATOM     13  C   UNL     1      -3.267 -11.146  16.680  0.00  0.00    +0.007 C 
ATOM     14  C   UNL     1      -4.779 -10.675  18.613  0.00  0.00    +0.009 C 
ATOM     15  C   UNL     1      -4.058 -10.906  14.295  0.00  0.00    +0.029 C 
ATOM     16  C   UNL     1      -7.194  -9.985  18.266  0.00  0.00    +0.076 C 
ATOM     17  C   UNL     1      -3.097 -11.623  15.243  0.00  0.00    +0.007 C 
ATOM     18  C   UNL     1      -6.183 -10.655  19.196  0.00  0.00    +0.023 C 
ATOM     19  C   UNL     1      -5.065 -12.801  17.283  0.00  0.00    +0.011 C 
ATOM     21  C   UNL     1      -8.163  -9.761  15.950  0.00  0.00    +0.010 C 
ENDROOT
BRANCH  16   5
ATOM      3  O   UNL     1      -8.401 -12.385  19.279  0.00  0.00    -0.270 OA
ATOM      5  N   UNL     1      -8.511 -10.109  18.854  0.00  0.00    -0.308 N 
ATOM     24  C   UNL     1      -9.005 -11.316  19.315  0.00  0.00    +0.244 C 
ATOM     38  H   UNL     1      -9.110  -9.291  18.810  0.00  0.00    +0.149 HD
BRANCH  24  25
ATOM     25  C   UNL     1     -10.385 -11.281  19.867  0.00  0.00    +0.037 A 
ATOM     28  C   UNL     1     -10.970 -12.447  20.358  0.00  0.00    +0.014 A 
ATOM     29  C   UNL     1     -11.094 -10.080  19.893  0.00  0.00    +0.014 A 
ATOM     30  C   UNL     1     -12.264 -12.414  20.877  0.00  0.00    +0.019 A 
ATOM     31  C   UNL     1     -12.388 -10.046  20.412  0.00  0.00    +0.019 A 
ATOM     34  C   UNL     1     -12.973 -11.213  20.904  0.00  0.00    +0.052 A 
BRANCH  34  37
ATOM      8  N   UNL     1     -15.377 -11.151  21.865  0.00  0.00    -0.191 NA
ATOM     37  C   UNL     1     -14.300 -11.179  21.435  0.00  0.00    +0.099 C 
ENDBRANCH  34  37
ENDBRANCH  24  25
ENDBRANCH  16   5
BRANCH  12   1
ATOM      1  O   UNL     1      -6.265 -10.078  13.925  0.00  0.00    -0.391 OA
ATOM     39  H   UNL     1      -5.997 -10.249  13.006  0.00  0.00    +0.210 HD
ENDBRANCH  12   1
BRANCH  15  20
ATOM     20  C   UNL     1      -3.902 -11.477  12.880  0.00  0.00    +0.077 C 
ATOM     22  C   UNL     1      -2.843 -12.575  12.870  0.00  0.00    +0.017 C 
BRANCH  20  23
ATOM      2  O   UNL     1      -2.392 -10.034  11.653  0.00  0.00    -0.276 OA
ATOM      6  N   UNL     1      -4.675  -9.764  11.350  0.00  0.00    -0.314 N 
ATOM     23  C   UNL     1      -3.551 -10.358  11.904  0.00  0.00    +0.216 C 
ATOM     40  H   UNL     1      -5.598 -10.083  11.629  0.00  0.00    +0.149 HD
BRANCH   6  26
ATOM     26  C   UNL     1      -4.597  -8.680  10.398  0.00  0.00    +0.119 C 
BRANCH  26  27
ATOM     27  C   UNL     1      -4.567  -9.203   8.969  0.00  0.00    +0.103 C 
BRANCH  27   7
ATOM      4  O   UNL     1      -8.732  -9.389   8.483  0.00  0.00    -0.377 OA
ATOM      7  N   UNL     1      -5.899  -9.129   8.373  0.00  0.00    -0.297 NA
ATOM     32  C   UNL     1      -6.550 -10.447   8.384  0.00  0.00    +0.112 C 
ATOM     33  C   UNL     1      -6.734  -8.149   9.081  0.00  0.00    +0.112 C 
ATOM     35  C   UNL     1      -7.942 -10.342   7.769  0.00  0.00    +0.175 C 
ATOM     36  C   UNL     1      -8.122  -8.098   8.449  0.00  0.00    +0.175 C 
ENDBRANCH  27   7
ENDBRANCH  26  27
ENDBRANCH   6  26
ENDBRANCH  20  23
ENDBRANCH  15  20
TORSDOF 9
ENDMDL
MODEL 8
REMARK VINA RESULT:      -6.6      2.166      2.882
REMARK  Name = 45784399
REMARK  12 active torsions:
REMARK  status: ('A' for Active; 'I' for Inactive)
REMARK    1  A    between atoms: O_1  and  C_12
REMARK    2  A    between atoms: N_5  and  C_16
REMARK    3  A    between atoms: N_6  and  C_26
REMARK    4  A    between atoms: N_7  and  C_27
REMARK    5  A    between atoms: C_9  and  C_19
REMARK    6  A    between atoms: C_11  and  C_21
REMARK    7  A    between atoms: C_15  and  C_20
REMARK    8  A    between atoms: C_20  and  C_22
REMARK    9  A    between atoms: C_20  and  C_23
REMARK   10  A    between atoms: C_24  and  C_25
REMARK   11  A    between atoms: C_26  and  C_27
REMARK   12  A    between atoms: C_34  and  C_37
REMARK                            x       y       z     vdW  Elec       q    Type
REMARK                         _______ _______ _______ _____ _____    ______ ____
ROOT
ATOM      9  C   UNL     1      16.721   6.941  20.122  0.00  0.00    -0.027 C 
ATOM     10  C   UNL     1      17.842   7.767  20.839  0.00  0.00    +0.028 C 
ATOM     11  C   UNL     1      18.889   6.815  21.521  0.00  0.00    +0.012 C 
ATOM     12  C   UNL     1      17.231   8.861  21.763  0.00  0.00    +0.122 C 
ATOM     13  C   UNL     1      15.774   7.903  19.368  0.00  0.00    +0.007 C 
ATOM     14  C   UNL     1      17.375   6.008  19.076  0.00  0.00    +0.009 C 
ATOM     15  C   UNL     1      16.205   9.755  21.027  0.00  0.00    +0.029 C 
ATOM     16  C   UNL     1      19.484   5.832  20.474  0.00  0.00    +0.076 C 
ATOM     17  C   UNL     1      15.143   8.951  20.277  0.00  0.00    +0.007 C 
ATOM     18  C   UNL     1      18.420   5.079  19.675  0.00  0.00    +0.023 C 
ATOM     19  C   UNL     1      15.885   6.091  21.112  0.00  0.00    +0.011 C 
ATOM     21  C   UNL     1      20.035   7.563  22.221  0.00  0.00    +0.010 C 
ENDROOT
BRANCH  16   5
ATOM      3  O   UNL     1      22.321   5.611  20.089  0.00  0.00    -0.270 OA
ATOM      5  N   UNL     1      20.367   4.864  21.089  0.00  0.00    -0.308 N 
ATOM     24  C   UNL     1      21.727   4.839  20.839  0.00  0.00    +0.244 C 
ATOM     38  H   UNL     1      19.929   4.123  21.629  0.00  0.00    +0.149 HD
BRANCH  24  25
ATOM     25  C   UNL     1      22.492   3.766  21.528  0.00  0.00    +0.037 A 
ATOM     28  C   UNL     1      23.322   2.920  20.794  0.00  0.00    +0.014 A 
ATOM     29  C   UNL     1      22.379   3.608  22.909  0.00  0.00    +0.014 A 
ATOM     30  C   UNL     1      24.041   1.914  21.441  0.00  0.00    +0.019 A 
ATOM     31  C   UNL     1      23.097   2.603  23.557  0.00  0.00    +0.019 A 
ATOM     34  C   UNL     1      23.928   1.756  22.822  0.00  0.00    +0.052 A 
BRANCH  34  37
ATOM      8  N   UNL     1      25.259  -0.111  24.025  0.00  0.00    -0.191 NA
ATOM     37  C   UNL     1      24.663   0.726  23.486  0.00  0.00    +0.099 C 
ENDBRANCH  34  37
ENDBRANCH  24  25
ENDBRANCH  16   5
BRANCH  12   1
ATOM      1  O   UNL     1      18.269   9.726  22.226  0.00  0.00    -0.391 OA
ATOM     39  H   UNL     1      18.164  10.587  21.786  0.00  0.00    +0.210 HD
ENDBRANCH  12   1
BRANCH  15  20
ATOM     20  C   UNL     1      15.521  10.738  21.984  0.00  0.00    +0.077 C 
ATOM     22  C   UNL     1      14.295  10.088  22.619  0.00  0.00    +0.017 C 
BRANCH  20  23
ATOM      2  O   UNL     1      14.761  13.032  21.811  0.00  0.00    -0.276 OA
ATOM      6  N   UNL     1      15.291  11.889  19.863  0.00  0.00    -0.314 N 
ATOM     23  C   UNL     1      15.147  12.016  21.237  0.00  0.00    +0.216 C 
ATOM     40  H   UNL     1      15.598  11.004  19.472  0.00  0.00    +0.149 HD
BRANCH   6  26
ATOM     26  C   UNL     1      14.996  12.965  18.945  0.00  0.00    +0.119 C 
BRANCH  26  27
ATOM     27  C   UNL     1      13.920  12.558  17.949  0.00  0.00    +0.103 C 
BRANCH  27   7
ATOM      4  O   UNL     1      13.975   9.374  15.214  0.00  0.00    -0.377 OA
ATOM      7  N   UNL     1      14.312  11.336  17.249  0.00  0.00    -0.297 NA
ATOM     32  C   UNL     1      13.244  10.328  17.323  0.00  0.00    +0.112 C 
ATOM     33  C   UNL     1      14.639  11.620  15.846  0.00  0.00    +0.112 C 
ATOM     35  C   UNL     1      13.671   9.067  16.576  0.00  0.00    +0.175 C 
ATOM     36  C   UNL     1      15.033  10.329  15.133  0.00  0.00    +0.175 C 
ENDBRANCH  27   7
ENDBRANCH  26  27
ENDBRANCH   6  26
ENDBRANCH  20  23
ENDBRANCH  15  20
TORSDOF 9
ENDMDL
MODEL 9
REMARK VINA RESULT:      -6.5     28.138     32.211
REMARK  Name = 45784399
REMARK  12 active torsions:
REMARK  status: ('A' for Active; 'I' for Inactive)
REMARK    1  A    between atoms: O_1  and  C_12
REMARK    2  A    between atoms: N_5  and  C_16
REMARK    3  A    between atoms: N_6  and  C_26
REMARK    4  A    between atoms: N_7  and  C_27
REMARK    5  A    between atoms: C_9  and  C_19
REMARK    6  A    between atoms: C_11  and  C_21
REMARK    7  A    between atoms: C_15  and  C_20
REMARK    8  A    between atoms: C_20  and  C_22
REMARK    9  A    between atoms: C_20  and  C_23
REMARK   10  A    between atoms: C_24  and  C_25
REMARK   11  A    between atoms: C_26  and  C_27
REMARK   12  A    between atoms: C_34  and  C_37
REMARK                            x       y       z     vdW  Elec       q    Type
REMARK                         _______ _______ _______ _____ _____    ______ ____
ROOT
ATOM      9  C   UNL     1      -3.572 -11.344  11.291  0.00  0.00    -0.027 C 
ATOM     10  C   UNL     1      -5.009 -10.972  11.788  0.00  0.00    +0.028 C 
ATOM     11  C   UNL     1      -5.775 -10.128  10.707  0.00  0.00    +0.012 C 
ATOM     12  C   UNL     1      -4.968 -10.350  13.214  0.00  0.00    +0.122 C 
ATOM     13  C   UNL     1      -2.890 -12.267  12.328  0.00  0.00    +0.007 C 
ATOM     14  C   UNL     1      -3.687 -12.130   9.964  0.00  0.00    +0.009 C 
ATOM     15  C   UNL     1      -4.194 -11.230  14.224  0.00  0.00    +0.029 C 
ATOM     16  C   UNL     1      -5.818 -10.898   9.356  0.00  0.00    +0.076 C 
ATOM     17  C   UNL     1      -2.812 -11.645  13.716  0.00  0.00    +0.007 C 
ATOM     18  C   UNL     1      -4.445 -11.373   8.884  0.00  0.00    +0.023 C 
ATOM     19  C   UNL     1      -2.679 -10.097  11.069  0.00  0.00    +0.011 C 
ATOM     21  C   UNL     1      -7.207  -9.751  11.120  0.00  0.00    +0.010 C 
ENDROOT
BRANCH  16   5
ATOM      3  O   UNL     1      -7.616 -11.820   7.316  0.00  0.00    -0.270 OA
ATOM      5  N   UNL     1      -6.415 -10.101   8.305  0.00  0.00    -0.308 N 
ATOM     24  C   UNL     1      -7.274 -10.641   7.364  0.00  0.00    +0.244 C 
ATOM     38  H   UNL     1      -6.087  -9.145   8.213  0.00  0.00    +0.149 HD
BRANCH  24  25
ATOM     25  C   UNL     1      -7.781  -9.697   6.334  0.00  0.00    +0.037 A 
ATOM     28  C   UNL     1      -7.198  -9.666   5.068  0.00  0.00    +0.014 A 
ATOM     29  C   UNL     1      -8.840  -8.841   6.635  0.00  0.00    +0.014 A 
ATOM     30  C   UNL     1      -7.675  -8.781   4.101  0.00  0.00    +0.019 A 
ATOM     31  C   UNL     1      -9.318  -7.956   5.669  0.00  0.00    +0.019 A 
ATOM     34  C   UNL     1      -8.735  -7.926   4.402  0.00  0.00    +0.052 A 
BRANCH  34  37
ATOM      8  N   UNL     1      -9.620  -6.282   2.608  0.00  0.00    -0.191 NA
ATOM     37  C   UNL     1      -9.223  -7.018   3.412  0.00  0.00    +0.099 C 
ENDBRANCH  34  37
ENDBRANCH  24  25
ENDBRANCH  16   5
BRANCH  12   1
ATOM      1  O   UNL     1      -6.298 -10.225  13.719  0.00  0.00    -0.391 OA
ATOM     39  H   UNL     1      -6.863 -10.858  13.242  0.00  0.00    +0.210 HD
ENDBRANCH  12   1
BRANCH  15  20
ATOM     20  C   UNL     1      -4.052 -10.540  15.586  0.00  0.00    +0.077 C 
ATOM     22  C   UNL     1      -2.603 -10.603  16.060  0.00  0.00    +0.017 C 
BRANCH  20  23
ATOM      2  O   UNL     1      -5.908 -11.940  16.267  0.00  0.00    -0.276 OA
ATOM      6  N   UNL     1      -4.702 -10.826  17.904  0.00  0.00    -0.314 N 
ATOM     23  C   UNL     1      -4.995 -11.187  16.597  0.00  0.00    +0.216 C 
ATOM     40  H   UNL     1      -3.938 -10.181  18.085  0.00  0.00    +0.149 HD
BRANCH   6  26
ATOM     26  C   UNL     1      -5.457 -11.310  19.036  0.00  0.00    +0.119 C 
BRANCH  26  27
ATOM     27  C   UNL     1      -6.662 -10.422  19.313  0.00  0.00    +0.103 C 
BRANCH  27   7
ATOM      4  O   UNL     1      -9.970 -12.981  19.672  0.00  0.00    -0.377 OA
ATOM      7  N   UNL     1      -7.751 -11.210  19.887  0.00  0.00    -0.297 NA
ATOM     32  C   UNL     1      -9.051 -10.755  19.372  0.00  0.00    +0.112 C 
ATOM     33  C   UNL     1      -7.569 -12.639  19.599  0.00  0.00    +0.112 C 
ATOM     35  C   UNL     1     -10.170 -11.599  19.975  0.00  0.00    +0.175 C 
ATOM     36  C   UNL     1      -8.724 -13.440  20.196  0.00  0.00    +0.175 C 
ENDBRANCH  27   7
ENDBRANCH  26  27
ENDBRANCH   6  26
ENDBRANCH  20  23
ENDBRANCH  15  20
TORSDOF 9
ENDMDL
MODEL 10
REMARK VINA RESULT:      -6.5     32.682     36.251
REMARK  Name = 45784399
REMARK  12 active torsions:
REMARK  status: ('A' for Active; 'I' for Inactive)
REMARK    1  A    between atoms: O_1  and  C_12
REMARK    2  A    between atoms: N_5  and  C_16
REMARK    3  A    between atoms: N_6  and  C_26
REMARK    4  A    between atoms: N_7  and  C_27
REMARK    5  A    between atoms: C_9  and  C_19
REMARK    6  A    between atoms: C_11  and  C_21
REMARK    7  A    between atoms: C_15  and  C_20
REMARK    8  A    between atoms: C_20  and  C_22
REMARK    9  A    between atoms: C_20  and  C_23
REMARK   10  A    between atoms: C_24  and  C_25
REMARK   11  A    between atoms: C_26  and  C_27
REMARK   12  A    between atoms: C_34  and  C_37
REMARK                            x       y       z     vdW  Elec       q    Type
REMARK                         _______ _______ _______ _____ _____    ______ ____
ROOT
ATOM      9  C   UNL     1      -6.802 -11.401  38.690  0.00  0.00    -0.027 C 
ATOM     10  C   UNL     1      -7.892 -10.277  38.663  0.00  0.00    +0.028 C 
ATOM     11  C   UNL     1      -8.883 -10.486  37.462  0.00  0.00    +0.012 C 
ATOM     12  C   UNL     1      -7.246  -8.864  38.758  0.00  0.00    +0.122 C 
ATOM     13  C   UNL     1      -5.915 -11.230  39.945  0.00  0.00    +0.007 C 
ATOM     14  C   UNL     1      -7.501 -12.776  38.790  0.00  0.00    +0.009 C 
ATOM     15  C   UNL     1      -6.278  -8.732  39.958  0.00  0.00    +0.029 C 
ATOM     16  C   UNL     1      -9.522 -11.902  37.533  0.00  0.00    +0.076 C 
ATOM     17  C   UNL     1      -5.249  -9.861  40.020  0.00  0.00    +0.007 C 
ATOM     18  C   UNL     1      -8.495 -13.026  37.666  0.00  0.00    +0.023 C 
ATOM     19  C   UNL     1      -5.897 -11.379  37.432  0.00  0.00    +0.011 C 
ATOM     21  C   UNL     1      -9.998  -9.430  37.394  0.00  0.00    +0.010 C 
ENDROOT
BRANCH  16   5
ATOM      3  O   UNL     1     -12.363 -12.318  37.525  0.00  0.00    -0.270 OA
ATOM      5  N   UNL     1     -10.352 -12.173  36.379  0.00  0.00    -0.308 N 
ATOM     24  C   UNL     1     -11.720 -12.360  36.479  0.00  0.00    +0.244 C 
ATOM     38  H   UNL     1      -9.874 -12.336  35.499  0.00  0.00    +0.149 HD
BRANCH  24  25
ATOM     25  C   UNL     1     -12.426 -12.656  35.205  0.00  0.00    +0.037 A 
ATOM     28  C   UNL     1     -12.013 -13.724  34.410  0.00  0.00    +0.014 A 
ATOM     29  C   UNL     1     -13.504 -11.865  34.806  0.00  0.00    +0.014 A 
ATOM     30  C   UNL     1     -12.677 -14.003  33.215  0.00  0.00    +0.019 A 
ATOM     31  C   UNL     1     -14.168 -12.142  33.611  0.00  0.00    +0.019 A 
ATOM     34  C   UNL     1     -13.754 -13.212  32.816  0.00  0.00    +0.052 A 
BRANCH  34  37
ATOM      8  N   UNL     1     -14.987 -13.728  30.598  0.00  0.00    -0.191 NA
ATOM     37  C   UNL     1     -14.435 -13.496  31.592  0.00  0.00    +0.099 C 
ENDBRANCH  34  37
ENDBRANCH  24  25
ENDBRANCH  16   5
BRANCH  12   1
ATOM      1  O   UNL     1      -8.268  -7.885  38.949  0.00  0.00    -0.391 OA
ATOM     39  H   UNL     1      -7.886  -7.141  39.446  0.00  0.00    +0.210 HD
ENDBRANCH  12   1
BRANCH  15  20
ATOM     20  C   UNL     1      -5.555  -7.380  39.958  0.00  0.00    +0.077 C 
ATOM     22  C   UNL     1      -4.046  -7.591  40.018  0.00  0.00    +0.017 C 
BRANCH  20  23
ATOM      2  O   UNL     1      -5.485  -6.520  42.222  0.00  0.00    -0.276 OA
ATOM      6  N   UNL     1      -7.171  -5.786  40.808  0.00  0.00    -0.314 N 
ATOM     23  C   UNL     1      -6.043  -6.529  41.127  0.00  0.00    +0.216 C 
ATOM     40  H   UNL     1      -7.579  -5.869  39.882  0.00  0.00    +0.149 HD
BRANCH   6  26
ATOM     26  C   UNL     1      -7.818  -4.905  41.753  0.00  0.00    +0.119 C 
BRANCH  26  27
ATOM     27  C   UNL     1      -9.333  -5.044  41.686  0.00  0.00    +0.103 C 
BRANCH  27   7
ATOM      4  O   UNL     1      -9.861  -1.943  38.908  0.00  0.00    -0.377 OA
ATOM      7  N   UNL     1      -9.913  -3.919  40.955  0.00  0.00    -0.297 NA
ATOM     32  C   UNL     1      -9.053  -2.732  41.055  0.00  0.00    +0.112 C 
ATOM     33  C   UNL     1     -10.128  -4.269  39.544  0.00  0.00    +0.112 C 
ATOM     35  C   UNL     1      -9.673  -1.577  40.276  0.00  0.00    +0.175 C 
ATOM     36  C   UNL     1     -10.723  -3.076  38.800  0.00  0.00    +0.175 C 
ENDBRANCH  27   7
ENDBRANCH  26  27
ENDBRANCH   6  26
ENDBRANCH  20  23
ENDBRANCH  15  20
TORSDOF 9
ENDMDL
