MODEL 1
REMARK VINA RESULT:      -6.1      0.000      0.000
REMARK  Name = 75367708
REMARK  2 active torsions:
REMARK  status: ('A' for Active; 'I' for Inactive)
REMARK    1  A    between atoms: O_3  and  C_10
REMARK    2  A    between atoms: O_3  and  C_19
REMARK                            x       y       z     vdW  Elec       q    Type
REMARK                         _______ _______ _______ _____ _____    ______ ____
ROOT
ATOM      1  O   UNL     1      11.086   7.153  20.652  0.00  0.00    -0.375 OA
ATOM      2  O   UNL     1      12.601  12.983  24.817  0.00  0.00    -0.377 OA
ATOM      4  O   UNL     1      15.015  10.121  21.543  0.00  0.00    -0.252 OA
ATOM      5  N   UNL     1      12.803   9.593  21.121  0.00  0.00    -0.280 N 
ATOM      6  N   UNL     1      13.409  11.223  22.768  0.00  0.00    -0.281 N 
ATOM      9  C   UNL     1      13.111   8.985  19.819  0.00  0.00    +0.156 C 
ATOM     10  C   UNL     1      13.442   7.491  19.885  0.00  0.00    +0.218 C 
ATOM     11  C   UNL     1      11.507   9.259  21.728  0.00  0.00    +0.137 C 
ATOM     12  C   UNL     1      13.817  10.301  21.794  0.00  0.00    +0.305 C 
ATOM     13  C   UNL     1      12.240   6.558  20.068  0.00  0.00    +0.206 C 
ATOM     14  C   UNL     1      14.283  11.488  23.909  0.00  0.00    +0.137 C 
ATOM     15  C   UNL     1      12.448  12.301  22.501  0.00  0.00    +0.137 C 
ATOM     16  C   UNL     1      11.314   7.759  21.916  0.00  0.00    +0.179 C 
ATOM     17  C   UNL     1      13.455  11.877  25.126  0.00  0.00    +0.179 C 
ATOM     18  C   UNL     1      11.684  12.653  23.768  0.00  0.00    +0.179 C 
ENDROOT
BRANCH  10   3
ATOM      3  O   UNL     1      14.402   7.261  20.916  0.00  0.00    -0.468 OA
BRANCH   3  19
ATOM      7  N   UNL     1      15.739   6.261  19.300  0.00  0.00    -0.219 NA
ATOM      8  N   UNL     1      17.961   6.587  20.981  0.00  0.00    -0.256 NA
ATOM     19  C   UNL     1      15.637   6.834  20.516  0.00  0.00    +0.234 A 
ATOM     20  C   UNL     1      16.728   6.994  21.341  0.00  0.00    +0.177 A 
ATOM     21  C   UNL     1      16.973   5.854  18.940  0.00  0.00    +0.134 A 
ATOM     22  C   UNL     1      18.064   6.014  19.766  0.00  0.00    +0.130 A 
ENDBRANCH   3  19
ENDBRANCH  10   3
TORSDOF 2
ENDMDL
MODEL 2
REMARK VINA RESULT:      -5.8     26.286     28.705
REMARK  Name = 75367708
REMARK  2 active torsions:
REMARK  status: ('A' for Active; 'I' for Inactive)
REMARK    1  A    between atoms: O_3  and  C_10
REMARK    2  A    between atoms: O_3  and  C_19
REMARK                            x       y       z     vdW  Elec       q    Type
REMARK                         _______ _______ _______ _____ _____    ______ ____
ROOT
ATOM      1  O   UNL     1      -5.396 -11.695  19.955  0.00  0.00    -0.375 OA
ATOM      2  O   UNL     1     -11.447  -8.355  17.532  0.00  0.00    -0.377 OA
ATOM      4  O   UNL     1      -7.374 -10.405  15.543  0.00  0.00    -0.252 OA
ATOM      5  N   UNL     1      -7.351 -11.252  17.696  0.00  0.00    -0.280 N 
ATOM      6  N   UNL     1      -9.108  -9.813  16.935  0.00  0.00    -0.281 N 
ATOM      9  C   UNL     1      -6.396 -12.316  17.355  0.00  0.00    +0.156 C 
ATOM     10  C   UNL     1      -4.926 -11.916  17.510  0.00  0.00    +0.218 C 
ATOM     11  C   UNL     1      -7.514 -10.928  19.120  0.00  0.00    +0.137 C 
ATOM     12  C   UNL     1      -7.910 -10.486  16.655  0.00  0.00    +0.305 C 
ATOM     13  C   UNL     1      -4.404 -11.871  18.950  0.00  0.00    +0.206 C 
ATOM     14  C   UNL     1      -9.398  -8.558  16.245  0.00  0.00    +0.137 C 
ATOM     15  C   UNL     1     -10.303 -10.486  17.459  0.00  0.00    +0.137 C 
ATOM     16  C   UNL     1      -6.202 -10.537  19.789  0.00  0.00    +0.179 C 
ATOM     17  C   UNL     1     -10.262  -7.663  17.124  0.00  0.00    +0.179 C 
ATOM     18  C   UNL     1     -11.128  -9.521  18.298  0.00  0.00    +0.179 C 
ENDROOT
BRANCH  10   3
ATOM      3  O   UNL     1      -4.704 -10.660  16.870  0.00  0.00    -0.468 OA
BRANCH   3  19
ATOM      7  N   UNL     1      -2.458 -10.590  16.278  0.00  0.00    -0.219 NA
ATOM      8  N   UNL     1      -3.201 -10.625  13.573  0.00  0.00    -0.256 NA
ATOM     19  C   UNL     1      -3.749 -10.633  15.893  0.00  0.00    +0.234 A 
ATOM     20  C   UNL     1      -4.114 -10.650  14.565  0.00  0.00    +0.177 A 
ATOM     21  C   UNL     1      -1.545 -10.565  15.287  0.00  0.00    +0.134 A 
ATOM     22  C   UNL     1      -1.910 -10.582  13.958  0.00  0.00    +0.130 A 
ENDBRANCH   3  19
ENDBRANCH  10   3
TORSDOF 2
ENDMDL
MODEL 3
REMARK VINA RESULT:      -5.8      2.242      6.066
REMARK  Name = 75367708
REMARK  2 active torsions:
REMARK  status: ('A' for Active; 'I' for Inactive)
REMARK    1  A    between atoms: O_3  and  C_10
REMARK    2  A    between atoms: O_3  and  C_19
REMARK                            x       y       z     vdW  Elec       q    Type
REMARK                         _______ _______ _______ _____ _____    ______ ____
ROOT
ATOM      1  O   UNL     1      12.651   7.512  17.644  0.00  0.00    -0.375 OA
ATOM      2  O   UNL     1      19.154   7.210  21.000  0.00  0.00    -0.377 OA
ATOM      4  O   UNL     1      14.544   8.708  22.119  0.00  0.00    -0.252 OA
ATOM      5  N   UNL     1      14.197   7.409  20.237  0.00  0.00    -0.280 N 
ATOM      6  N   UNL     1      16.381   7.688  21.180  0.00  0.00    -0.281 N 
ATOM      9  C   UNL     1      12.754   7.287  20.488  0.00  0.00    +0.156 C 
ATOM     10  C   UNL     1      11.910   8.399  19.860  0.00  0.00    +0.218 C 
ATOM     11  C   UNL     1      14.670   7.103  18.879  0.00  0.00    +0.137 C 
ATOM     12  C   UNL     1      15.010   7.980  21.234  0.00  0.00    +0.305 C 
ATOM     13  C   UNL     1      11.684   8.282  18.348  0.00  0.00    +0.206 C 
ATOM     14  C   UNL     1      17.340   8.671  21.682  0.00  0.00    +0.137 C 
ATOM     15  C   UNL     1      16.908   6.318  21.140  0.00  0.00    +0.137 C 
ATOM     16  C   UNL     1      13.991   7.952  17.813  0.00  0.00    +0.179 C 
ATOM     17  C   UNL     1      18.657   8.550  20.930  0.00  0.00    +0.179 C 
ATOM     18  C   UNL     1      18.238   6.286  20.402  0.00  0.00    +0.179 C 
ENDROOT
BRANCH  10   3
ATOM      3  O   UNL     1      12.484   9.668  20.173  0.00  0.00    -0.468 OA
BRANCH   3  19
ATOM      7  N   UNL     1      11.338   9.659  22.194  0.00  0.00    -0.219 NA
ATOM      8  N   UNL     1      11.353  12.464  22.181  0.00  0.00    -0.256 NA
ATOM     19  C   UNL     1      11.906  10.365  21.195  0.00  0.00    +0.234 A 
ATOM     20  C   UNL     1      11.912  11.742  21.189  0.00  0.00    +0.177 A 
ATOM     21  C   UNL     1      10.778  10.380  23.185  0.00  0.00    +0.134 A 
ATOM     22  C   UNL     1      10.785  11.758  23.178  0.00  0.00    +0.130 A 
ENDBRANCH   3  19
ENDBRANCH  10   3
TORSDOF 2
ENDMDL
MODEL 4
REMARK VINA RESULT:      -5.4      1.994      6.642
REMARK  Name = 75367708
REMARK  2 active torsions:
REMARK  status: ('A' for Active; 'I' for Inactive)
REMARK    1  A    between atoms: O_3  and  C_10
REMARK    2  A    between atoms: O_3  and  C_19
REMARK                            x       y       z     vdW  Elec       q    Type
REMARK                         _______ _______ _______ _____ _____    ______ ____
ROOT
ATOM      1  O   UNL     1      13.697  11.457  18.821  0.00  0.00    -0.375 OA
ATOM      2  O   UNL     1      18.066   5.697  19.997  0.00  0.00    -0.377 OA
ATOM      4  O   UNL     1      14.025   7.693  22.102  0.00  0.00    -0.252 OA
ATOM      5  N   UNL     1      14.050   8.709  20.024  0.00  0.00    -0.280 N 
ATOM      6  N   UNL     1      15.698   7.084  20.644  0.00  0.00    -0.281 N 
ATOM      9  C   UNL     1      12.651   9.146  20.130  0.00  0.00    +0.156 C 
ATOM     10  C   UNL     1      12.468  10.517  20.784  0.00  0.00    +0.218 C 
ATOM     11  C   UNL     1      14.890   9.381  19.021  0.00  0.00    +0.137 C 
ATOM     12  C   UNL     1      14.557   7.821  20.992  0.00  0.00    +0.305 C 
ATOM     13  C   UNL     1      12.805  11.721  19.897  0.00  0.00    +0.206 C 
ATOM     14  C   UNL     1      16.637   6.687  21.691  0.00  0.00    +0.137 C 
ATOM     15  C   UNL     1      15.779   6.255  19.435  0.00  0.00    +0.137 C 
ATOM     16  C   UNL     1      14.940  10.891  19.212  0.00  0.00    +0.179 C 
ATOM     17  C   UNL     1      18.045   6.583  21.121  0.00  0.00    +0.179 C 
ATOM     18  C   UNL     1      17.218   6.173  18.947  0.00  0.00    +0.179 C 
ENDROOT
BRANCH  10   3
ATOM      3  O   UNL     1      13.224  10.573  21.994  0.00  0.00    -0.468 OA
BRANCH   3  19
ATOM      7  N   UNL     1      13.328  11.693  24.027  0.00  0.00    -0.219 NA
ATOM      8  N   UNL     1      10.550  11.408  24.292  0.00  0.00    -0.256 NA
ATOM     19  C   UNL     1      12.582  11.070  23.093  0.00  0.00    +0.234 A 
ATOM     20  C   UNL     1      11.218  10.930  23.223  0.00  0.00    +0.177 A 
ATOM     21  C   UNL     1      12.660  12.170  25.096  0.00  0.00    +0.134 A 
ATOM     22  C   UNL     1      11.296  12.030  25.227  0.00  0.00    +0.130 A 
ENDBRANCH   3  19
ENDBRANCH  10   3
TORSDOF 2
ENDMDL
MODEL 5
REMARK VINA RESULT:      -5.4      2.912      7.207
REMARK  Name = 75367708
REMARK  2 active torsions:
REMARK  status: ('A' for Active; 'I' for Inactive)
REMARK    1  A    between atoms: O_3  and  C_10
REMARK    2  A    between atoms: O_3  and  C_19
REMARK                            x       y       z     vdW  Elec       q    Type
REMARK                         _______ _______ _______ _____ _____    ______ ____
ROOT
ATOM      1  O   UNL     1      15.721  11.946  21.574  0.00  0.00    -0.375 OA
ATOM      2  O   UNL     1      11.698   6.045  19.952  0.00  0.00    -0.377 OA
ATOM      4  O   UNL     1      10.953  10.500  22.035  0.00  0.00    -0.252 OA
ATOM      5  N   UNL     1      12.996  10.782  20.989  0.00  0.00    -0.280 N 
ATOM      6  N   UNL     1      11.784   8.721  20.836  0.00  0.00    -0.281 N 
ATOM      9  C   UNL     1      12.928  12.247  21.069  0.00  0.00    +0.156 C 
ATOM     10  C   UNL     1      13.519  12.835  22.353  0.00  0.00    +0.218 C 
ATOM     11  C   UNL     1      14.317  10.184  20.742  0.00  0.00    +0.137 C 
ATOM     12  C   UNL     1      11.855  10.031  21.330  0.00  0.00    +0.305 C 
ATOM     13  C   UNL     1      15.050  12.877  22.415  0.00  0.00    +0.206 C 
ATOM     14  C   UNL     1      11.068   7.706  21.606  0.00  0.00    +0.137 C 
ATOM     15  C   UNL     1      11.917   8.393  19.411  0.00  0.00    +0.137 C 
ATOM     16  C   UNL     1      15.351  10.590  21.783  0.00  0.00    +0.179 C 
ATOM     17  C   UNL     1      11.673   6.332  21.353  0.00  0.00    +0.179 C 
ATOM     18  C   UNL     1      12.497   6.997  19.242  0.00  0.00    +0.179 C 
ENDROOT
BRANCH  10   3
ATOM      3  O   UNL     1      13.001  12.132  23.482  0.00  0.00    -0.468 OA
BRANCH   3  19
ATOM      7  N   UNL     1      12.518  14.144  24.537  0.00  0.00    -0.219 NA
ATOM      8  N   UNL     1      10.345  12.918  25.818  0.00  0.00    -0.256 NA
ATOM     19  C   UNL     1      12.213  12.847  24.338  0.00  0.00    +0.234 A 
ATOM     20  C   UNL     1      11.146  12.244  24.967  0.00  0.00    +0.177 A 
ATOM     21  C   UNL     1      11.719  14.817  25.388  0.00  0.00    +0.134 A 
ATOM     22  C   UNL     1      10.651  14.215  26.018  0.00  0.00    +0.130 A 
ENDBRANCH   3  19
ENDBRANCH  10   3
TORSDOF 2
ENDMDL
MODEL 6
REMARK VINA RESULT:      -5.1     26.770     29.362
REMARK  Name = 75367708
REMARK  2 active torsions:
REMARK  status: ('A' for Active; 'I' for Inactive)
REMARK    1  A    between atoms: O_3  and  C_10
REMARK    2  A    between atoms: O_3  and  C_19
REMARK                            x       y       z     vdW  Elec       q    Type
REMARK                         _______ _______ _______ _____ _____    ______ ____
ROOT
ATOM      1  O   UNL     1      -8.243 -10.417  14.267  0.00  0.00    -0.375 OA
ATOM      2  O   UNL     1     -10.278 -13.016  20.804  0.00  0.00    -0.377 OA
ATOM      4  O   UNL     1      -6.161 -11.109  18.764  0.00  0.00    -0.252 OA
ATOM      5  N   UNL     1      -7.796 -10.481  17.253  0.00  0.00    -0.280 N 
ATOM      6  N   UNL     1      -8.334 -11.696  19.246  0.00  0.00    -0.281 N 
ATOM      9  C   UNL     1      -6.939  -9.468  16.622  0.00  0.00    +0.156 C 
ATOM     10  C   UNL     1      -6.089  -9.996  15.463  0.00  0.00    +0.218 C 
ATOM     11  C   UNL     1      -8.975 -10.929  16.496  0.00  0.00    +0.137 C 
ATOM     12  C   UNL     1      -7.356 -11.095  18.441  0.00  0.00    +0.305 C 
ATOM     13  C   UNL     1      -6.839 -10.222  14.145  0.00  0.00    +0.206 C 
ATOM     14  C   UNL     1      -7.973 -12.851  20.065  0.00  0.00    +0.137 C 
ATOM     15  C   UNL     1      -9.526 -10.984  19.726  0.00  0.00    +0.137 C 
ATOM     16  C   UNL     1      -8.617 -11.485  15.124  0.00  0.00    +0.179 C 
ATOM     17  C   UNL     1      -9.181 -13.756  20.260  0.00  0.00    +0.179 C 
ATOM     18  C   UNL     1     -10.677 -11.959  19.926  0.00  0.00    +0.179 C 
ENDROOT
BRANCH  10   3
ATOM      3  O   UNL     1      -5.431 -11.197  15.864  0.00  0.00    -0.468 OA
BRANCH   3  19
ATOM      7  N   UNL     1      -3.671 -11.981  14.565  0.00  0.00    -0.219 NA
ATOM      8  N   UNL     1      -1.870 -10.658  16.261  0.00  0.00    -0.256 NA
ATOM     19  C   UNL     1      -4.087 -11.265  15.629  0.00  0.00    +0.234 A 
ATOM     20  C   UNL     1      -3.202 -10.616  16.462  0.00  0.00    +0.177 A 
ATOM     21  C   UNL     1      -2.338 -12.024  14.365  0.00  0.00    +0.134 A 
ATOM     22  C   UNL     1      -1.454 -11.375  15.199  0.00  0.00    +0.130 A 
ENDBRANCH   3  19
ENDBRANCH  10   3
TORSDOF 2
ENDMDL
MODEL 7
REMARK VINA RESULT:      -5.1     27.115     29.254
REMARK  Name = 75367708
REMARK  2 active torsions:
REMARK  status: ('A' for Active; 'I' for Inactive)
REMARK    1  A    between atoms: O_3  and  C_10
REMARK    2  A    between atoms: O_3  and  C_19
REMARK                            x       y       z     vdW  Elec       q    Type
REMARK                         _______ _______ _______ _____ _____    ______ ____
ROOT
ATOM      1  O   UNL     1      -6.043 -12.928  18.656  0.00  0.00    -0.375 OA
ATOM      2  O   UNL     1      -1.833 -11.929  12.747  0.00  0.00    -0.377 OA
ATOM      4  O   UNL     1      -5.576  -9.547  14.997  0.00  0.00    -0.252 OA
ATOM      5  N   UNL     1      -4.866 -11.011  16.641  0.00  0.00    -0.280 N 
ATOM      6  N   UNL     1      -3.779 -10.899  14.509  0.00  0.00    -0.281 N 
ATOM      9  C   UNL     1      -5.561 -10.279  17.708  0.00  0.00    +0.156 C 
ATOM     10  C   UNL     1      -7.003 -10.732  17.946  0.00  0.00    +0.218 C 
ATOM     11  C   UNL     1      -4.461 -12.395  16.929  0.00  0.00    +0.137 C 
ATOM     12  C   UNL     1      -4.790 -10.430  15.360  0.00  0.00    +0.305 C 
ATOM     13  C   UNL     1      -7.163 -12.051  18.710  0.00  0.00    +0.206 C 
ATOM     14  C   UNL     1      -4.000 -10.883  13.064  0.00  0.00    +0.137 C 
ATOM     15  C   UNL     1      -2.361 -10.928  14.886  0.00  0.00    +0.137 C 
ATOM     16  C   UNL     1      -5.632 -13.277  17.342  0.00  0.00    +0.179 C 
ATOM     17  C   UNL     1      -3.219 -12.009  12.401  0.00  0.00    +0.179 C 
ATOM     18  C   UNL     1      -1.644 -12.056  14.160  0.00  0.00    +0.179 C 
ENDROOT
BRANCH  10   3
ATOM      3  O   UNL     1      -7.692 -10.803  16.698  0.00  0.00    -0.468 OA
BRANCH   3  19
ATOM      7  N   UNL     1      -8.972  -9.020  17.461  0.00  0.00    -0.219 NA
ATOM      8  N   UNL     1      -9.916  -8.620  14.850  0.00  0.00    -0.256 NA
ATOM     19  C   UNL     1      -8.579  -9.798  16.432  0.00  0.00    +0.234 A 
ATOM     20  C   UNL     1      -9.043  -9.601  15.150  0.00  0.00    +0.177 A 
ATOM     21  C   UNL     1      -9.847  -8.039  17.160  0.00  0.00    +0.134 A 
ATOM     22  C   UNL     1     -10.311  -7.842  15.877  0.00  0.00    +0.130 A 
ENDBRANCH   3  19
ENDBRANCH  10   3
TORSDOF 2
ENDMDL
MODEL 8
REMARK VINA RESULT:      -5.1     18.043     20.713
REMARK  Name = 75367708
REMARK  2 active torsions:
REMARK  status: ('A' for Active; 'I' for Inactive)
REMARK    1  A    between atoms: O_3  and  C_10
REMARK    2  A    between atoms: O_3  and  C_19
REMARK                            x       y       z     vdW  Elec       q    Type
REMARK                         _______ _______ _______ _____ _____    ______ ____
ROOT
ATOM      1  O   UNL     1      10.109   7.512   1.096  0.00  0.00    -0.375 OA
ATOM      2  O   UNL     1      16.050   4.244  -1.672  0.00  0.00    -0.377 OA
ATOM      4  O   UNL     1      12.827   3.415   2.026  0.00  0.00    -0.252 OA
ATOM      5  N   UNL     1      11.707   4.975   0.736  0.00  0.00    -0.280 N 
ATOM      6  N   UNL     1      13.859   4.138   0.100  0.00  0.00    -0.281 N 
ATOM      9  C   UNL     1      10.412   4.687   1.368  0.00  0.00    +0.156 C 
ATOM     10  C   UNL     1      10.119   5.526   2.614  0.00  0.00    +0.218 C 
ATOM     11  C   UNL     1      11.829   6.242   0.001  0.00  0.00    +0.137 C 
ATOM     12  C   UNL     1      12.798   4.130   1.017  0.00  0.00    +0.305 C 
ATOM     13  C   UNL     1       9.698   6.976   2.349  0.00  0.00    +0.206 C 
ATOM     14  C   UNL     1      15.214   3.867   0.575  0.00  0.00    +0.137 C 
ATOM     15  C   UNL     1      13.680   3.892  -1.337  0.00  0.00    +0.137 C 
ATOM     16  C   UNL     1      11.509   7.456   0.863  0.00  0.00    +0.179 C 
ATOM     17  C   UNL     1      16.231   4.591  -0.296  0.00  0.00    +0.179 C 
ATOM     18  C   UNL     1      14.750   4.622  -2.135  0.00  0.00    +0.179 C 
ENDROOT
BRANCH  10   3
ATOM      3  O   UNL     1      11.249   5.496   3.485  0.00  0.00    -0.468 OA
BRANCH   3  19
ATOM      7  N   UNL     1      10.013   4.904   5.361  0.00  0.00    -0.219 NA
ATOM      8  N   UNL     1      11.514   6.718   6.886  0.00  0.00    -0.256 NA
ATOM     19  C   UNL     1      10.997   5.650   4.819  0.00  0.00    +0.234 A 
ATOM     20  C   UNL     1      11.733   6.541   5.568  0.00  0.00    +0.177 A 
ATOM     21  C   UNL     1       9.793   5.082   6.679  0.00  0.00    +0.134 A 
ATOM     22  C   UNL     1      10.530   5.974   7.428  0.00  0.00    +0.130 A 
ENDBRANCH   3  19
ENDBRANCH  10   3
TORSDOF 2
ENDMDL
MODEL 9
REMARK VINA RESULT:      -5.1     28.800     31.356
REMARK  Name = 75367708
REMARK  2 active torsions:
REMARK  status: ('A' for Active; 'I' for Inactive)
REMARK    1  A    between atoms: O_3  and  C_10
REMARK    2  A    between atoms: O_3  and  C_19
REMARK                            x       y       z     vdW  Elec       q    Type
REMARK                         _______ _______ _______ _____ _____    ______ ____
ROOT
ATOM      1  O   UNL     1     -17.088   5.046  34.123  0.00  0.00    -0.375 OA
ATOM      2  O   UNL     1     -14.841  -0.542  29.956  0.00  0.00    -0.377 OA
ATOM      4  O   UNL     1     -12.900   3.670  31.755  0.00  0.00    -0.252 OA
ATOM      5  N   UNL     1     -14.788   3.400  33.064  0.00  0.00    -0.280 N 
ATOM      6  N   UNL     1     -14.189   1.800  31.384  0.00  0.00    -0.281 N 
ATOM      9  C   UNL     1     -14.320   4.352  34.080  0.00  0.00    +0.156 C 
ATOM     10  C   UNL     1     -14.726   5.804  33.817  0.00  0.00    +0.218 C 
ATOM     11  C   UNL     1     -16.222   3.075  33.058  0.00  0.00    +0.137 C 
ATOM     12  C   UNL     1     -13.896   2.999  32.050  0.00  0.00    +0.305 C 
ATOM     13  C   UNL     1     -16.186   6.147  34.130  0.00  0.00    +0.206 C 
ATOM     14  C   UNL     1     -13.779   1.640  29.990  0.00  0.00    +0.137 C 
ATOM     15  C   UNL     1     -14.407   0.527  32.083  0.00  0.00    +0.137 C 
ATOM     16  C   UNL     1     -17.105   4.307  32.910  0.00  0.00    +0.179 C 
ATOM     17  C   UNL     1     -14.739   0.707  29.265  0.00  0.00    +0.179 C 
ATOM     18  C   UNL     1     -15.348  -0.360  31.282  0.00  0.00    +0.179 C 
ENDROOT
BRANCH  10   3
ATOM      3  O   UNL     1     -14.421   6.146  32.466  0.00  0.00    -0.468 OA
BRANCH   3  19
ATOM      7  N   UNL     1     -12.608   7.590  32.633  0.00  0.00    -0.219 NA
ATOM      8  N   UNL     1     -14.148   9.614  31.451  0.00  0.00    -0.256 NA
ATOM     19  C   UNL     1     -13.886   7.386  32.255  0.00  0.00    +0.234 A 
ATOM     20  C   UNL     1     -14.642   8.380  31.676  0.00  0.00    +0.177 A 
ATOM     21  C   UNL     1     -12.114   8.824  32.409  0.00  0.00    +0.134 A 
ATOM     22  C   UNL     1     -12.871   9.819  31.829  0.00  0.00    +0.130 A 
ENDBRANCH   3  19
ENDBRANCH  10   3
TORSDOF 2
ENDMDL
MODEL 10
REMARK VINA RESULT:      -5.0     27.380     28.991
REMARK  Name = 75367708
REMARK  2 active torsions:
REMARK  status: ('A' for Active; 'I' for Inactive)
REMARK    1  A    between atoms: O_3  and  C_10
REMARK    2  A    between atoms: O_3  and  C_19
REMARK                            x       y       z     vdW  Elec       q    Type
REMARK                         _______ _______ _______ _____ _____    ______ ____
ROOT
ATOM      1  O   UNL     1      -1.775 -13.127  12.872  0.00  0.00    -0.375 OA
ATOM      2  O   UNL     1      -6.318  -9.579   8.353  0.00  0.00    -0.377 OA
ATOM      4  O   UNL     1      -5.341  -9.635  13.230  0.00  0.00    -0.252 OA
ATOM      5  N   UNL     1      -3.485 -10.694  12.345  0.00  0.00    -0.280 N 
ATOM      6  N   UNL     1      -5.231  -9.845  10.942  0.00  0.00    -0.281 N 
ATOM      9  C   UNL     1      -2.697 -10.518  13.572  0.00  0.00    +0.156 C 
ATOM     10  C   UNL     1      -2.847 -11.656  14.585  0.00  0.00    +0.218 C 
ATOM     11  C   UNL     1      -3.018 -11.706  11.386  0.00  0.00    +0.137 C 
ATOM     12  C   UNL     1      -4.724 -10.032  12.235  0.00  0.00    +0.305 C 
ATOM     13  C   UNL     1      -2.085 -12.943  14.248  0.00  0.00    +0.206 C 
ATOM     14  C   UNL     1      -6.679  -9.803  10.743  0.00  0.00    +0.137 C 
ATOM     15  C   UNL     1      -4.471  -9.192   9.868  0.00  0.00    +0.137 C 
ATOM     16  C   UNL     1      -2.900 -13.093  12.005  0.00  0.00    +0.179 C 
ATOM     17  C   UNL     1      -7.033 -10.313   9.353  0.00  0.00    +0.179 C 
ATOM     18  C   UNL     1      -4.904  -9.731   8.512  0.00  0.00    +0.179 C 
ENDROOT
BRANCH  10   3
ATOM      3  O   UNL     1      -4.232 -11.943  14.777  0.00  0.00    -0.468 OA
BRANCH   3  19
ATOM      7  N   UNL     1      -5.207 -13.019  16.591  0.00  0.00    -0.219 NA
ATOM      8  N   UNL     1      -5.072 -10.624  18.046  0.00  0.00    -0.256 NA
ATOM     19  C   UNL     1      -4.694 -11.890  16.062  0.00  0.00    +0.234 A 
ATOM     20  C   UNL     1      -4.628 -10.714  16.777  0.00  0.00    +0.177 A 
ATOM     21  C   UNL     1      -5.652 -12.928  17.861  0.00  0.00    +0.134 A 
ATOM     22  C   UNL     1      -5.586 -11.752  18.575  0.00  0.00    +0.130 A 
ENDBRANCH   3  19
ENDBRANCH  10   3
TORSDOF 2
ENDMDL
