MODEL 1
REMARK VINA RESULT:      -7.3      0.000      0.000
REMARK  Name = 25391126
REMARK  6 active torsions:
REMARK  status: ('A' for Active; 'I' for Inactive)
REMARK    1  A    between atoms: N_7  and  C_21
REMARK    2  A    between atoms: C_10  and  C_14
REMARK    3  A    between atoms: C_11  and  C_20
REMARK    4  A    between atoms: C_21  and  C_22
REMARK    5  A    between atoms: C_21  and  C_24
REMARK    6  A    between atoms: C_22  and  C_23
REMARK                            x       y       z     vdW  Elec       q    Type
REMARK                         _______ _______ _______ _____ _____    ______ ____
ROOT
ATOM      2  O   UNL     1      -5.297 -10.264  14.732  0.00  0.00    -0.274 OA
ATOM      7  N   UNL     1      -3.520 -11.659  15.297  0.00  0.00    -0.302 N 
ATOM     20  C   UNL     1      -4.835 -11.226  15.340  0.00  0.00    +0.235 C 
ATOM     34  H   UNL     1      -3.228 -12.428  15.892  0.00  0.00    +0.150 HD
ENDROOT
BRANCH  20  11
ATOM      1  O   UNL     1      -8.287 -11.117  15.719  0.00  0.00    -0.275 OA
ATOM      4  N   UNL     1      -6.425 -11.188  17.111  0.00  0.00    -0.287 N 
ATOM      6  N   UNL     1      -4.076 -12.551  18.062  0.00  0.00    -0.312 NA
ATOM     11  C   UNL     1      -5.689 -12.092  16.220  0.00  0.00    +0.176 C 
ATOM     14  C   UNL     1      -7.678 -10.713  16.713  0.00  0.00    +0.219 C 
ATOM     15  C   UNL     1      -5.694 -10.711  18.294  0.00  0.00    +0.123 C 
ATOM     16  C   UNL     1      -4.862 -13.135  16.973  0.00  0.00    +0.113 C 
ATOM     19  C   UNL     1      -4.945 -11.838  18.995  0.00  0.00    +0.100 C 
ATOM     33  H   UNL     1      -3.400 -11.896  17.669  0.00  0.00    +0.122 HD
BRANCH  14  10
ATOM      5  N   UNL     1     -11.195  -9.533  17.135  0.00  0.00    -0.316 NA
ATOM     10  C   UNL     1      -8.297  -9.646  17.572  0.00  0.00    +0.078 C 
ATOM     12  C   UNL     1      -9.302 -10.252  18.554  0.00  0.00    +0.028 C 
ATOM     13  C   UNL     1      -8.958  -8.567  16.711  0.00  0.00    +0.028 C 
ATOM     17  C   UNL     1     -10.611 -10.653  17.872  0.00  0.00    +0.081 C 
ATOM     18  C   UNL     1     -10.281  -9.039  16.106  0.00  0.00    +0.081 C 
ATOM     32  H   UNL     1     -12.064  -9.835  16.697  0.00  0.00    +0.122 HD
ENDBRANCH  14  10
ENDBRANCH  20  11
BRANCH   7  21
ATOM     21  C   UNL     1      -2.500 -11.011  14.505  0.00  0.00    +0.163 C 
BRANCH  21  24
ATOM      3  O   UNL     1      -0.708  -9.523  15.200  0.00  0.00    -0.274 OA
ATOM      9  N   UNL     1      -1.519 -11.047  16.715  0.00  0.00    -0.328 N 
ATOM     24  C   UNL     1      -1.471 -10.446  15.474  0.00  0.00    +0.231 C 
ATOM     36  H   UNL     1      -2.171 -11.793  16.934  0.00  0.00    +0.145 HD
ATOM     37  H   UNL     1      -0.895 -10.754  17.459  0.00  0.00    +0.145 HD
ENDBRANCH  21  24
BRANCH  21  22
ATOM     22  C   UNL     1      -1.832 -11.975  13.519  0.00  0.00    +0.069 C 
BRANCH  22  23
ATOM      8  N   UNL     1      -3.866 -13.209  10.708  0.00  0.00    -0.360 N 
ATOM     23  C   UNL     1      -2.658 -12.208  12.278  0.00  0.00    -0.020 A 
ATOM     25  C   UNL     1      -3.033 -11.230  11.314  0.00  0.00    +0.003 A 
ATOM     26  C   UNL     1      -3.185 -13.414  11.878  0.00  0.00    +0.087 A 
ATOM     27  C   UNL     1      -3.790 -11.884  10.340  0.00  0.00    +0.047 A 
ATOM     28  C   UNL     1      -2.800  -9.848  11.177  0.00  0.00    +0.010 A 
ATOM     29  C   UNL     1      -4.328 -11.221   9.231  0.00  0.00    +0.026 A 
ATOM     30  C   UNL     1      -3.332  -9.172  10.073  0.00  0.00    +0.001 A 
ATOM     31  C   UNL     1      -4.084  -9.851   9.116  0.00  0.00    +0.002 A 
ATOM     35  H   UNL     1      -4.353 -13.925  10.188  0.00  0.00    +0.165 HD
ENDBRANCH  22  23
ENDBRANCH  21  22
ENDBRANCH   7  21
TORSDOF 6
ENDMDL
MODEL 2
REMARK VINA RESULT:      -7.3      1.240      1.540
REMARK  Name = 25391126
REMARK  6 active torsions:
REMARK  status: ('A' for Active; 'I' for Inactive)
REMARK    1  A    between atoms: N_7  and  C_21
REMARK    2  A    between atoms: C_10  and  C_14
REMARK    3  A    between atoms: C_11  and  C_20
REMARK    4  A    between atoms: C_21  and  C_22
REMARK    5  A    between atoms: C_21  and  C_24
REMARK    6  A    between atoms: C_22  and  C_23
REMARK                            x       y       z     vdW  Elec       q    Type
REMARK                         _______ _______ _______ _____ _____    ______ ____
ROOT
ATOM      2  O   UNL     1      -5.760 -10.358  14.972  0.00  0.00    -0.274 OA
ATOM      7  N   UNL     1      -3.798 -11.447  15.594  0.00  0.00    -0.302 N 
ATOM     20  C   UNL     1      -5.163 -11.213  15.621  0.00  0.00    +0.235 C 
ATOM     34  H   UNL     1      -3.398 -12.137  16.221  0.00  0.00    +0.150 HD
ENDROOT
BRANCH  20  11
ATOM      1  O   UNL     1      -8.592 -11.520  16.090  0.00  0.00    -0.275 OA
ATOM      4  N   UNL     1      -6.702 -11.332  17.432  0.00  0.00    -0.287 N 
ATOM      6  N   UNL     1      -4.180 -12.375  18.345  0.00  0.00    -0.312 NA
ATOM     11  C   UNL     1      -5.883 -12.158  16.539  0.00  0.00    +0.176 C 
ATOM     14  C   UNL     1      -8.014 -11.022  17.059  0.00  0.00    +0.219 C 
ATOM     15  C   UNL     1      -6.007 -10.743  18.586  0.00  0.00    +0.123 C 
ATOM     16  C   UNL     1      -4.915 -13.075  17.289  0.00  0.00    +0.113 C 
ATOM     19  C   UNL     1      -5.108 -11.754  19.288  0.00  0.00    +0.100 C 
ATOM     33  H   UNL     1      -3.600 -11.651  17.922  0.00  0.00    +0.122 HD
BRANCH  14  10
ATOM      5  N   UNL     1     -11.201  -9.137  16.591  0.00  0.00    -0.316 NA
ATOM     10  C   UNL     1      -8.738 -10.021  17.914  0.00  0.00    +0.078 C 
ATOM     12  C   UNL     1     -10.120 -10.544  18.313  0.00  0.00    +0.028 C 
ATOM     13  C   UNL     1      -8.849  -8.673  17.199  0.00  0.00    +0.028 C 
ATOM     17  C   UNL     1     -11.119 -10.482  17.157  0.00  0.00    +0.081 C 
ATOM     18  C   UNL     1      -9.902  -8.690  16.090  0.00  0.00    +0.081 C 
ATOM     32  H   UNL     1     -11.876  -9.133  15.827  0.00  0.00    +0.122 HD
ENDBRANCH  14  10
ENDBRANCH  20  11
BRANCH   7  21
ATOM     21  C   UNL     1      -2.882 -10.689  14.772  0.00  0.00    +0.163 C 
BRANCH  21  24
ATOM      3  O   UNL     1      -0.761  -9.624  15.294  0.00  0.00    -0.274 OA
ATOM      9  N   UNL     1      -1.648 -11.104  16.809  0.00  0.00    -0.328 N 
ATOM     24  C   UNL     1      -1.646 -10.413  15.616  0.00  0.00    +0.231 C 
ATOM     36  H   UNL     1      -2.399 -11.735  17.072  0.00  0.00    +0.145 HD
ATOM     37  H   UNL     1      -0.888 -11.000  17.473  0.00  0.00    +0.145 HD
ENDBRANCH  21  24
BRANCH  21  22
ATOM     22  C   UNL     1      -2.498 -11.437  13.491  0.00  0.00    +0.069 C 
BRANCH  22  23
ATOM      8  N   UNL     1      -1.839  -9.183  10.654  0.00  0.00    -0.360 N 
ATOM     23  C   UNL     1      -2.506 -10.549  12.271  0.00  0.00    -0.020 A 
ATOM     25  C   UNL     1      -3.628 -10.256  11.444  0.00  0.00    +0.003 A 
ATOM     26  C   UNL     1      -1.422  -9.875  11.759  0.00  0.00    +0.087 A 
ATOM     27  C   UNL     1      -3.182  -9.397  10.437  0.00  0.00    +0.047 A 
ATOM     28  C   UNL     1      -4.982 -10.641  11.456  0.00  0.00    +0.010 A 
ATOM     29  C   UNL     1      -4.027  -8.902   9.438  0.00  0.00    +0.026 A 
ATOM     30  C   UNL     1      -5.839 -10.154  10.462  0.00  0.00    +0.001 A 
ATOM     31  C   UNL     1      -5.366  -9.298   9.469  0.00  0.00    +0.002 A 
ATOM     35  H   UNL     1      -1.248  -8.598  10.080  0.00  0.00    +0.165 HD
ENDBRANCH  22  23
ENDBRANCH  21  22
ENDBRANCH   7  21
TORSDOF 6
ENDMDL
MODEL 3
REMARK VINA RESULT:      -7.2     25.879     29.094
REMARK  Name = 25391126
REMARK  6 active torsions:
REMARK  status: ('A' for Active; 'I' for Inactive)
REMARK    1  A    between atoms: N_7  and  C_21
REMARK    2  A    between atoms: C_10  and  C_14
REMARK    3  A    between atoms: C_11  and  C_20
REMARK    4  A    between atoms: C_21  and  C_22
REMARK    5  A    between atoms: C_21  and  C_24
REMARK    6  A    between atoms: C_22  and  C_23
REMARK                            x       y       z     vdW  Elec       q    Type
REMARK                         _______ _______ _______ _____ _____    ______ ____
ROOT
ATOM      2  O   UNL     1      14.212   9.013  22.608  0.00  0.00    -0.274 OA
ATOM      7  N   UNL     1      13.030   9.443  20.648  0.00  0.00    -0.302 N 
ATOM     20  C   UNL     1      14.170   9.186  21.392  0.00  0.00    +0.235 C 
ATOM     34  H   UNL     1      13.116   9.636  19.655  0.00  0.00    +0.150 HD
ENDROOT
BRANCH  20  11
ATOM      1  O   UNL     1      14.512  10.152  18.072  0.00  0.00    -0.275 OA
ATOM      4  N   UNL     1      15.054   8.299  19.369  0.00  0.00    -0.287 N 
ATOM      6  N   UNL     1      16.511   7.130  21.557  0.00  0.00    -0.312 NA
ATOM     11  C   UNL     1      15.402   9.114  20.538  0.00  0.00    +0.176 C 
ATOM     14  C   UNL     1      14.550   8.929  18.226  0.00  0.00    +0.219 C 
ATOM     15  C   UNL     1      15.103   6.842  19.558  0.00  0.00    +0.123 C 
ATOM     16  C   UNL     1      16.604   8.571  21.311  0.00  0.00    +0.113 C 
ATOM     19  C   UNL     1      16.363   6.405  20.297  0.00  0.00    +0.100 C 
ATOM     33  H   UNL     1      15.699   6.944  22.146  0.00  0.00    +0.122 HD
BRANCH  14  10
ATOM      5  N   UNL     1      11.652   9.206  15.889  0.00  0.00    -0.316 NA
ATOM     10  C   UNL     1      14.034   8.033  17.136  0.00  0.00    +0.078 C 
ATOM     12  C   UNL     1      14.079   8.743  15.781  0.00  0.00    +0.028 C 
ATOM     13  C   UNL     1      12.617   7.549  17.453  0.00  0.00    +0.028 C 
ATOM     17  C   UNL     1      12.970   9.786  15.635  0.00  0.00    +0.081 C 
ATOM     18  C   UNL     1      11.570   8.643  17.237  0.00  0.00    +0.081 C 
ATOM     32  H   UNL     1      10.940   9.927  15.781  0.00  0.00    +0.122 HD
ENDBRANCH  14  10
ENDBRANCH  20  11
BRANCH   7  21
ATOM     21  C   UNL     1      11.711   9.538  21.229  0.00  0.00    +0.163 C 
BRANCH  21  24
ATOM      3  O   UNL     1      11.655   7.152  20.770  0.00  0.00    -0.274 OA
ATOM      9  N   UNL     1      10.112   8.026  22.230  0.00  0.00    -0.328 N 
ATOM     24  C   UNL     1      11.172   8.120  21.353  0.00  0.00    +0.231 C 
ATOM     36  H   UNL     1       9.739   8.831  22.722  0.00  0.00    +0.145 HD
ATOM     37  H   UNL     1       9.667   7.133  22.415  0.00  0.00    +0.145 HD
ENDBRANCH  21  24
BRANCH  21  22
ATOM     22  C   UNL     1      11.730  10.224  22.599  0.00  0.00    +0.069 C 
BRANCH  22  23
ATOM      8  N   UNL     1      11.031  13.732  21.722  0.00  0.00    -0.360 N 
ATOM     23  C   UNL     1      11.401  11.695  22.521  0.00  0.00    -0.020 A 
ATOM     25  C   UNL     1      11.071  12.548  23.612  0.00  0.00    +0.003 A 
ATOM     26  C   UNL     1      11.367  12.451  21.373  0.00  0.00    +0.087 A 
ATOM     27  C   UNL     1      10.844  13.820  23.084  0.00  0.00    +0.047 A 
ATOM     28  C   UNL     1      10.945  12.359  25.002  0.00  0.00    +0.010 A 
ATOM     29  C   UNL     1      10.494  14.918  23.879  0.00  0.00    +0.026 A 
ATOM     30  C   UNL     1      10.595  13.447  25.810  0.00  0.00    +0.001 A 
ATOM     31  C   UNL     1      10.374  14.706  25.255  0.00  0.00    +0.002 A 
ATOM     35  H   UNL     1      10.934  14.502  21.075  0.00  0.00    +0.165 HD
ENDBRANCH  22  23
ENDBRANCH  21  22
ENDBRANCH   7  21
TORSDOF 6
ENDMDL
MODEL 4
REMARK VINA RESULT:      -7.1     26.660     29.908
REMARK  Name = 25391126
REMARK  6 active torsions:
REMARK  status: ('A' for Active; 'I' for Inactive)
REMARK    1  A    between atoms: N_7  and  C_21
REMARK    2  A    between atoms: C_10  and  C_14
REMARK    3  A    between atoms: C_11  and  C_20
REMARK    4  A    between atoms: C_21  and  C_22
REMARK    5  A    between atoms: C_21  and  C_24
REMARK    6  A    between atoms: C_22  and  C_23
REMARK                            x       y       z     vdW  Elec       q    Type
REMARK                         _______ _______ _______ _____ _____    ______ ____
ROOT
ATOM      2  O   UNL     1      10.840  10.546  22.139  0.00  0.00    -0.274 OA
ATOM      7  N   UNL     1      12.893  10.467  23.236  0.00  0.00    -0.302 N 
ATOM     20  C   UNL     1      11.867   9.953  22.459  0.00  0.00    +0.235 C 
ATOM     34  H   UNL     1      13.669   9.867  23.496  0.00  0.00    +0.150 HD
ENDROOT
BRANCH  20  11
ATOM      1  O   UNL     1      14.919   8.291  22.452  0.00  0.00    -0.275 OA
ATOM      4  N   UNL     1      13.171   8.644  20.959  0.00  0.00    -0.287 N 
ATOM      6  N   UNL     1      10.404   8.318  20.239  0.00  0.00    -0.312 NA
ATOM     11  C   UNL     1      12.147   8.549  22.005  0.00  0.00    +0.176 C 
ATOM     14  C   UNL     1      14.521   8.575  21.320  0.00  0.00    +0.219 C 
ATOM     15  C   UNL     1      12.690   8.982  19.611  0.00  0.00    +0.123 C 
ATOM     16  C   UNL     1      10.878   7.835  21.538  0.00  0.00    +0.113 C 
ATOM     19  C   UNL     1      11.452   8.179  19.230  0.00  0.00    +0.100 C 
ATOM     33  H   UNL     1      10.150   9.303  20.323  0.00  0.00    +0.122 HD
BRANCH  14  10
ATOM      5  N   UNL     1      17.797   7.025  20.424  0.00  0.00    -0.316 NA
ATOM     10  C   UNL     1      15.523   8.869  20.239  0.00  0.00    +0.078 C 
ATOM     12  C   UNL     1      15.685   7.666  19.307  0.00  0.00    +0.028 C 
ATOM     13  C   UNL     1      16.868   9.280  20.841  0.00  0.00    +0.028 C 
ATOM     17  C   UNL     1      16.502   6.542  19.947  0.00  0.00    +0.081 C 
ATOM     18  C   UNL     1      17.635   8.089  21.416  0.00  0.00    +0.081 C 
ATOM     32  H   UNL     1      18.313   6.252  20.841  0.00  0.00    +0.122 HD
ENDBRANCH  14  10
ENDBRANCH  20  11
BRANCH   7  21
ATOM     21  C   UNL     1      12.879  11.805  23.778  0.00  0.00    +0.163 C 
BRANCH  21  24
ATOM      3  O   UNL     1      13.200  12.307  26.135  0.00  0.00    -0.274 OA
ATOM      9  N   UNL     1      14.744  10.978  25.075  0.00  0.00    -0.328 N 
ATOM     24  C   UNL     1      13.605  11.754  25.115  0.00  0.00    +0.231 C 
ATOM     36  H   UNL     1      15.054  10.508  24.230  0.00  0.00    +0.145 HD
ATOM     37  H   UNL     1      15.316  10.849  25.903  0.00  0.00    +0.145 HD
ENDBRANCH  21  24
BRANCH  21  22
ATOM     22  C   UNL     1      13.550  12.817  22.844  0.00  0.00    +0.069 C 
BRANCH  22  23
ATOM      8  N   UNL     1      11.682  14.249  20.012  0.00  0.00    -0.360 N 
ATOM     23  C   UNL     1      12.581  13.454  21.878  0.00  0.00    -0.020 A 
ATOM     25  C   UNL     1      11.289  13.966  22.189  0.00  0.00    +0.003 A 
ATOM     26  C   UNL     1      12.793  13.642  20.532  0.00  0.00    +0.087 A 
ATOM     27  C   UNL     1      10.747  14.459  21.001  0.00  0.00    +0.047 A 
ATOM     28  C   UNL     1      10.529  14.058  23.371  0.00  0.00    +0.010 A 
ATOM     29  C   UNL     1       9.476  15.042  20.935  0.00  0.00    +0.026 A 
ATOM     30  C   UNL     1       9.256  14.638  23.320  0.00  0.00    +0.001 A 
ATOM     31  C   UNL     1       8.740  15.122  22.119  0.00  0.00    +0.002 A 
ATOM     35  H   UNL     1      11.564  14.508  19.042  0.00  0.00    +0.165 HD
ENDBRANCH  22  23
ENDBRANCH  21  22
ENDBRANCH   7  21
TORSDOF 6
ENDMDL
MODEL 5
REMARK VINA RESULT:      -7.1     26.343     29.316
REMARK  Name = 25391126
REMARK  6 active torsions:
REMARK  status: ('A' for Active; 'I' for Inactive)
REMARK    1  A    between atoms: N_7  and  C_21
REMARK    2  A    between atoms: C_10  and  C_14
REMARK    3  A    between atoms: C_11  and  C_20
REMARK    4  A    between atoms: C_21  and  C_22
REMARK    5  A    between atoms: C_21  and  C_24
REMARK    6  A    between atoms: C_22  and  C_23
REMARK                            x       y       z     vdW  Elec       q    Type
REMARK                         _______ _______ _______ _____ _____    ______ ____
ROOT
ATOM      2  O   UNL     1      13.679   7.756  19.132  0.00  0.00    -0.274 OA
ATOM      7  N   UNL     1      14.544   9.440  20.488  0.00  0.00    -0.302 N 
ATOM     20  C   UNL     1      13.537   8.763  19.821  0.00  0.00    +0.235 C 
ATOM     34  H   UNL     1      14.326  10.303  20.977  0.00  0.00    +0.150 HD
ENDROOT
BRANCH  20  11
ATOM      1  O   UNL     1      12.840  11.882  21.184  0.00  0.00    -0.275 OA
ATOM      4  N   UNL     1      12.101   9.696  21.474  0.00  0.00    -0.287 N 
ATOM      6  N   UNL     1      10.828   7.337  20.428  0.00  0.00    -0.312 NA
ATOM     11  C   UNL     1      12.189   9.387  20.042  0.00  0.00    +0.176 C 
ATOM     14  C   UNL     1      12.526  10.949  21.927  0.00  0.00    +0.219 C 
ATOM     15  C   UNL     1      11.726   8.580  22.354  0.00  0.00    +0.123 C 
ATOM     16  C   UNL     1      11.054   8.488  19.551  0.00  0.00    +0.113 C 
ATOM     19  C   UNL     1      10.556   7.780  21.793  0.00  0.00    +0.100 C 
ATOM     33  H   UNL     1      11.663   6.750  20.428  0.00  0.00    +0.122 HD
BRANCH  14  10
ATOM      5  N   UNL     1      11.885  13.895  24.128  0.00  0.00    -0.316 NA
ATOM     10  C   UNL     1      12.592  11.139  23.416  0.00  0.00    +0.078 C 
ATOM     12  C   UNL     1      11.220  11.517  23.978  0.00  0.00    +0.028 C 
ATOM     13  C   UNL     1      13.643  12.188  23.786  0.00  0.00    +0.028 C 
ATOM     17  C   UNL     1      10.849  12.970  23.673  0.00  0.00    +0.081 C 
ATOM     18  C   UNL     1      13.170  13.612  23.488  0.00  0.00    +0.081 C 
ATOM     32  H   UNL     1      11.604  14.850  23.911  0.00  0.00    +0.122 HD
ENDBRANCH  14  10
ENDBRANCH  20  11
BRANCH   7  21
ATOM     21  C   UNL     1      15.929   9.028  20.456  0.00  0.00    +0.163 C 
BRANCH  21  24
ATOM      3  O   UNL     1      17.538  10.849  20.418  0.00  0.00    -0.274 OA
ATOM      9  N   UNL     1      16.469  10.370  22.394  0.00  0.00    -0.328 N 
ATOM     24  C   UNL     1      16.747  10.161  21.059  0.00  0.00    +0.231 C 
ATOM     36  H   UNL     1      15.795   9.808  22.904  0.00  0.00    +0.145 HD
ATOM     37  H   UNL     1      16.936  11.105  22.914  0.00  0.00    +0.145 HD
ENDBRANCH  21  24
BRANCH  21  22
ATOM     22  C   UNL     1      16.165   7.728  21.232  0.00  0.00    +0.069 C 
BRANCH  22  23
ATOM      8  N   UNL     1      18.010   5.411  19.042  0.00  0.00    -0.360 N 
ATOM     23  C   UNL     1      17.127   6.798  20.533  0.00  0.00    -0.020 A 
ATOM     25  C   UNL     1      18.421   6.419  20.989  0.00  0.00    +0.003 A 
ATOM     26  C   UNL     1      16.903   6.162  19.334  0.00  0.00    +0.087 A 
ATOM     27  C   UNL     1      18.953   5.549  20.036  0.00  0.00    +0.047 A 
ATOM     28  C   UNL     1      19.192   6.734  22.125  0.00  0.00    +0.010 A 
ATOM     29  C   UNL     1      20.224   4.975  20.162  0.00  0.00    +0.026 A 
ATOM     30  C   UNL     1      20.465   6.169  22.265  0.00  0.00    +0.001 A 
ATOM     31  C   UNL     1      20.971   5.303  21.297  0.00  0.00    +0.002 A 
ATOM     35  H   UNL     1      18.120   4.837  18.218  0.00  0.00    +0.165 HD
ENDBRANCH  22  23
ENDBRANCH  21  22
ENDBRANCH   7  21
TORSDOF 6
ENDMDL
MODEL 6
REMARK VINA RESULT:      -7.0     26.882     30.183
REMARK  Name = 25391126
REMARK  6 active torsions:
REMARK  status: ('A' for Active; 'I' for Inactive)
REMARK    1  A    between atoms: N_7  and  C_21
REMARK    2  A    between atoms: C_10  and  C_14
REMARK    3  A    between atoms: C_11  and  C_20
REMARK    4  A    between atoms: C_21  and  C_22
REMARK    5  A    between atoms: C_21  and  C_24
REMARK    6  A    between atoms: C_22  and  C_23
REMARK                            x       y       z     vdW  Elec       q    Type
REMARK                         _______ _______ _______ _____ _____    ______ ____
ROOT
ATOM      2  O   UNL     1      11.081  10.696  21.686  0.00  0.00    -0.274 OA
ATOM      7  N   UNL     1      12.941  10.419  23.059  0.00  0.00    -0.302 N 
ATOM     20  C   UNL     1      11.993  10.008  22.137  0.00  0.00    +0.235 C 
ATOM     34  H   UNL     1      13.614   9.747  23.416  0.00  0.00    +0.150 HD
ENDROOT
BRANCH  20  11
ATOM      1  O   UNL     1      14.903   8.124  22.369  0.00  0.00    -0.275 OA
ATOM      4  N   UNL     1      13.313   8.602  20.741  0.00  0.00    -0.287 N 
ATOM      6  N   UNL     1      10.596   8.481  19.801  0.00  0.00    -0.312 NA
ATOM     11  C   UNL     1      12.203   8.586  21.701  0.00  0.00    +0.176 C 
ATOM     14  C   UNL     1      14.620   8.434  21.210  0.00  0.00    +0.219 C 
ATOM     15  C   UNL     1      12.968   8.972  19.361  0.00  0.00    +0.123 C 
ATOM     16  C   UNL     1      10.926   7.967  21.132  0.00  0.00    +0.113 C 
ATOM     19  C   UNL     1      11.708   8.263  18.878  0.00  0.00    +0.100 C 
ATOM     33  H   UNL     1      10.410   9.482  19.867  0.00  0.00    +0.122 HD
BRANCH  14  10
ATOM      5  N   UNL     1      17.463   6.291  20.088  0.00  0.00    -0.316 NA
ATOM     10  C   UNL     1      15.725   8.650  20.214  0.00  0.00    +0.078 C 
ATOM     12  C   UNL     1      15.642   7.627  19.079  0.00  0.00    +0.028 C 
ATOM     13  C   UNL     1      17.092   8.599  20.898  0.00  0.00    +0.028 C 
ATOM     17  C   UNL     1      16.120   6.240  19.513  0.00  0.00    +0.081 C 
ATOM     18  C   UNL     1      17.509   7.171  21.255  0.00  0.00    +0.081 C 
ATOM     32  H   UNL     1      17.749   5.352  20.362  0.00  0.00    +0.122 HD
ENDBRANCH  14  10
ENDBRANCH  20  11
BRANCH   7  21
ATOM     21  C   UNL     1      12.974  11.750  23.619  0.00  0.00    +0.163 C 
BRANCH  21  24
ATOM      3  O   UNL     1      11.396  11.637  25.464  0.00  0.00    -0.274 OA
ATOM      9  N   UNL     1      13.640  11.470  25.926  0.00  0.00    -0.328 N 
ATOM     24  C   UNL     1      12.563  11.633  25.080  0.00  0.00    +0.231 C 
ATOM     36  H   UNL     1      14.597  11.445  25.591  0.00  0.00    +0.145 HD
ATOM     37  H   UNL     1      13.504  11.365  26.926  0.00  0.00    +0.145 HD
ENDBRANCH  21  24
BRANCH  21  22
ATOM     22  C   UNL     1      14.360  12.394  23.504  0.00  0.00    +0.069 C 
BRANCH  22  23
ATOM      8  N   UNL     1      14.952  12.581  19.874  0.00  0.00    -0.360 N 
ATOM     23  C   UNL     1      14.876  12.420  22.086  0.00  0.00    -0.020 A 
ATOM     25  C   UNL     1      16.225  12.230  21.672  0.00  0.00    +0.003 A 
ATOM     26  C   UNL     1      14.118  12.634  20.958  0.00  0.00    +0.087 A 
ATOM     27  C   UNL     1      16.245  12.336  20.280  0.00  0.00    +0.047 A 
ATOM     28  C   UNL     1      17.433  11.978  22.351  0.00  0.00    +0.010 A 
ATOM     29  C   UNL     1      17.419  12.201  19.529  0.00  0.00    +0.026 A 
ATOM     30  C   UNL     1      18.615  11.841  21.613  0.00  0.00    +0.001 A 
ATOM     31  C   UNL     1      18.605  11.952  20.223  0.00  0.00    +0.002 A 
ATOM     35  H   UNL     1      14.663  12.702  18.913  0.00  0.00    +0.165 HD
ENDBRANCH  22  23
ENDBRANCH  21  22
ENDBRANCH   7  21
TORSDOF 6
ENDMDL
MODEL 7
REMARK VINA RESULT:      -6.8     24.418     27.360
REMARK  Name = 25391126
REMARK  6 active torsions:
REMARK  status: ('A' for Active; 'I' for Inactive)
REMARK    1  A    between atoms: N_7  and  C_21
REMARK    2  A    between atoms: C_10  and  C_14
REMARK    3  A    between atoms: C_11  and  C_20
REMARK    4  A    between atoms: C_21  and  C_22
REMARK    5  A    between atoms: C_21  and  C_24
REMARK    6  A    between atoms: C_22  and  C_23
REMARK                            x       y       z     vdW  Elec       q    Type
REMARK                         _______ _______ _______ _____ _____    ______ ____
ROOT
ATOM      2  O   UNL     1      14.157   7.669   2.204  0.00  0.00    -0.274 OA
ATOM      7  N   UNL     1      13.209   5.659   2.902  0.00  0.00    -0.302 N 
ATOM     20  C   UNL     1      13.664   6.956   3.075  0.00  0.00    +0.235 C 
ATOM     34  H   UNL     1      12.880   5.135   3.706  0.00  0.00    +0.150 HD
ENDROOT
BRANCH  20  11
ATOM      1  O   UNL     1      10.968   6.350   5.181  0.00  0.00    -0.275 OA
ATOM      4  N   UNL     1      12.210   8.193   4.496  0.00  0.00    -0.287 N 
ATOM      6  N   UNL     1      14.719   9.596   4.362  0.00  0.00    -0.312 NA
ATOM     11  C   UNL     1      13.471   7.443   4.482  0.00  0.00    +0.176 C 
ATOM     14  C   UNL     1      11.021   7.518   4.787  0.00  0.00    +0.219 C 
ATOM     15  C   UNL     1      12.280   9.584   4.027  0.00  0.00    +0.123 C 
ATOM     16  C   UNL     1      14.664   8.265   4.972  0.00  0.00    +0.113 C 
ATOM     19  C   UNL     1      13.477  10.324   4.613  0.00  0.00    +0.100 C 
ATOM     33  H   UNL     1      14.849   9.496   3.356  0.00  0.00    +0.122 HD
BRANCH  14  10
ATOM      5  N   UNL     1       7.747   7.461   6.582  0.00  0.00    -0.316 NA
ATOM     10  C   UNL     1       9.745   8.290   4.601  0.00  0.00    +0.078 C 
ATOM     12  C   UNL     1       9.426   9.122   5.845  0.00  0.00    +0.028 C 
ATOM     13  C   UNL     1       8.585   7.353   4.257  0.00  0.00    +0.028 C 
ATOM     17  C   UNL     1       8.897   8.265   6.996  0.00  0.00    +0.081 C 
ATOM     18  C   UNL     1       8.093   6.570   5.474  0.00  0.00    +0.081 C 
ATOM     32  H   UNL     1       7.422   6.907   7.372  0.00  0.00    +0.122 HD
ENDBRANCH  14  10
ENDBRANCH  20  11
BRANCH   7  21
ATOM     21  C   UNL     1      13.260   4.966   1.635  0.00  0.00    +0.163 C 
BRANCH  21  24
ATOM      3  O   UNL     1      14.793   3.103   1.927  0.00  0.00    -0.274 OA
ATOM      9  N   UNL     1      15.590   5.047   0.997  0.00  0.00    -0.328 N 
ATOM     24  C   UNL     1      14.607   4.262   1.563  0.00  0.00    +0.231 C 
ATOM     36  H   UNL     1      15.416   5.995   0.680  0.00  0.00    +0.145 HD
ATOM     37  H   UNL     1      16.534   4.693   0.877  0.00  0.00    +0.145 HD
ENDBRANCH  21  24
BRANCH  21  22
ATOM     22  C   UNL     1      12.119   3.954   1.482  0.00  0.00    +0.069 C 
BRANCH  22  23
ATOM      8  N   UNL     1       9.649   4.986  -1.047  0.00  0.00    -0.360 N 
ATOM     23  C   UNL     1      11.264   4.217   0.267  0.00  0.00    -0.020 A 
ATOM     25  C   UNL     1      11.473   3.701  -1.043  0.00  0.00    +0.003 A 
ATOM     26  C   UNL     1      10.136   5.003   0.232  0.00  0.00    +0.087 A 
ATOM     27  C   UNL     1      10.446   4.198  -1.848  0.00  0.00    +0.047 A 
ATOM     28  C   UNL     1      12.439   2.855  -1.622  0.00  0.00    +0.010 A 
ATOM     29  C   UNL     1      10.337   3.892  -3.210  0.00  0.00    +0.026 A 
ATOM     30  C   UNL     1      12.344   2.540  -2.983  0.00  0.00    +0.001 A 
ATOM     31  C   UNL     1      11.308   3.052  -3.762  0.00  0.00    +0.002 A 
ATOM     35  H   UNL     1       8.824   5.478  -1.360  0.00  0.00    +0.165 HD
ENDBRANCH  22  23
ENDBRANCH  21  22
ENDBRANCH   7  21
TORSDOF 6
ENDMDL
MODEL 8
REMARK VINA RESULT:      -6.8      2.084      2.981
REMARK  Name = 25391126
REMARK  6 active torsions:
REMARK  status: ('A' for Active; 'I' for Inactive)
REMARK    1  A    between atoms: N_7  and  C_21
REMARK    2  A    between atoms: C_10  and  C_14
REMARK    3  A    between atoms: C_11  and  C_20
REMARK    4  A    between atoms: C_21  and  C_22
REMARK    5  A    between atoms: C_21  and  C_24
REMARK    6  A    between atoms: C_22  and  C_23
REMARK                            x       y       z     vdW  Elec       q    Type
REMARK                         _______ _______ _______ _____ _____    ______ ____
ROOT
ATOM      2  O   UNL     1      -5.943 -10.086  13.343  0.00  0.00    -0.274 OA
ATOM      7  N   UNL     1      -3.839 -11.071  13.179  0.00  0.00    -0.302 N 
ATOM     20  C   UNL     1      -5.090 -10.875  13.741  0.00  0.00    +0.235 C 
ATOM     34  H   UNL     1      -3.184 -11.703  13.628  0.00  0.00    +0.150 HD
ENDROOT
BRANCH  20  11
ATOM      1  O   UNL     1      -7.944 -11.076  15.713  0.00  0.00    -0.275 OA
ATOM      4  N   UNL     1      -5.651 -10.895  16.054  0.00  0.00    -0.287 N 
ATOM      6  N   UNL     1      -2.998 -11.975  15.779  0.00  0.00    -0.312 NA
ATOM     11  C   UNL     1      -5.329 -11.771  14.922  0.00  0.00    +0.176 C 
ATOM     14  C   UNL     1      -6.987 -10.564  16.298  0.00  0.00    +0.219 C 
ATOM     15  C   UNL     1      -4.506 -10.288  16.749  0.00  0.00    +0.123 C 
ATOM     16  C   UNL     1      -4.136 -12.689  15.194  0.00  0.00    +0.113 C 
ATOM     19  C   UNL     1      -3.397 -11.300  17.012  0.00  0.00    +0.100 C 
ATOM     33  H   UNL     1      -2.663 -11.280  15.112  0.00  0.00    +0.122 HD
BRANCH  14  10
ATOM      5  N   UNL     1      -9.566 -10.244  18.979  0.00  0.00    -0.316 NA
ATOM     10  C   UNL     1      -7.241  -9.517  17.346  0.00  0.00    +0.078 C 
ATOM     12  C   UNL     1      -7.107 -10.109  18.751  0.00  0.00    +0.028 C 
ATOM     13  C   UNL     1      -8.615  -8.873  17.153  0.00  0.00    +0.028 C 
ATOM     17  C   UNL     1      -8.308 -10.975  19.132  0.00  0.00    +0.081 C 
ATOM     18  C   UNL     1      -9.753  -9.791  17.601  0.00  0.00    +0.081 C 
ATOM     32  H   UNL     1     -10.342 -10.849  19.244  0.00  0.00    +0.122 HD
ENDBRANCH  14  10
ENDBRANCH  20  11
BRANCH   7  21
ATOM     21  C   UNL     1      -3.373 -10.349  12.018  0.00  0.00    +0.163 C 
BRANCH  21  24
ATOM      3  O   UNL     1      -1.159  -9.555  11.404  0.00  0.00    -0.274 OA
ATOM      9  N   UNL     1      -1.548 -10.145  13.590  0.00  0.00    -0.328 N 
ATOM     24  C   UNL     1      -1.917  -9.986  12.271  0.00  0.00    +0.231 C 
ATOM     36  H   UNL     1      -2.192 -10.481  14.299  0.00  0.00    +0.145 HD
ATOM     37  H   UNL     1      -0.606  -9.925  13.897  0.00  0.00    +0.145 HD
ENDBRANCH  21  24
BRANCH  21  22
ATOM     22  C   UNL     1      -3.503 -11.173  10.732  0.00  0.00    +0.069 C 
BRANCH  22  23
ATOM      8  N   UNL     1      -5.167  -8.794   8.466  0.00  0.00    -0.360 N 
ATOM     23  C   UNL     1      -4.196 -10.421   9.623  0.00  0.00    -0.020 A 
ATOM     25  C   UNL     1      -4.586 -10.945   8.358  0.00  0.00    +0.003 A 
ATOM     26  C   UNL     1      -4.567  -9.096   9.659  0.00  0.00    +0.087 A 
ATOM     27  C   UNL     1      -5.192  -9.904   7.652  0.00  0.00    +0.047 A 
ATOM     28  C   UNL     1      -4.480 -12.209   7.746  0.00  0.00    +0.010 A 
ATOM     29  C   UNL     1      -5.700 -10.065   6.358  0.00  0.00    +0.026 A 
ATOM     30  C   UNL     1      -4.983 -12.384   6.451  0.00  0.00    +0.001 A 
ATOM     31  C   UNL     1      -5.583 -11.327   5.770  0.00  0.00    +0.002 A 
ATOM     35  H   UNL     1      -5.539  -7.888   8.218  0.00  0.00    +0.165 HD
ENDBRANCH  22  23
ENDBRANCH  21  22
ENDBRANCH   7  21
TORSDOF 6
ENDMDL
MODEL 9
REMARK VINA RESULT:      -6.6      2.710      3.897
REMARK  Name = 25391126
REMARK  6 active torsions:
REMARK  status: ('A' for Active; 'I' for Inactive)
REMARK    1  A    between atoms: N_7  and  C_21
REMARK    2  A    between atoms: C_10  and  C_14
REMARK    3  A    between atoms: C_11  and  C_20
REMARK    4  A    between atoms: C_21  and  C_22
REMARK    5  A    between atoms: C_21  and  C_24
REMARK    6  A    between atoms: C_22  and  C_23
REMARK                            x       y       z     vdW  Elec       q    Type
REMARK                         _______ _______ _______ _____ _____    ______ ____
ROOT
ATOM      2  O   UNL     1      -5.873  -9.918  17.075  0.00  0.00    -0.274 OA
ATOM      7  N   UNL     1      -4.316 -11.559  16.520  0.00  0.00    -0.302 N 
ATOM     20  C   UNL     1      -5.343 -11.009  17.269  0.00  0.00    +0.235 C 
ATOM     34  H   UNL     1      -3.905 -12.441  16.808  0.00  0.00    +0.150 HD
ENDROOT
BRANCH  20  11
ATOM      1  O   UNL     1      -5.803 -14.451  17.139  0.00  0.00    -0.275 OA
ATOM      4  N   UNL     1      -6.992 -12.604  17.903  0.00  0.00    -0.287 N 
ATOM      6  N   UNL     1      -7.222 -10.346  19.671  0.00  0.00    -0.312 NA
ATOM     11  C   UNL     1      -5.786 -11.919  18.379  0.00  0.00    +0.176 C 
ATOM     14  C   UNL     1      -6.861 -13.825  17.234  0.00  0.00    +0.219 C 
ATOM     15  C   UNL     1      -8.251 -11.853  18.019  0.00  0.00    +0.123 C 
ATOM     16  C   UNL     1      -6.005 -11.159  19.688  0.00  0.00    +0.113 C 
ATOM     19  C   UNL     1      -8.388 -11.176  19.378  0.00  0.00    +0.100 C 
ATOM     33  H   UNL     1      -7.133  -9.630  18.950  0.00  0.00    +0.122 HD
BRANCH  14  10
ATOM      5  N   UNL     1      -7.419 -16.458  14.645  0.00  0.00    -0.316 NA
ATOM     10  C   UNL     1      -8.106 -14.384  16.603  0.00  0.00    +0.078 C 
ATOM     12  C   UNL     1      -8.244 -15.878  16.904  0.00  0.00    +0.028 C 
ATOM     13  C   UNL     1      -8.116 -14.127  15.095  0.00  0.00    +0.028 C 
ATOM     17  C   UNL     1      -7.280 -16.729  16.075  0.00  0.00    +0.081 C 
ATOM     18  C   UNL     1      -7.157 -15.051  14.343  0.00  0.00    +0.081 C 
ATOM     32  H   UNL     1      -6.765 -17.041  14.126  0.00  0.00    +0.122 HD
ENDBRANCH  14  10
ENDBRANCH  20  11
BRANCH   7  21
ATOM     21  C   UNL     1      -3.726 -10.895  15.380  0.00  0.00    +0.163 C 
BRANCH  21  24
ATOM      3  O   UNL     1      -1.495 -10.321  16.153  0.00  0.00    -0.274 OA
ATOM      9  N   UNL     1      -1.752 -12.173  14.820  0.00  0.00    -0.328 N 
ATOM     24  C   UNL     1      -2.218 -11.064  15.494  0.00  0.00    +0.231 C 
ATOM     36  H   UNL     1      -2.366 -12.792  14.299  0.00  0.00    +0.145 HD
ATOM     37  H   UNL     1      -0.766 -12.410  14.826  0.00  0.00    +0.145 HD
ENDBRANCH  21  24
BRANCH  21  22
ATOM     22  C   UNL     1      -4.229 -11.468  14.051  0.00  0.00    +0.069 C 
BRANCH  22  23
ATOM      8  N   UNL     1      -6.491  -8.979  12.550  0.00  0.00    -0.360 N 
ATOM     23  C   UNL     1      -4.969 -10.449  13.218  0.00  0.00    -0.020 A 
ATOM     25  C   UNL     1      -4.582  -9.959  11.939  0.00  0.00    +0.003 A 
ATOM     26  C   UNL     1      -6.146  -9.828  13.567  0.00  0.00    +0.087 A 
ATOM     27  C   UNL     1      -5.554  -9.038  11.542  0.00  0.00    +0.047 A 
ATOM     28  C   UNL     1      -3.496 -10.211  11.079  0.00  0.00    +0.010 A 
ATOM     29  C   UNL     1      -5.493  -8.354  10.323  0.00  0.00    +0.026 A 
ATOM     30  C   UNL     1      -3.421  -9.534   9.856  0.00  0.00    +0.001 A 
ATOM     31  C   UNL     1      -4.406  -8.620   9.487  0.00  0.00    +0.002 A 
ATOM     35  H   UNL     1      -7.315  -8.394  12.538  0.00  0.00    +0.165 HD
ENDBRANCH  22  23
ENDBRANCH  21  22
ENDBRANCH   7  21
TORSDOF 6
ENDMDL
MODEL 10
REMARK VINA RESULT:      -6.5     23.697     26.817
REMARK  Name = 25391126
REMARK  6 active torsions:
REMARK  status: ('A' for Active; 'I' for Inactive)
REMARK    1  A    between atoms: N_7  and  C_21
REMARK    2  A    between atoms: C_10  and  C_14
REMARK    3  A    between atoms: C_11  and  C_20
REMARK    4  A    between atoms: C_21  and  C_22
REMARK    5  A    between atoms: C_21  and  C_24
REMARK    6  A    between atoms: C_22  and  C_23
REMARK                            x       y       z     vdW  Elec       q    Type
REMARK                         _______ _______ _______ _____ _____    ______ ____
ROOT
ATOM      2  O   UNL     1      11.789   7.835   1.187  0.00  0.00    -0.274 OA
ATOM      7  N   UNL     1      12.599   6.132   2.553  0.00  0.00    -0.302 N 
ATOM     20  C   UNL     1      12.094   7.396   2.292  0.00  0.00    +0.235 C 
ATOM     34  H   UNL     1      12.881   5.894   3.499  0.00  0.00    +0.150 HD
ENDROOT
BRANCH  20  11
ATOM      1  O   UNL     1      11.656   6.234   5.538  0.00  0.00    -0.275 OA
ATOM      4  N   UNL     1      10.650   7.797   4.141  0.00  0.00    -0.287 N 
ATOM      6  N   UNL     1      10.800  10.219   2.594  0.00  0.00    -0.312 NA
ATOM     11  C   UNL     1      11.924   8.209   3.543  0.00  0.00    +0.176 C 
ATOM     14  C   UNL     1      10.640   6.750   5.068  0.00  0.00    +0.219 C 
ATOM     15  C   UNL     1       9.441   8.416   3.577  0.00  0.00    +0.123 C 
ATOM     16  C   UNL     1      11.999   9.710   3.264  0.00  0.00    +0.113 C 
ATOM     19  C   UNL     1       9.608   9.920   3.384  0.00  0.00    +0.100 C 
ATOM     33  H   UNL     1      10.715   9.774   1.681  0.00  0.00    +0.122 HD
BRANCH  14  10
ATOM      5  N   UNL     1       9.248   5.795   8.398  0.00  0.00    -0.316 NA
ATOM     10  C   UNL     1       9.291   6.246   5.500  0.00  0.00    +0.078 C 
ATOM     12  C   UNL     1       8.632   7.224   6.475  0.00  0.00    +0.028 C 
ATOM     13  C   UNL     1       9.402   4.851   6.116  0.00  0.00    +0.028 C 
ATOM     17  C   UNL     1       9.254   7.159   7.871  0.00  0.00    +0.081 C 
ATOM     18  C   UNL     1       9.992   4.886   7.527  0.00  0.00    +0.081 C 
ATOM     32  H   UNL     1       9.666   5.790   9.327  0.00  0.00    +0.122 HD
ENDBRANCH  14  10
ENDBRANCH  20  11
BRANCH   7  21
ATOM     21  C   UNL     1      12.834   5.147   1.523  0.00  0.00    +0.163 C 
BRANCH  21  24
ATOM      3  O   UNL     1      14.230   3.168   1.725  0.00  0.00    -0.274 OA
ATOM      9  N   UNL     1      15.054   5.174   2.480  0.00  0.00    -0.328 N 
ATOM     24  C   UNL     1      14.082   4.372   1.921  0.00  0.00    +0.231 C 
ATOM     36  H   UNL     1      14.926   6.172   2.614  0.00  0.00    +0.145 HD
ATOM     37  H   UNL     1      15.943   4.785   2.778  0.00  0.00    +0.145 HD
ENDBRANCH  21  24
BRANCH  21  22
ATOM     22  C   UNL     1      11.646   4.194   1.350  0.00  0.00    +0.069 C 
BRANCH  22  23
ATOM      8  N   UNL     1       9.486   5.075  -1.500  0.00  0.00    -0.360 N 
ATOM     23  C   UNL     1      10.934   4.381   0.033  0.00  0.00    -0.020 A 
ATOM     25  C   UNL     1      11.276   3.775  -1.209  0.00  0.00    +0.003 A 
ATOM     26  C   UNL     1       9.829   5.174  -0.178  0.00  0.00    +0.087 A 
ATOM     27  C   UNL     1      10.353   4.227  -2.153  0.00  0.00    +0.047 A 
ATOM     28  C   UNL     1      12.286   2.884  -1.619  0.00  0.00    +0.010 A 
ATOM     29  C   UNL     1      10.389   3.829  -3.495  0.00  0.00    +0.026 A 
ATOM     30  C   UNL     1      12.335   2.478  -2.958  0.00  0.00    +0.001 A 
ATOM     31  C   UNL     1      11.399   2.945  -3.880  0.00  0.00    +0.002 A 
ATOM     35  H   UNL     1       8.709   5.552  -1.934  0.00  0.00    +0.165 HD
ENDBRANCH  22  23
ENDBRANCH  21  22
ENDBRANCH   7  21
TORSDOF 6
ENDMDL
