MODEL 1
REMARK VINA RESULT:      -6.6      0.000      0.000
REMARK  Name = 28960252
REMARK  8 active torsions:
REMARK  status: ('A' for Active; 'I' for Inactive)
REMARK    1  A    between atoms: O_3  and  C_11
REMARK    2  A    between atoms: O_4  and  C_21
REMARK    3  A    between atoms: O_4  and  C_24
REMARK    4  A    between atoms: N_7  and  C_10
REMARK    5  A    between atoms: N_8  and  C_12
REMARK    6  A    between atoms: N_9  and  C_23
REMARK    7  A    between atoms: C_20  and  C_21
REMARK    8  A    between atoms: C_23  and  C_25
REMARK                            x       y       z     vdW  Elec       q    Type
REMARK                         _______ _______ _______ _____ _____    ______ ____
ROOT
ATOM      1  O   UNL     1      11.600   6.929  19.868  0.00  0.00    -0.342 OA
ATOM      2  O   UNL     1      10.327   8.241  21.296  0.00  0.00    -0.347 OA
ATOM     10  C   UNL     1      12.228   9.236  20.179  0.00  0.00    +0.143 C 
ATOM     11  C   UNL     1      13.151   8.847  21.357  0.00  0.00    +0.159 C 
ATOM     12  C   UNL     1      13.252   7.323  21.580  0.00  0.00    +0.136 C 
ATOM     13  C   UNL     1      11.058   8.243  20.058  0.00  0.00    +0.270 C 
ATOM     14  C   UNL     1      11.960   6.566  21.205  0.00  0.00    +0.170 C 
ATOM     15  C   UNL     1      10.728   7.031  21.959  0.00  0.00    +0.196 C 
ENDROOT
BRANCH  12   8
ATOM      6  O   UNL     1      16.032   8.047  21.849  0.00  0.00    -0.253 OA
ATOM      8  N   UNL     1      14.369   6.782  20.836  0.00  0.00    -0.291 N 
ATOM      9  N   UNL     1      16.555   6.514  20.188  0.00  0.00    -0.296 N 
ATOM     22  C   UNL     1      15.683   7.194  21.034  0.00  0.00    +0.300 C 
ATOM     27  H   UNL     1      14.176   6.129  20.083  0.00  0.00    +0.151 HD
ATOM     29  H   UNL     1      16.178   5.810  19.561  0.00  0.00    +0.151 HD
BRANCH   9  23
ATOM     23  C   UNL     1      17.980   6.745  20.183  0.00  0.00    +0.132 C 
BRANCH  23  25
ATOM     25  C   UNL     1      18.677   5.494  19.764  0.00  0.00    -0.016 C 
ATOM     26  C   UNL     1      19.846   5.086  20.270  0.00  0.00    +0.005 C 
ENDBRANCH  23  25
ENDBRANCH   9  23
ENDBRANCH  12   8
BRANCH  10   7
ATOM      7  N   UNL     1      12.988   9.261  18.929  0.00  0.00    -0.293 NA
ATOM     16  C   UNL     1      12.079   9.303  17.775  0.00  0.00    +0.086 C 
ATOM     17  C   UNL     1      13.917  10.399  18.913  0.00  0.00    +0.086 C 
ATOM     18  C   UNL     1      12.857   9.273  16.458  0.00  0.00    +0.030 C 
ATOM     19  C   UNL     1      14.759  10.408  17.636  0.00  0.00    +0.030 C 
ATOM     20  C   UNL     1      13.874  10.410  16.390  0.00  0.00    +0.100 C 
BRANCH  20  21
ATOM      5  O   UNL     1      15.051   9.194  14.678  0.00  0.00    -0.251 OA
ATOM     21  C   UNL     1      14.729  10.268  15.168  0.00  0.00    +0.310 C 
BRANCH  21   4
ATOM      4  O   UNL     1      15.075  11.505  14.709  0.00  0.00    -0.468 OA
ATOM     24  C   UNL     1      13.998  12.439  14.589  0.00  0.00    +0.280 C 
ENDBRANCH  21   4
ENDBRANCH  20  21
ENDBRANCH  10   7
BRANCH  11   3
ATOM      3  O   UNL     1      12.625   9.454  22.544  0.00  0.00    -0.388 OA
ATOM     28  H   UNL     1      13.334   9.463  23.208  0.00  0.00    +0.210 HD
ENDBRANCH  11   3
TORSDOF 7
ENDMDL
MODEL 2
REMARK VINA RESULT:      -6.6      2.497      5.506
REMARK  Name = 28960252
REMARK  8 active torsions:
REMARK  status: ('A' for Active; 'I' for Inactive)
REMARK    1  A    between atoms: O_3  and  C_11
REMARK    2  A    between atoms: O_4  and  C_21
REMARK    3  A    between atoms: O_4  and  C_24
REMARK    4  A    between atoms: N_7  and  C_10
REMARK    5  A    between atoms: N_8  and  C_12
REMARK    6  A    between atoms: N_9  and  C_23
REMARK    7  A    between atoms: C_20  and  C_21
REMARK    8  A    between atoms: C_23  and  C_25
REMARK                            x       y       z     vdW  Elec       q    Type
REMARK                         _______ _______ _______ _____ _____    ______ ____
ROOT
ATOM      1  O   UNL     1      14.012   9.914  18.087  0.00  0.00    -0.342 OA
ATOM      2  O   UNL     1      12.447   9.361  16.467  0.00  0.00    -0.347 OA
ATOM     10  C   UNL     1      11.950   8.878  18.784  0.00  0.00    +0.143 C 
ATOM     11  C   UNL     1      12.586   7.475  18.651  0.00  0.00    +0.159 C 
ATOM     12  C   UNL     1      14.090   7.514  18.302  0.00  0.00    +0.136 C 
ATOM     13  C   UNL     1      12.607   9.865  17.803  0.00  0.00    +0.270 C 
ATOM     14  C   UNL     1      14.482   8.729  17.436  0.00  0.00    +0.170 C 
ATOM     15  C   UNL     1      13.732   8.821  16.120  0.00  0.00    +0.196 C 
ENDROOT
BRANCH  12   8
ATOM      6  O   UNL     1      16.482   5.975  18.791  0.00  0.00    -0.253 OA
ATOM      8  N   UNL     1      14.884   7.498  19.512  0.00  0.00    -0.291 N 
ATOM      9  N   UNL     1      16.596   6.896  20.918  0.00  0.00    -0.296 N 
ATOM     22  C   UNL     1      16.028   6.721  19.659  0.00  0.00    +0.300 C 
ATOM     27  H   UNL     1      14.548   8.020  20.316  0.00  0.00    +0.151 HD
ATOM     29  H   UNL     1      16.162   7.550  21.563  0.00  0.00    +0.151 HD
BRANCH   9  23
ATOM     23  C   UNL     1      17.793   6.208  21.339  0.00  0.00    +0.132 C 
BRANCH  23  25
ATOM     25  C   UNL     1      18.899   7.199  21.484  0.00  0.00    -0.016 C 
ATOM     26  C   UNL     1      18.706   8.507  21.693  0.00  0.00    +0.005 C 
ENDBRANCH  23  25
ENDBRANCH   9  23
ENDBRANCH  12   8
BRANCH  10   7
ATOM      7  N   UNL     1      12.096   9.370  20.155  0.00  0.00    -0.293 NA
ATOM     16  C   UNL     1      12.080  10.839  20.178  0.00  0.00    +0.086 C 
ATOM     17  C   UNL     1      11.044   8.815  21.016  0.00  0.00    +0.086 C 
ATOM     18  C   UNL     1      12.287  11.371  21.597  0.00  0.00    +0.030 C 
ATOM     19  C   UNL     1      11.214   9.276  22.465  0.00  0.00    +0.030 C 
ATOM     20  C   UNL     1      11.247  10.801  22.560  0.00  0.00    +0.100 C 
BRANCH  20  21
ATOM      5  O   UNL     1      10.740  11.246  24.870  0.00  0.00    -0.251 OA
ATOM     21  C   UNL     1      11.564  11.209  23.966  0.00  0.00    +0.310 C 
BRANCH  21   4
ATOM      4  O   UNL     1      12.887  11.521  24.062  0.00  0.00    -0.468 OA
ATOM     24  C   UNL     1      13.310  12.017  25.336  0.00  0.00    +0.280 C 
ENDBRANCH  21   4
ENDBRANCH  20  21
ENDBRANCH  10   7
BRANCH  11   3
ATOM      3  O   UNL     1      11.889   6.775  17.612  0.00  0.00    -0.388 OA
ATOM     28  H   UNL     1      11.125   7.318  17.355  0.00  0.00    +0.210 HD
ENDBRANCH  11   3
TORSDOF 7
ENDMDL
MODEL 3
REMARK VINA RESULT:      -6.0     12.863     15.885
REMARK  Name = 28960252
REMARK  8 active torsions:
REMARK  status: ('A' for Active; 'I' for Inactive)
REMARK    1  A    between atoms: O_3  and  C_11
REMARK    2  A    between atoms: O_4  and  C_21
REMARK    3  A    between atoms: O_4  and  C_24
REMARK    4  A    between atoms: N_7  and  C_10
REMARK    5  A    between atoms: N_8  and  C_12
REMARK    6  A    between atoms: N_9  and  C_23
REMARK    7  A    between atoms: C_20  and  C_21
REMARK    8  A    between atoms: C_23  and  C_25
REMARK                            x       y       z     vdW  Elec       q    Type
REMARK                         _______ _______ _______ _____ _____    ______ ____
ROOT
ATOM      1  O   UNL     1      15.840   7.931   6.038  0.00  0.00    -0.342 OA
ATOM      2  O   UNL     1      15.786  10.227   5.710  0.00  0.00    -0.347 OA
ATOM     10  C   UNL     1      13.831   8.920   5.144  0.00  0.00    +0.143 C 
ATOM     11  C   UNL     1      14.353   8.725   3.702  0.00  0.00    +0.159 C 
ATOM     12  C   UNL     1      15.692   7.958   3.632  0.00  0.00    +0.136 C 
ATOM     13  C   UNL     1      15.004   9.094   6.125  0.00  0.00    +0.270 C 
ATOM     14  C   UNL     1      16.598   8.205   4.856  0.00  0.00    +0.170 C 
ATOM     15  C   UNL     1      16.949   9.664   5.084  0.00  0.00    +0.196 C 
ENDROOT
BRANCH  12   8
ATOM      6  O   UNL     1      14.902   6.576   1.225  0.00  0.00    -0.253 OA
ATOM      8  N   UNL     1      15.447   6.540   3.482  0.00  0.00    -0.291 N 
ATOM      9  N   UNL     1      14.899   4.583   2.414  0.00  0.00    -0.296 N 
ATOM     22  C   UNL     1      15.067   5.958   2.277  0.00  0.00    +0.300 C 
ATOM     27  H   UNL     1      15.480   5.954   4.311  0.00  0.00    +0.151 HD
ATOM     29  H   UNL     1      15.079   4.157   3.318  0.00  0.00    +0.151 HD
BRANCH   9  23
ATOM     23  C   UNL     1      14.507   3.730   1.317  0.00  0.00    +0.132 C 
BRANCH  23  25
ATOM     25  C   UNL     1      13.173   3.133   1.617  0.00  0.00    -0.016 C 
ATOM     26  C   UNL     1      12.077   3.852   1.885  0.00  0.00    +0.005 C 
ENDBRANCH  23  25
ENDBRANCH   9  23
ENDBRANCH  12   8
BRANCH  10   7
ATOM      7  N   UNL     1      13.016   7.773   5.545  0.00  0.00    -0.293 NA
ATOM     16  C   UNL     1      12.293   8.065   6.790  0.00  0.00    +0.086 C 
ATOM     17  C   UNL     1      12.088   7.400   4.469  0.00  0.00    +0.086 C 
ATOM     18  C   UNL     1      11.479   6.856   7.254  0.00  0.00    +0.030 C 
ATOM     19  C   UNL     1      11.265   6.167   4.851  0.00  0.00    +0.030 C 
ATOM     20  C   UNL     1      10.516   6.387   6.165  0.00  0.00    +0.100 C 
BRANCH  20  21
ATOM      5  O   UNL     1       9.740   4.130   5.859  0.00  0.00    -0.251 OA
ATOM     21  C   UNL     1       9.846   5.113   6.579  0.00  0.00    +0.310 C 
BRANCH  21   4
ATOM      4  O   UNL     1       9.389   5.235   7.858  0.00  0.00    -0.468 OA
ATOM     24  C   UNL     1       9.612   4.099   8.700  0.00  0.00    +0.280 C 
ENDBRANCH  21   4
ENDBRANCH  20  21
ENDBRANCH  10   7
BRANCH  11   3
ATOM      3  O   UNL     1      14.534  10.023   3.122  0.00  0.00    -0.388 OA
ATOM     28  H   UNL     1      14.819   9.897   2.202  0.00  0.00    +0.210 HD
ENDBRANCH  11   3
TORSDOF 7
ENDMDL
MODEL 4
REMARK VINA RESULT:      -5.9     25.968     28.161
REMARK  Name = 28960252
REMARK  8 active torsions:
REMARK  status: ('A' for Active; 'I' for Inactive)
REMARK    1  A    between atoms: O_3  and  C_11
REMARK    2  A    between atoms: O_4  and  C_21
REMARK    3  A    between atoms: O_4  and  C_24
REMARK    4  A    between atoms: N_7  and  C_10
REMARK    5  A    between atoms: N_8  and  C_12
REMARK    6  A    between atoms: N_9  and  C_23
REMARK    7  A    between atoms: C_20  and  C_21
REMARK    8  A    between atoms: C_23  and  C_25
REMARK                            x       y       z     vdW  Elec       q    Type
REMARK                         _______ _______ _______ _____ _____    ______ ____
ROOT
ATOM      1  O   UNL     1      -4.870 -10.228  18.128  0.00  0.00    -0.342 OA
ATOM      2  O   UNL     1      -4.491 -12.212  19.267  0.00  0.00    -0.347 OA
ATOM     10  C   UNL     1      -4.536 -12.244  16.849  0.00  0.00    +0.143 C 
ATOM     11  C   UNL     1      -6.056 -12.527  16.860  0.00  0.00    +0.159 C 
ATOM     12  C   UNL     1      -6.885 -11.399  17.512  0.00  0.00    +0.136 C 
ATOM     13  C   UNL     1      -4.124 -11.452  18.103  0.00  0.00    +0.270 C 
ATOM     14  C   UNL     1      -6.132 -10.665  18.642  0.00  0.00    +0.170 C 
ATOM     15  C   UNL     1      -5.672 -11.569  19.770  0.00  0.00    +0.196 C 
ENDROOT
BRANCH  12   8
ATOM      6  O   UNL     1      -9.507 -10.227  17.227  0.00  0.00    -0.253 OA
ATOM      8  N   UNL     1      -7.310 -10.447  16.508  0.00  0.00    -0.291 N 
ATOM      9  N   UNL     1      -8.738  -9.042  15.387  0.00  0.00    -0.296 N 
ATOM     22  C   UNL     1      -8.602  -9.934  16.447  0.00  0.00    +0.300 C 
ATOM     27  H   UNL     1      -6.658 -10.202  15.770  0.00  0.00    +0.151 HD
ATOM     29  H   UNL     1      -7.927  -8.845  14.807  0.00  0.00    +0.151 HD
BRANCH   9  23
ATOM     23  C   UNL     1      -9.976  -8.361  15.092  0.00  0.00    +0.132 C 
BRANCH  23  25
ATOM     25  C   UNL     1     -10.101  -7.169  15.981  0.00  0.00    -0.016 C 
ATOM     26  C   UNL     1     -10.908  -6.132  15.728  0.00  0.00    +0.005 C 
ENDBRANCH  23  25
ENDBRANCH   9  23
ENDBRANCH  12   8
BRANCH  10   7
ATOM      7  N   UNL     1      -4.171 -11.493  15.647  0.00  0.00    -0.293 NA
ATOM     16  C   UNL     1      -2.711 -11.373  15.539  0.00  0.00    +0.086 C 
ATOM     17  C   UNL     1      -4.741 -12.128  14.451  0.00  0.00    +0.086 C 
ATOM     18  C   UNL     1      -2.314 -10.544  14.317  0.00  0.00    +0.030 C 
ATOM     19  C   UNL     1      -4.415 -11.326  13.190  0.00  0.00    +0.030 C 
ATOM     20  C   UNL     1      -2.908 -11.126  13.036  0.00  0.00    +0.100 C 
BRANCH  20  21
ATOM      5  O   UNL     1      -1.523  -9.833  11.551  0.00  0.00    -0.251 OA
ATOM     21  C   UNL     1      -2.639 -10.214  11.879  0.00  0.00    +0.310 C 
BRANCH  21   4
ATOM      4  O   UNL     1      -3.816  -9.891  11.271  0.00  0.00    -0.468 OA
ATOM     24  C   UNL     1      -3.694  -9.157  10.049  0.00  0.00    +0.280 C 
ENDBRANCH  21   4
ENDBRANCH  20  21
ENDBRANCH  10   7
BRANCH  11   3
ATOM      3  O   UNL     1      -6.270 -13.740  17.593  0.00  0.00    -0.388 OA
ATOM     28  H   UNL     1      -5.781 -13.667  18.430  0.00  0.00    +0.210 HD
ENDBRANCH  11   3
TORSDOF 7
ENDMDL
MODEL 5
REMARK VINA RESULT:      -5.9     12.930     15.440
REMARK  Name = 28960252
REMARK  8 active torsions:
REMARK  status: ('A' for Active; 'I' for Inactive)
REMARK    1  A    between atoms: O_3  and  C_11
REMARK    2  A    between atoms: O_4  and  C_21
REMARK    3  A    between atoms: O_4  and  C_24
REMARK    4  A    between atoms: N_7  and  C_10
REMARK    5  A    between atoms: N_8  and  C_12
REMARK    6  A    between atoms: N_9  and  C_23
REMARK    7  A    between atoms: C_20  and  C_21
REMARK    8  A    between atoms: C_23  and  C_25
REMARK                            x       y       z     vdW  Elec       q    Type
REMARK                         _______ _______ _______ _____ _____    ______ ____
ROOT
ATOM      1  O   UNL     1      10.433   5.477   6.786  0.00  0.00    -0.342 OA
ATOM      2  O   UNL     1       8.447   6.628   6.453  0.00  0.00    -0.347 OA
ATOM     10  C   UNL     1      10.072   6.561   4.663  0.00  0.00    +0.143 C 
ATOM     11  C   UNL     1      10.736   7.854   5.188  0.00  0.00    +0.159 C 
ATOM     12  C   UNL     1      11.325   7.709   6.608  0.00  0.00    +0.136 C 
ATOM     13  C   UNL     1       9.419   5.781   5.818  0.00  0.00    +0.270 C 
ATOM     14  C   UNL     1      10.542   6.716   7.492  0.00  0.00    +0.170 C 
ATOM     15  C   UNL     1       9.076   7.064   7.668  0.00  0.00    +0.196 C 
ENDROOT
BRANCH  12   8
ATOM      6  O   UNL     1      13.618   9.436   6.313  0.00  0.00    -0.253 OA
ATOM      8  N   UNL     1      12.714   7.309   6.533  0.00  0.00    -0.291 N 
ATOM      9  N   UNL     1      14.988   7.564   6.345  0.00  0.00    -0.296 N 
ATOM     22  C   UNL     1      13.759   8.216   6.390  0.00  0.00    +0.300 C 
ATOM     27  H   UNL     1      12.929   6.317   6.508  0.00  0.00    +0.151 HD
ATOM     29  H   UNL     1      15.007   6.553   6.438  0.00  0.00    +0.151 HD
BRANCH   9  23
ATOM     23  C   UNL     1      16.241   8.265   6.202  0.00  0.00    +0.132 C 
BRANCH  23  25
ATOM     25  C   UNL     1      16.597   8.337   4.754  0.00  0.00    -0.016 C 
ATOM     26  C   UNL     1      16.035   7.575   3.810  0.00  0.00    +0.005 C 
ENDBRANCH  23  25
ENDBRANCH   9  23
ENDBRANCH  12   8
BRANCH  10   7
ATOM      7  N   UNL     1      11.066   5.719   3.996  0.00  0.00    -0.293 NA
ATOM     16  C   UNL     1      10.409   4.608   3.292  0.00  0.00    +0.086 C 
ATOM     17  C   UNL     1      11.884   6.519   3.075  0.00  0.00    +0.086 C 
ATOM     18  C   UNL     1      11.438   3.686   2.634  0.00  0.00    +0.030 C 
ATOM     19  C   UNL     1      12.964   5.664   2.410  0.00  0.00    +0.030 C 
ATOM     20  C   UNL     1      12.354   4.463   1.690  0.00  0.00    +0.100 C 
BRANCH  20  21
ATOM      5  O   UNL     1      14.364   3.151   1.873  0.00  0.00    -0.251 OA
ATOM     21  C   UNL     1      13.447   3.574   1.182  0.00  0.00    +0.310 C 
BRANCH  21   4
ATOM      4  O   UNL     1      13.251   3.324  -0.144  0.00  0.00    -0.468 OA
ATOM     24  C   UNL     1      14.160   3.980  -1.034  0.00  0.00    +0.280 C 
ENDBRANCH  21   4
ENDBRANCH  20  21
ENDBRANCH  10   7
BRANCH  11   3
ATOM      3  O   UNL     1       9.738   8.883   5.205  0.00  0.00    -0.388 OA
ATOM     28  H   UNL     1       9.812   9.379   4.373  0.00  0.00    +0.210 HD
ENDBRANCH  11   3
TORSDOF 7
ENDMDL
MODEL 6
REMARK VINA RESULT:      -5.8     12.665     14.722
REMARK  Name = 28960252
REMARK  8 active torsions:
REMARK  status: ('A' for Active; 'I' for Inactive)
REMARK    1  A    between atoms: O_3  and  C_11
REMARK    2  A    between atoms: O_4  and  C_21
REMARK    3  A    between atoms: O_4  and  C_24
REMARK    4  A    between atoms: N_7  and  C_10
REMARK    5  A    between atoms: N_8  and  C_12
REMARK    6  A    between atoms: N_9  and  C_23
REMARK    7  A    between atoms: C_20  and  C_21
REMARK    8  A    between atoms: C_23  and  C_25
REMARK                            x       y       z     vdW  Elec       q    Type
REMARK                         _______ _______ _______ _____ _____    ______ ____
ROOT
ATOM      1  O   UNL     1      10.330   8.298   5.461  0.00  0.00    -0.342 OA
ATOM      2  O   UNL     1       9.468   7.947   7.586  0.00  0.00    -0.347 OA
ATOM     10  C   UNL     1      11.847   7.691   7.234  0.00  0.00    +0.143 C 
ATOM     11  C   UNL     1      11.660   6.191   6.908  0.00  0.00    +0.159 C 
ATOM     12  C   UNL     1      10.785   5.939   5.661  0.00  0.00    +0.136 C 
ATOM     13  C   UNL     1      10.585   8.488   6.860  0.00  0.00    +0.270 C 
ATOM     14  C   UNL     1       9.698   7.013   5.452  0.00  0.00    +0.170 C 
ATOM     15  C   UNL     1       8.744   7.167   6.622  0.00  0.00    +0.196 C 
ENDROOT
BRANCH  12   8
ATOM      6  O   UNL     1      10.390   4.204   3.389  0.00  0.00    -0.253 OA
ATOM      8  N   UNL     1      11.616   5.847   4.480  0.00  0.00    -0.291 N 
ATOM      9  N   UNL     1      12.304   5.093   2.423  0.00  0.00    -0.296 N 
ATOM     22  C   UNL     1      11.348   4.976   3.428  0.00  0.00    +0.300 C 
ATOM     27  H   UNL     1      12.476   6.387   4.452  0.00  0.00    +0.151 HD
ATOM     29  H   UNL     1      13.049   5.774   2.534  0.00  0.00    +0.151 HD
BRANCH   9  23
ATOM     23  C   UNL     1      12.267   4.305   1.214  0.00  0.00    +0.132 C 
BRANCH  23  25
ATOM     25  C   UNL     1      13.337   3.267   1.275  0.00  0.00    -0.016 C 
ATOM     26  C   UNL     1      14.601   3.519   1.632  0.00  0.00    +0.005 C 
ENDBRANCH  23  25
ENDBRANCH   9  23
ENDBRANCH  12   8
BRANCH  10   7
ATOM      7  N   UNL     1      13.002   8.223   6.509  0.00  0.00    -0.293 NA
ATOM     16  C   UNL     1      13.314   9.584   6.968  0.00  0.00    +0.086 C 
ATOM     17  C   UNL     1      14.161   7.334   6.663  0.00  0.00    +0.086 C 
ATOM     18  C   UNL     1      14.485  10.176   6.182  0.00  0.00    +0.030 C 
ATOM     19  C   UNL     1      15.362   7.847   5.866  0.00  0.00    +0.030 C 
ATOM     20  C   UNL     1      15.718   9.279   6.264  0.00  0.00    +0.100 C 
BRANCH  20  21
ATOM      5  O   UNL     1      16.756  10.881   4.797  0.00  0.00    -0.251 OA
ATOM     21  C   UNL     1      16.797   9.796   5.363  0.00  0.00    +0.310 C 
BRANCH  21   4
ATOM      4  O   UNL     1      17.802   8.878   5.283  0.00  0.00    -0.468 OA
ATOM     24  C   UNL     1      18.839   9.018   6.259  0.00  0.00    +0.280 C 
ENDBRANCH  21   4
ENDBRANCH  20  21
ENDBRANCH  10   7
BRANCH  11   3
ATOM      3  O   UNL     1      11.036   5.573   8.042  0.00  0.00    -0.388 OA
ATOM     28  H   UNL     1      10.753   6.281   8.644  0.00  0.00    +0.210 HD
ENDBRANCH  11   3
TORSDOF 7
ENDMDL
MODEL 7
REMARK VINA RESULT:      -5.5      2.184      2.577
REMARK  Name = 28960252
REMARK  8 active torsions:
REMARK  status: ('A' for Active; 'I' for Inactive)
REMARK    1  A    between atoms: O_3  and  C_11
REMARK    2  A    between atoms: O_4  and  C_21
REMARK    3  A    between atoms: O_4  and  C_24
REMARK    4  A    between atoms: N_7  and  C_10
REMARK    5  A    between atoms: N_8  and  C_12
REMARK    6  A    between atoms: N_9  and  C_23
REMARK    7  A    between atoms: C_20  and  C_21
REMARK    8  A    between atoms: C_23  and  C_25
REMARK                            x       y       z     vdW  Elec       q    Type
REMARK                         _______ _______ _______ _____ _____    ______ ____
ROOT
ATOM      1  O   UNL     1      13.311   6.959  19.564  0.00  0.00    -0.342 OA
ATOM      2  O   UNL     1      11.152   7.282  20.348  0.00  0.00    -0.347 OA
ATOM     10  C   UNL     1      12.300   9.131  19.292  0.00  0.00    +0.143 C 
ATOM     11  C   UNL     1      12.866   9.587  20.657  0.00  0.00    +0.159 C 
ATOM     12  C   UNL     1      13.788   8.540  21.320  0.00  0.00    +0.136 C 
ATOM     13  C   UNL     1      12.064   7.610  19.286  0.00  0.00    +0.270 C 
ATOM     14  C   UNL     1      13.395   7.086  20.987  0.00  0.00    +0.170 C 
ATOM     15  C   UNL     1      11.976   6.720  21.381  0.00  0.00    +0.196 C 
ENDROOT
BRANCH  12   8
ATOM      6  O   UNL     1      15.631  10.404  22.526  0.00  0.00    -0.253 OA
ATOM      8  N   UNL     1      15.164   8.775  20.939  0.00  0.00    -0.291 N 
ATOM      9  N   UNL     1      17.254   9.722  21.014  0.00  0.00    -0.296 N 
ATOM     22  C   UNL     1      15.983   9.699  21.580  0.00  0.00    +0.300 C 
ATOM     27  H   UNL     1      15.525   8.299  20.117  0.00  0.00    +0.151 HD
ATOM     29  H   UNL     1      17.459   9.088  20.248  0.00  0.00    +0.151 HD
BRANCH   9  23
ATOM     23  C   UNL     1      18.305  10.591  21.487  0.00  0.00    +0.132 C 
BRANCH  23  25
ATOM     25  C   UNL     1      18.849  11.371  20.337  0.00  0.00    -0.016 C 
ATOM     26  C   UNL     1      18.806  12.705  20.253  0.00  0.00    +0.005 C 
ENDBRANCH  23  25
ENDBRANCH   9  23
ENDBRANCH  12   8
BRANCH  10   7
ATOM      7  N   UNL     1      13.224   9.493  18.217  0.00  0.00    -0.293 NA
ATOM     16  C   UNL     1      12.604   9.259  16.906  0.00  0.00    +0.086 C 
ATOM     17  C   UNL     1      13.655  10.890  18.357  0.00  0.00    +0.086 C 
ATOM     18  C   UNL     1      13.577   9.580  15.769  0.00  0.00    +0.030 C 
ATOM     19  C   UNL     1      14.665  11.269  17.272  0.00  0.00    +0.030 C 
ATOM     20  C   UNL     1      14.099  11.012  15.876  0.00  0.00    +0.100 C 
BRANCH  20  21
ATOM      5  O   UNL     1      15.283  10.603  13.821  0.00  0.00    -0.251 OA
ATOM     21  C   UNL     1      15.164  11.252  14.851  0.00  0.00    +0.310 C 
BRANCH  21   4
ATOM      4  O   UNL     1      15.955  12.288  15.251  0.00  0.00    -0.468 OA
ATOM     24  C   UNL     1      15.962  13.426  14.384  0.00  0.00    +0.280 C 
ENDBRANCH  21   4
ENDBRANCH  20  21
ENDBRANCH  10   7
BRANCH  11   3
ATOM      3  O   UNL     1      11.756   9.841  21.528  0.00  0.00    -0.388 OA
ATOM     28  H   UNL     1      11.824  10.763  21.828  0.00  0.00    +0.210 HD
ENDBRANCH  11   3
TORSDOF 7
ENDMDL
MODEL 8
REMARK VINA RESULT:      -5.4     26.495     28.364
REMARK  Name = 28960252
REMARK  8 active torsions:
REMARK  status: ('A' for Active; 'I' for Inactive)
REMARK    1  A    between atoms: O_3  and  C_11
REMARK    2  A    between atoms: O_4  and  C_21
REMARK    3  A    between atoms: O_4  and  C_24
REMARK    4  A    between atoms: N_7  and  C_10
REMARK    5  A    between atoms: N_8  and  C_12
REMARK    6  A    between atoms: N_9  and  C_23
REMARK    7  A    between atoms: C_20  and  C_21
REMARK    8  A    between atoms: C_23  and  C_25
REMARK                            x       y       z     vdW  Elec       q    Type
REMARK                         _______ _______ _______ _____ _____    ______ ____
ROOT
ATOM      1  O   UNL     1      -4.370 -13.299  13.454  0.00  0.00    -0.342 OA
ATOM      2  O   UNL     1      -2.484 -14.155  14.498  0.00  0.00    -0.347 OA
ATOM     10  C   UNL     1      -3.599 -12.247  15.482  0.00  0.00    +0.143 C 
ATOM     11  C   UNL     1      -2.710 -11.280  14.666  0.00  0.00    +0.159 C 
ATOM     12  C   UNL     1      -2.888 -11.423  13.139  0.00  0.00    +0.136 C 
ATOM     13  C   UNL     1      -3.780 -13.578  14.731  0.00  0.00    +0.270 C 
ATOM     14  C   UNL     1      -3.236 -12.861  12.699  0.00  0.00    +0.170 C 
ATOM     15  C   UNL     1      -2.211 -13.901  13.112  0.00  0.00    +0.196 C 
ENDROOT
BRANCH  12   8
ATOM      6  O   UNL     1      -2.925 -10.014  10.621  0.00  0.00    -0.253 OA
ATOM      8  N   UNL     1      -3.905 -10.508  12.668  0.00  0.00    -0.291 N 
ATOM      9  N   UNL     1      -4.944  -9.047  11.233  0.00  0.00    -0.296 N 
ATOM     22  C   UNL     1      -3.839  -9.870  11.433  0.00  0.00    +0.300 C 
ATOM     27  H   UNL     1      -4.662 -10.261  13.298  0.00  0.00    +0.151 HD
ATOM     29  H   UNL     1      -5.660  -9.008  11.952  0.00  0.00    +0.151 HD
BRANCH   9  23
ATOM     23  C   UNL     1      -5.131  -8.266  10.033  0.00  0.00    +0.132 C 
BRANCH  23  25
ATOM     25  C   UNL     1      -5.848  -9.094   9.019  0.00  0.00    -0.016 C 
ATOM     26  C   UNL     1      -5.255  -9.647   7.955  0.00  0.00    +0.005 C 
ENDBRANCH  23  25
ENDBRANCH   9  23
ENDBRANCH  12   8
BRANCH  10   7
ATOM      7  N   UNL     1      -4.906 -11.639  15.735  0.00  0.00    -0.293 NA
ATOM     16  C   UNL     1      -5.663 -12.434  16.710  0.00  0.00    +0.086 C 
ATOM     17  C   UNL     1      -4.748 -10.251  16.191  0.00  0.00    +0.086 C 
ATOM     18  C   UNL     1      -7.054 -11.843  16.945  0.00  0.00    +0.030 C 
ATOM     19  C   UNL     1      -6.107  -9.583  16.407  0.00  0.00    +0.030 C 
ATOM     20  C   UNL     1      -6.968 -10.383  17.384  0.00  0.00    +0.100 C 
BRANCH  20  21
ATOM      5  O   UNL     1      -9.202 -10.135  18.245  0.00  0.00    -0.251 OA
ATOM     21  C   UNL     1      -8.337  -9.781  17.455  0.00  0.00    +0.310 C 
BRANCH  21   4
ATOM      4  O   UNL     1      -8.452  -8.799  16.515  0.00  0.00    -0.468 OA
ATOM     24  C   UNL     1      -9.638  -8.004  16.599  0.00  0.00    +0.280 C 
ENDBRANCH  21   4
ENDBRANCH  20  21
ENDBRANCH  10   7
BRANCH  11   3
ATOM      3  O   UNL     1      -1.343 -11.557  14.999  0.00  0.00    -0.388 OA
ATOM     28  H   UNL     1      -1.337 -12.316  15.606  0.00  0.00    +0.210 HD
ENDBRANCH  11   3
TORSDOF 7
ENDMDL
MODEL 9
REMARK VINA RESULT:      -5.3     21.562     23.927
REMARK  Name = 28960252
REMARK  8 active torsions:
REMARK  status: ('A' for Active; 'I' for Inactive)
REMARK    1  A    between atoms: O_3  and  C_11
REMARK    2  A    between atoms: O_4  and  C_21
REMARK    3  A    between atoms: O_4  and  C_24
REMARK    4  A    between atoms: N_7  and  C_10
REMARK    5  A    between atoms: N_8  and  C_12
REMARK    6  A    between atoms: N_9  and  C_23
REMARK    7  A    between atoms: C_20  and  C_21
REMARK    8  A    between atoms: C_23  and  C_25
REMARK                            x       y       z     vdW  Elec       q    Type
REMARK                         _______ _______ _______ _____ _____    ______ ____
ROOT
ATOM      1  O   UNL     1       7.922  -9.854  33.716  0.00  0.00    -0.342 OA
ATOM      2  O   UNL     1       8.040  -9.956  31.402  0.00  0.00    -0.347 OA
ATOM     10  C   UNL     1       7.994  -7.788  32.475  0.00  0.00    +0.143 C 
ATOM     11  C   UNL     1       6.450  -7.758  32.397  0.00  0.00    +0.159 C 
ATOM     12  C   UNL     1       5.773  -8.894  33.194  0.00  0.00    +0.136 C 
ATOM     13  C   UNL     1       8.503  -9.239  32.559  0.00  0.00    +0.270 C 
ATOM     14  C   UNL     1       6.613 -10.188  33.243  0.00  0.00    +0.170 C 
ATOM     15  C   UNL     1       6.950 -10.761  31.879  0.00  0.00    +0.196 C 
ENDROOT
BRANCH  12   8
ATOM      6  O   UNL     1       3.889 -10.073  35.035  0.00  0.00    -0.253 OA
ATOM      8  N   UNL     1       5.476  -8.452  34.539  0.00  0.00    -0.291 N 
ATOM      9  N   UNL     1       4.459  -8.455  36.597  0.00  0.00    -0.296 N 
ATOM     22  C   UNL     1       4.547  -9.085  35.359  0.00  0.00    +0.300 C 
ATOM     27  H   UNL     1       5.909  -7.596  34.872  0.00  0.00    +0.151 HD
ATOM     29  H   UNL     1       5.058  -7.656  36.783  0.00  0.00    +0.151 HD
BRANCH   9  23
ATOM     23  C   UNL     1       3.571  -8.905  37.642  0.00  0.00    +0.132 C 
BRANCH  23  25
ATOM     25  C   UNL     1       3.425  -7.823  38.660  0.00  0.00    -0.016 C 
ATOM     26  C   UNL     1       3.956  -6.602  38.530  0.00  0.00    +0.005 C 
ENDBRANCH  23  25
ENDBRANCH   9  23
ENDBRANCH  12   8
BRANCH  10   7
ATOM      7  N   UNL     1       8.454  -7.034  33.642  0.00  0.00    -0.293 NA
ATOM     16  C   UNL     1       9.902  -6.796  33.561  0.00  0.00    +0.086 C 
ATOM     17  C   UNL     1       7.716  -5.770  33.762  0.00  0.00    +0.086 C 
ATOM     18  C   UNL     1      10.410  -6.056  34.800  0.00  0.00    +0.030 C 
ATOM     19  C   UNL     1       8.147  -4.994  35.007  0.00  0.00    +0.030 C 
ATOM     20  C   UNL     1       9.654  -4.745  35.010  0.00  0.00    +0.100 C 
BRANCH  20  21
ATOM      5  O   UNL     1      11.217  -3.963  36.665  0.00  0.00    -0.251 OA
ATOM     21  C   UNL     1      10.057  -4.118  36.309  0.00  0.00    +0.310 C 
BRANCH  21   4
ATOM      4  O   UNL     1       8.941  -3.760  37.006  0.00  0.00    -0.468 OA
ATOM     24  C   UNL     1       9.138  -2.758  38.009  0.00  0.00    +0.280 C 
ENDBRANCH  21   4
ENDBRANCH  20  21
ENDBRANCH  10   7
BRANCH  11   3
ATOM      3  O   UNL     1       6.080  -7.878  31.017  0.00  0.00    -0.388 OA
ATOM     28  H   UNL     1       6.859  -8.196  30.531  0.00  0.00    +0.210 HD
ENDBRANCH  11   3
TORSDOF 7
ENDMDL
MODEL 10
REMARK VINA RESULT:      -5.3     24.912     28.490
REMARK  Name = 28960252
REMARK  8 active torsions:
REMARK  status: ('A' for Active; 'I' for Inactive)
REMARK    1  A    between atoms: O_3  and  C_11
REMARK    2  A    between atoms: O_4  and  C_21
REMARK    3  A    between atoms: O_4  and  C_24
REMARK    4  A    between atoms: N_7  and  C_10
REMARK    5  A    between atoms: N_8  and  C_12
REMARK    6  A    between atoms: N_9  and  C_23
REMARK    7  A    between atoms: C_20  and  C_21
REMARK    8  A    between atoms: C_23  and  C_25
REMARK                            x       y       z     vdW  Elec       q    Type
REMARK                         _______ _______ _______ _____ _____    ______ ____
ROOT
ATOM      1  O   UNL     1     -10.931   7.996  17.312  0.00  0.00    -0.342 OA
ATOM      2  O   UNL     1      -9.957  10.039  17.819  0.00  0.00    -0.347 OA
ATOM     10  C   UNL     1     -11.959   9.374  19.003  0.00  0.00    +0.143 C 
ATOM     11  C   UNL     1     -12.844  10.059  17.936  0.00  0.00    +0.159 C 
ATOM     12  C   UNL     1     -12.687   9.449  16.526  0.00  0.00    +0.136 C 
ATOM     13  C   UNL     1     -10.631   8.902  18.383  0.00  0.00    +0.270 C 
ATOM     14  C   UNL     1     -11.272   8.898  16.254  0.00  0.00    +0.170 C 
ATOM     15  C   UNL     1     -10.166   9.927  16.403  0.00  0.00    +0.196 C 
ENDROOT
BRANCH  12   8
ATOM      6  O   UNL     1     -14.242   8.962  14.144  0.00  0.00    -0.253 OA
ATOM      8  N   UNL     1     -13.667   8.403  16.323  0.00  0.00    -0.291 N 
ATOM      9  N   UNL     1     -15.247   7.163  15.212  0.00  0.00    -0.296 N 
ATOM     22  C   UNL     1     -14.373   8.244  15.135  0.00  0.00    +0.300 C 
ATOM     27  H   UNL     1     -13.904   7.806  17.110  0.00  0.00    +0.151 HD
ATOM     29  H   UNL     1     -15.271   6.614  16.066  0.00  0.00    +0.151 HD
BRANCH   9  23
ATOM     23  C   UNL     1     -16.104   6.771  14.118  0.00  0.00    +0.132 C 
BRANCH  23  25
ATOM     25  C   UNL     1     -17.267   6.009  14.658  0.00  0.00    -0.016 C 
ATOM     26  C   UNL     1     -17.154   4.941  15.455  0.00  0.00    +0.005 C 
ENDBRANCH  23  25
ENDBRANCH   9  23
ENDBRANCH  12   8
BRANCH  10   7
ATOM      7  N   UNL     1     -12.666   8.234  19.588  0.00  0.00    -0.293 NA
ATOM     16  C   UNL     1     -11.864   7.625  20.658  0.00  0.00    +0.086 C 
ATOM     17  C   UNL     1     -13.985   8.646  20.084  0.00  0.00    +0.086 C 
ATOM     18  C   UNL     1     -12.564   6.398  21.243  0.00  0.00    +0.030 C 
ATOM     19  C   UNL     1     -14.761   7.455  20.650  0.00  0.00    +0.030 C 
ATOM     20  C   UNL     1     -13.964   6.746  21.745  0.00  0.00    +0.100 C 
BRANCH  20  21
ATOM      5  O   UNL     1     -15.073   4.639  21.391  0.00  0.00    -0.251 OA
ATOM     21  C   UNL     1     -14.687   5.504  22.166  0.00  0.00    +0.310 C 
BRANCH  21   4
ATOM      4  O   UNL     1     -14.837   5.503  23.522  0.00  0.00    -0.468 OA
ATOM     24  C   UNL     1     -15.161   4.236  24.102  0.00  0.00    +0.280 C 
ENDBRANCH  21   4
ENDBRANCH  20  21
ENDBRANCH  10   7
BRANCH  11   3
ATOM      3  O   UNL     1     -12.473  11.443  17.883  0.00  0.00    -0.388 OA
ATOM     28  H   UNL     1     -11.714  11.521  17.281  0.00  0.00    +0.210 HD
ENDBRANCH  11   3
TORSDOF 7
ENDMDL
