MODEL 1
REMARK VINA RESULT:      -6.5      0.000      0.000
REMARK  Name = 26742406
REMARK  7 active torsions:
REMARK  status: ('A' for Active; 'I' for Inactive)
REMARK    1  A    between atoms: S_1  and  N_6
REMARK    2  A    between atoms: S_1  and  C_21
REMARK    3  A    between atoms: N_6  and  C_16
REMARK    4  A    between atoms: C_10  and  C_17
REMARK    5  A    between atoms: C_11  and  C_16
REMARK    6  A    between atoms: C_19  and  C_22
REMARK    7  A    between atoms: C_20  and  C_23
REMARK                            x       y       z     vdW  Elec       q    Type
REMARK                         _______ _______ _______ _____ _____    ______ ____
ROOT
ATOM      5  N   UNL     1     -18.621   2.978  26.482  0.00  0.00    -0.297 NA
ATOM      9  C   UNL     1     -17.228   0.780  26.593  0.00  0.00    +0.002 C 
ATOM     10  C   UNL     1     -17.478   1.340  28.022  0.00  0.00    +0.055 C 
ATOM     11  C   UNL     1     -17.472   3.057  25.541  0.00  0.00    +0.072 C 
ATOM     12  C   UNL     1     -16.521   1.856  25.742  0.00  0.00    +0.024 C 
ATOM     13  C   UNL     1     -18.615   0.540  25.962  0.00  0.00    +0.019 C 
ATOM     14  C   UNL     1     -18.131   2.742  27.863  0.00  0.00    +0.094 C 
ATOM     15  C   UNL     1     -19.457   1.822  26.083  0.00  0.00    +0.085 C 
ENDROOT
BRANCH  10  17
ATOM      7  N   UNL     1     -15.433   0.334  28.914  0.00  0.00    -0.237 NA
ATOM      8  N   UNL     1     -14.205   1.324  30.735  0.00  0.00    -0.232 NA
ATOM     17  C   UNL     1     -16.314   1.353  29.002  0.00  0.00    +0.050 A 
ATOM     18  C   UNL     1     -16.208   2.380  29.919  0.00  0.00    +0.052 A 
ATOM     19  C   UNL     1     -15.123   2.312  30.769  0.00  0.00    +0.081 A 
ATOM     20  C   UNL     1     -14.419   0.382  29.797  0.00  0.00    +0.127 A 
ATOM     23  C   UNL     1     -13.423  -0.727  29.729  0.00  0.00    +0.088 C 
BRANCH  19  22
ATOM      2  S   UNL     1     -16.186   3.774  32.799  0.00  0.00    -0.095 S 
ATOM     22  C   UNL     1     -14.893   3.316  31.773  0.00  0.00    +0.038 A 
ATOM     24  C   UNL     1     -13.736   4.009  32.058  0.00  0.00    +0.017 A 
ATOM     25  C   UNL     1     -13.914   4.928  33.134  0.00  0.00    +0.008 A 
ATOM     26  C   UNL     1     -15.200   4.901  33.629  0.00  0.00    +0.046 A 
ENDBRANCH  19  22
ENDBRANCH  10  17
BRANCH  11  16
ATOM     16  C   UNL     1     -16.731   4.392  25.634  0.00  0.00    +0.124 C 
BRANCH  16   6
ATOM      6  N   UNL     1     -15.380   4.236  25.072  0.00  0.00    -0.193 NA
ATOM     27  H   UNL     1     -14.887   3.398  25.413  0.00  0.00    +0.148 HD
BRANCH   6   1
ATOM      1  S   UNL     1     -15.098   4.668  23.444  0.00  0.00    +0.027 S 
ATOM      3  O   UNL     1     -15.753   3.721  22.564  0.00  0.00    -0.158 OA
ATOM      4  O   UNL     1     -13.690   4.977  23.287  0.00  0.00    -0.158 OA
ATOM     21  C   UNL     1     -15.991   6.204  23.356  0.00  0.00    +0.214 C 
ENDBRANCH   6   1
ENDBRANCH  16   6
ENDBRANCH  11  16
TORSDOF 5
ENDMDL
MODEL 2
REMARK VINA RESULT:      -6.3     19.904     22.367
REMARK  Name = 26742406
REMARK  7 active torsions:
REMARK  status: ('A' for Active; 'I' for Inactive)
REMARK    1  A    between atoms: S_1  and  N_6
REMARK    2  A    between atoms: S_1  and  C_21
REMARK    3  A    between atoms: N_6  and  C_16
REMARK    4  A    between atoms: C_10  and  C_17
REMARK    5  A    between atoms: C_11  and  C_16
REMARK    6  A    between atoms: C_19  and  C_22
REMARK    7  A    between atoms: C_20  and  C_23
REMARK                            x       y       z     vdW  Elec       q    Type
REMARK                         _______ _______ _______ _____ _____    ______ ____
ROOT
ATOM      5  N   UNL     1      -5.988 -10.105  17.584  0.00  0.00    -0.297 NA
ATOM      9  C   UNL     1      -5.055 -12.480  17.064  0.00  0.00    +0.002 C 
ATOM     10  C   UNL     1      -4.110 -11.386  16.492  0.00  0.00    +0.055 C 
ATOM     11  C   UNL     1      -7.055 -10.949  16.984  0.00  0.00    +0.072 C 
ATOM     12  C   UNL     1      -6.470 -12.287  16.480  0.00  0.00    +0.024 C 
ATOM     13  C   UNL     1      -5.153 -12.231  18.584  0.00  0.00    +0.019 C 
ATOM     14  C   UNL     1      -4.829 -10.018  16.661  0.00  0.00    +0.094 C 
ATOM     15  C   UNL     1      -5.538 -10.762  18.834  0.00  0.00    +0.085 C 
ENDROOT
BRANCH  10  17
ATOM      7  N   UNL     1      -2.695 -12.601  14.907  0.00  0.00    -0.237 NA
ATOM      8  N   UNL     1      -2.534 -11.971  12.587  0.00  0.00    -0.232 NA
ATOM     17  C   UNL     1      -3.558 -11.579  15.087  0.00  0.00    +0.050 A 
ATOM     18  C   UNL     1      -3.951 -10.721  14.079  0.00  0.00    +0.052 A 
ATOM     19  C   UNL     1      -3.400 -10.967  12.837  0.00  0.00    +0.081 A 
ATOM     20  C   UNL     1      -2.229 -12.736  13.651  0.00  0.00    +0.127 A 
ATOM     23  C   UNL     1      -1.274 -13.858  13.414  0.00  0.00    +0.088 C 
BRANCH  19  22
ATOM      2  S   UNL     1      -5.290  -9.469  11.585  0.00  0.00    -0.095 S 
ATOM     22  C   UNL     1      -3.723 -10.150  11.699  0.00  0.00    +0.038 A 
ATOM     24  C   UNL     1      -2.932  -9.808  10.623  0.00  0.00    +0.017 A 
ATOM     25  C   UNL     1      -3.622  -8.976   9.694  0.00  0.00    +0.008 A 
ATOM     26  C   UNL     1      -4.913  -8.713  10.095  0.00  0.00    +0.046 A 
ENDBRANCH  19  22
ENDBRANCH  10  17
BRANCH  11  16
ATOM     16  C   UNL     1      -7.830 -10.217  15.887  0.00  0.00    +0.124 C 
BRANCH  16   6
ATOM      6  N   UNL     1      -8.130  -8.848  16.337  0.00  0.00    -0.193 NA
ATOM     27  H   UNL     1      -7.492  -8.140  15.948  0.00  0.00    +0.148 HD
BRANCH   6   1
ATOM      1  S   UNL     1      -9.758  -8.371  16.534  0.00  0.00    +0.027 S 
ATOM      3  O   UNL     1      -9.947  -7.038  15.996  0.00  0.00    -0.158 OA
ATOM      4  O   UNL     1     -10.171  -8.692  17.887  0.00  0.00    -0.158 OA
ATOM     21  C   UNL     1     -10.568  -9.520  15.445  0.00  0.00    +0.214 C 
ENDBRANCH   6   1
ENDBRANCH  16   6
ENDBRANCH  11  16
TORSDOF 5
ENDMDL
MODEL 3
REMARK VINA RESULT:      -6.3     20.477     23.012
REMARK  Name = 26742406
REMARK  7 active torsions:
REMARK  status: ('A' for Active; 'I' for Inactive)
REMARK    1  A    between atoms: S_1  and  N_6
REMARK    2  A    between atoms: S_1  and  C_21
REMARK    3  A    between atoms: N_6  and  C_16
REMARK    4  A    between atoms: C_10  and  C_17
REMARK    5  A    between atoms: C_11  and  C_16
REMARK    6  A    between atoms: C_19  and  C_22
REMARK    7  A    between atoms: C_20  and  C_23
REMARK                            x       y       z     vdW  Elec       q    Type
REMARK                         _______ _______ _______ _____ _____    ______ ____
ROOT
ATOM      5  N   UNL     1      -7.599 -11.679  17.747  0.00  0.00    -0.297 NA
ATOM      9  C   UNL     1      -5.206 -10.955  18.479  0.00  0.00    +0.002 C 
ATOM     10  C   UNL     1      -5.538 -10.392  17.068  0.00  0.00    +0.055 C 
ATOM     11  C   UNL     1      -6.833 -12.862  18.220  0.00  0.00    +0.072 C 
ATOM     12  C   UNL     1      -5.353 -12.491  18.461  0.00  0.00    +0.024 C 
ATOM     13  C   UNL     1      -6.282 -10.407  19.440  0.00  0.00    +0.019 C 
ATOM     14  C   UNL     1      -6.885 -11.029  16.620  0.00  0.00    +0.094 C 
ATOM     15  C   UNL     1      -7.677 -10.711  18.867  0.00  0.00    +0.085 C 
ENDROOT
BRANCH  10  17
ATOM      7  N   UNL     1      -3.186 -10.521  16.405  0.00  0.00    -0.237 NA
ATOM      8  N   UNL     1      -2.509 -10.647  14.096  0.00  0.00    -0.232 NA
ATOM     17  C   UNL     1      -4.469 -10.484  15.989  0.00  0.00    +0.050 A 
ATOM     18  C   UNL     1      -4.846 -10.524  14.661  0.00  0.00    +0.052 A 
ATOM     19  C   UNL     1      -3.812 -10.605  13.750  0.00  0.00    +0.081 A 
ATOM     20  C   UNL     1      -2.272 -10.601  15.420  0.00  0.00    +0.127 A 
ATOM     23  C   UNL     1      -0.841 -10.646  15.843  0.00  0.00    +0.088 C 
BRANCH  19  22
ATOM      2  S   UNL     1      -5.454 -11.474  11.767  0.00  0.00    -0.095 S 
ATOM     22  C   UNL     1      -4.062 -10.653  12.334  0.00  0.00    +0.038 A 
ATOM     24  C   UNL     1      -3.322 -10.118  11.303  0.00  0.00    +0.017 A 
ATOM     25  C   UNL     1      -3.905 -10.384  10.030  0.00  0.00    +0.008 A 
ATOM     26  C   UNL     1      -5.070 -11.113  10.137  0.00  0.00    +0.046 A 
ENDBRANCH  19  22
ENDBRANCH  10  17
BRANCH  11  16
ATOM     16  C   UNL     1      -6.974 -14.062  17.282  0.00  0.00    +0.124 C 
BRANCH  16   6
ATOM      6  N   UNL     1      -5.635 -14.521  16.878  0.00  0.00    -0.193 NA
ATOM     27  H   UNL     1      -5.318 -15.360  17.385  0.00  0.00    +0.148 HD
BRANCH   6   1
ATOM      1  S   UNL     1      -5.173 -14.410  15.238  0.00  0.00    +0.027 S 
ATOM      3  O   UNL     1      -3.817 -13.908  15.143  0.00  0.00    -0.158 OA
ATOM      4  O   UNL     1      -6.251 -13.782  14.498  0.00  0.00    -0.158 OA
ATOM     21  C   UNL     1      -5.152 -16.131  14.788  0.00  0.00    +0.214 C 
ENDBRANCH   6   1
ENDBRANCH  16   6
ENDBRANCH  11  16
TORSDOF 5
ENDMDL
MODEL 4
REMARK VINA RESULT:      -6.1     21.042     22.878
REMARK  Name = 26742406
REMARK  7 active torsions:
REMARK  status: ('A' for Active; 'I' for Inactive)
REMARK    1  A    between atoms: S_1  and  N_6
REMARK    2  A    between atoms: S_1  and  C_21
REMARK    3  A    between atoms: N_6  and  C_16
REMARK    4  A    between atoms: C_10  and  C_17
REMARK    5  A    between atoms: C_11  and  C_16
REMARK    6  A    between atoms: C_19  and  C_22
REMARK    7  A    between atoms: C_20  and  C_23
REMARK                            x       y       z     vdW  Elec       q    Type
REMARK                         _______ _______ _______ _____ _____    ______ ____
ROOT
ATOM      5  N   UNL     1      -5.644 -11.143  10.579  0.00  0.00    -0.297 NA
ATOM      9  C   UNL     1      -3.207 -11.631  11.358  0.00  0.00    +0.002 C 
ATOM     10  C   UNL     1      -4.210 -11.877  12.521  0.00  0.00    +0.055 C 
ATOM     11  C   UNL     1      -4.758 -10.005  10.219  0.00  0.00    +0.072 C 
ATOM     12  C   UNL     1      -3.360 -10.182  10.852  0.00  0.00    +0.024 C 
ATOM     13  C   UNL     1      -3.629 -12.563  10.203  0.00  0.00    +0.019 C 
ATOM     14  C   UNL     1      -5.603 -11.375  12.045  0.00  0.00    +0.094 C 
ATOM     15  C   UNL     1      -5.124 -12.356   9.904  0.00  0.00    +0.085 C 
ENDROOT
BRANCH  10  17
ATOM      7  N   UNL     1      -2.553 -11.046  14.117  0.00  0.00    -0.237 NA
ATOM      8  N   UNL     1      -3.143 -10.412  16.366  0.00  0.00    -0.232 NA
ATOM     17  C   UNL     1      -3.849 -11.354  13.903  0.00  0.00    +0.050 A 
ATOM     18  C   UNL     1      -4.837 -11.221  14.859  0.00  0.00    +0.052 A 
ATOM     19  C   UNL     1      -4.421 -10.741  16.084  0.00  0.00    +0.081 A 
ATOM     20  C   UNL     1      -2.275 -10.587  15.352  0.00  0.00    +0.127 A 
ATOM     23  C   UNL     1      -0.851 -10.233  15.625  0.00  0.00    +0.088 C 
BRANCH  19  22
ATOM      2  S   UNL     1      -6.895  -9.907  16.835  0.00  0.00    -0.095 S 
ATOM     22  C   UNL     1      -5.345 -10.554  17.170  0.00  0.00    +0.038 A 
ATOM     24  C   UNL     1      -5.177 -10.824  18.511  0.00  0.00    +0.017 A 
ATOM     25  C   UNL     1      -6.336 -10.496  19.273  0.00  0.00    +0.008 A 
ATOM     26  C   UNL     1      -7.346  -9.988  18.485  0.00  0.00    +0.046 A 
ENDBRANCH  19  22
ENDBRANCH  10  17
BRANCH  11  16
ATOM     16  C   UNL     1      -5.376  -8.651  10.570  0.00  0.00    +0.124 C 
BRANCH  16   6
ATOM      6  N   UNL     1      -5.704  -7.931   9.329  0.00  0.00    -0.193 NA
ATOM     27  H   UNL     1      -4.903  -7.825   8.691  0.00  0.00    +0.148 HD
BRANCH   6   1
ATOM      1  S   UNL     1      -7.225  -8.183   8.595  0.00  0.00    +0.027 S 
ATOM      3  O   UNL     1      -7.149  -9.303   7.678  0.00  0.00    -0.158 OA
ATOM      4  O   UNL     1      -7.745  -6.901   8.160  0.00  0.00    -0.158 OA
ATOM     21  C   UNL     1      -8.185  -8.695  10.003  0.00  0.00    +0.214 C 
ENDBRANCH   6   1
ENDBRANCH  16   6
ENDBRANCH  11  16
TORSDOF 5
ENDMDL
MODEL 5
REMARK VINA RESULT:      -5.9     19.644     21.617
REMARK  Name = 26742406
REMARK  7 active torsions:
REMARK  status: ('A' for Active; 'I' for Inactive)
REMARK    1  A    between atoms: S_1  and  N_6
REMARK    2  A    between atoms: S_1  and  C_21
REMARK    3  A    between atoms: N_6  and  C_16
REMARK    4  A    between atoms: C_10  and  C_17
REMARK    5  A    between atoms: C_11  and  C_16
REMARK    6  A    between atoms: C_19  and  C_22
REMARK    7  A    between atoms: C_20  and  C_23
REMARK                            x       y       z     vdW  Elec       q    Type
REMARK                         _______ _______ _______ _____ _____    ______ ____
ROOT
ATOM      5  N   UNL     1      -7.163 -11.256  11.481  0.00  0.00    -0.297 NA
ATOM      9  C   UNL     1      -5.146  -9.647  11.840  0.00  0.00    +0.002 C 
ATOM     10  C   UNL     1      -4.899 -11.000  12.565  0.00  0.00    +0.055 C 
ATOM     11  C   UNL     1      -7.648  -9.927  11.936  0.00  0.00    +0.072 C 
ATOM     12  C   UNL     1      -6.463  -9.028  12.352  0.00  0.00    +0.024 C 
ATOM     13  C   UNL     1      -5.349  -9.975  10.345  0.00  0.00    +0.019 C 
ATOM     14  C   UNL     1      -6.218 -11.821  12.477  0.00  0.00    +0.094 C 
ATOM     15  C   UNL     1      -6.431 -11.060  10.207  0.00  0.00    +0.085 C 
ENDROOT
BRANCH  10  17
ATOM      7  N   UNL     1      -3.021 -10.683  14.101  0.00  0.00    -0.237 NA
ATOM      8  N   UNL     1      -3.267 -10.889  16.489  0.00  0.00    -0.232 NA
ATOM     17  C   UNL     1      -4.335 -10.965  13.978  0.00  0.00    +0.050 A 
ATOM     18  C   UNL     1      -5.168 -11.217  15.049  0.00  0.00    +0.052 A 
ATOM     19  C   UNL     1      -4.573 -11.166  16.293  0.00  0.00    +0.081 A 
ATOM     20  C   UNL     1      -2.561 -10.662  15.366  0.00  0.00    +0.127 A 
ATOM     23  C   UNL     1      -1.112 -10.352  15.542  0.00  0.00    +0.088 C 
BRANCH  19  22
ATOM      2  S   UNL     1      -6.498 -12.657  17.499  0.00  0.00    -0.095 S 
ATOM     22  C   UNL     1      -5.325 -11.410  17.495  0.00  0.00    +0.038 A 
ATOM     24  C   UNL     1      -5.252 -10.765  18.711  0.00  0.00    +0.017 A 
ATOM     25  C   UNL     1      -6.170 -11.303  19.659  0.00  0.00    +0.008 A 
ATOM     26  C   UNL     1      -6.910 -12.339  19.131  0.00  0.00    +0.046 A 
ENDBRANCH  19  22
ENDBRANCH  10  17
BRANCH  11  16
ATOM     16  C   UNL     1      -8.696 -10.037  13.046  0.00  0.00    +0.124 C 
BRANCH  16   6
ATOM      6  N   UNL     1      -8.310  -9.163  14.165  0.00  0.00    -0.193 NA
ATOM     27  H   UNL     1      -7.875  -8.279  13.866  0.00  0.00    +0.148 HD
BRANCH   6   1
ATOM      1  S   UNL     1      -9.312  -9.082  15.545  0.00  0.00    +0.027 S 
ATOM      3  O   UNL     1     -10.138 -10.271  15.623  0.00  0.00    -0.158 OA
ATOM      4  O   UNL     1      -9.905  -7.760  15.607  0.00  0.00    -0.158 OA
ATOM     21  C   UNL     1      -8.094  -9.178  16.839  0.00  0.00    +0.214 C 
ENDBRANCH   6   1
ENDBRANCH  16   6
ENDBRANCH  11  16
TORSDOF 5
ENDMDL
MODEL 6
REMARK VINA RESULT:      -5.9     34.659     38.216
REMARK  Name = 26742406
REMARK  7 active torsions:
REMARK  status: ('A' for Active; 'I' for Inactive)
REMARK    1  A    between atoms: S_1  and  N_6
REMARK    2  A    between atoms: S_1  and  C_21
REMARK    3  A    between atoms: N_6  and  C_16
REMARK    4  A    between atoms: C_10  and  C_17
REMARK    5  A    between atoms: C_11  and  C_16
REMARK    6  A    between atoms: C_19  and  C_22
REMARK    7  A    between atoms: C_20  and  C_23
REMARK                            x       y       z     vdW  Elec       q    Type
REMARK                         _______ _______ _______ _____ _____    ______ ____
ROOT
ATOM      5  N   UNL     1      10.059   5.803   5.838  0.00  0.00    -0.297 NA
ATOM      9  C   UNL     1       9.626   7.006   3.569  0.00  0.00    +0.002 C 
ATOM     10  C   UNL     1       9.912   5.496   3.338  0.00  0.00    +0.055 C 
ATOM     11  C   UNL     1      10.896   7.027   5.745  0.00  0.00    +0.072 C 
ATOM     12  C   UNL     1      10.810   7.639   4.329  0.00  0.00    +0.024 C 
ATOM     13  C   UNL     1       8.395   7.088   4.497  0.00  0.00    +0.019 C 
ATOM     14  C   UNL     1      10.357   4.895   4.702  0.00  0.00    +0.094 C 
ATOM     15  C   UNL     1       8.638   6.215   5.741  0.00  0.00    +0.085 C 
ENDROOT
BRANCH  10  17
ATOM      7  N   UNL     1      12.170   5.091   2.485  0.00  0.00    -0.237 NA
ATOM      8  N   UNL     1      12.579   4.422   0.207  0.00  0.00    -0.232 NA
ATOM     17  C   UNL     1      10.850   5.109   2.204  0.00  0.00    +0.050 A 
ATOM     18  C   UNL     1      10.326   4.800   0.964  0.00  0.00    +0.052 A 
ATOM     19  C   UNL     1      11.247   4.461  -0.006  0.00  0.00    +0.081 A 
ATOM     20  C   UNL     1      12.965   4.744   1.455  0.00  0.00    +0.127 A 
ATOM     23  C   UNL     1      14.431   4.712   1.729  0.00  0.00    +0.088 C 
BRANCH  19  22
ATOM      2  S   UNL     1       9.708   5.122  -2.145  0.00  0.00    -0.095 S 
ATOM     22  C   UNL     1      10.839   4.118  -1.341  0.00  0.00    +0.038 A 
ATOM     24  C   UNL     1      11.230   3.052  -2.122  0.00  0.00    +0.017 A 
ATOM     25  C   UNL     1      10.594   3.059  -3.397  0.00  0.00    +0.008 A 
ATOM     26  C   UNL     1       9.740   4.132  -3.543  0.00  0.00    +0.046 A 
ENDBRANCH  19  22
ENDBRANCH  10  17
BRANCH  11  16
ATOM     16  C   UNL     1      12.345   6.777   6.169  0.00  0.00    +0.124 C 
BRANCH  16   6
ATOM      6  N   UNL     1      13.221   6.886   4.992  0.00  0.00    -0.193 NA
ATOM     27  H   UNL     1      12.719   7.140   4.129  0.00  0.00    +0.148 HD
BRANCH   6   1
ATOM      1  S   UNL     1      14.788   7.538   5.174  0.00  0.00    +0.027 S 
ATOM      3  O   UNL     1      15.684   6.943   4.201  0.00  0.00    -0.158 OA
ATOM      4  O   UNL     1      15.124   7.544   6.585  0.00  0.00    -0.158 OA
ATOM     21  C   UNL     1      14.498   9.225   4.690  0.00  0.00    +0.214 C 
ENDBRANCH   6   1
ENDBRANCH  16   6
ENDBRANCH  11  16
TORSDOF 5
ENDMDL
MODEL 7
REMARK VINA RESULT:      -5.8      5.096      7.986
REMARK  Name = 26742406
REMARK  7 active torsions:
REMARK  status: ('A' for Active; 'I' for Inactive)
REMARK    1  A    between atoms: S_1  and  N_6
REMARK    2  A    between atoms: S_1  and  C_21
REMARK    3  A    between atoms: N_6  and  C_16
REMARK    4  A    between atoms: C_10  and  C_17
REMARK    5  A    between atoms: C_11  and  C_16
REMARK    6  A    between atoms: C_19  and  C_22
REMARK    7  A    between atoms: C_20  and  C_23
REMARK                            x       y       z     vdW  Elec       q    Type
REMARK                         _______ _______ _______ _____ _____    ______ ____
ROOT
ATOM      5  N   UNL     1     -15.772   4.512  31.607  0.00  0.00    -0.297 NA
ATOM      9  C   UNL     1     -15.195   5.282  34.027  0.00  0.00    +0.002 C 
ATOM     10  C   UNL     1     -15.106   6.480  33.039  0.00  0.00    +0.055 C 
ATOM     11  C   UNL     1     -14.758   3.602  32.201  0.00  0.00    +0.072 C 
ATOM     12  C   UNL     1     -14.251   4.158  33.550  0.00  0.00    +0.024 C 
ATOM     13  C   UNL     1     -16.635   4.736  33.936  0.00  0.00    +0.019 C 
ATOM     14  C   UNL     1     -15.262   5.906  31.602  0.00  0.00    +0.094 C 
ATOM     15  C   UNL     1     -16.982   4.465  32.462  0.00  0.00    +0.085 C 
ENDROOT
BRANCH  10  17
ATOM      7  N   UNL     1     -13.475   7.991  32.017  0.00  0.00    -0.237 NA
ATOM      8  N   UNL     1     -11.788   9.123  33.311  0.00  0.00    -0.232 NA
ATOM     17  C   UNL     1     -13.918   7.423  33.159  0.00  0.00    +0.050 A 
ATOM     18  C   UNL     1     -13.355   7.653  34.397  0.00  0.00    +0.052 A 
ATOM     19  C   UNL     1     -12.281   8.520  34.413  0.00  0.00    +0.081 A 
ATOM     20  C   UNL     1     -12.423   8.817  32.165  0.00  0.00    +0.127 A 
ATOM     23  C   UNL     1     -11.907   9.465  30.924  0.00  0.00    +0.088 C 
BRANCH  19  22
ATOM      2  S   UNL     1     -11.747   7.791  36.976  0.00  0.00    -0.095 S 
ATOM     22  C   UNL     1     -11.599   8.848  35.637  0.00  0.00    +0.038 A 
ATOM     24  C   UNL     1     -10.804   9.936  35.923  0.00  0.00    +0.017 A 
ATOM     25  C   UNL     1     -10.308   9.901  37.259  0.00  0.00    +0.008 A 
ATOM     26  C   UNL     1     -10.744   8.787  37.943  0.00  0.00    +0.046 A 
ENDBRANCH  19  22
ENDBRANCH  10  17
BRANCH  11  16
ATOM     16  C   UNL     1     -13.607   3.304  31.240  0.00  0.00    +0.124 C 
BRANCH  16   6
ATOM      6  N   UNL     1     -13.318   1.861  31.263  0.00  0.00    -0.193 NA
ATOM     27  H   UNL     1     -12.804   1.558  32.102  0.00  0.00    +0.148 HD
BRANCH   6   1
ATOM      1  S   UNL     1     -14.478   0.767  30.651  0.00  0.00    +0.027 S 
ATOM      3  O   UNL     1     -15.292   1.424  29.648  0.00  0.00    -0.158 OA
ATOM      4  O   UNL     1     -15.090   0.073  31.767  0.00  0.00    -0.158 OA
ATOM     21  C   UNL     1     -13.421  -0.397  29.818  0.00  0.00    +0.214 C 
ENDBRANCH   6   1
ENDBRANCH  16   6
ENDBRANCH  11  16
TORSDOF 5
ENDMDL
MODEL 8
REMARK VINA RESULT:      -5.8     29.711     31.495
REMARK  Name = 26742406
REMARK  7 active torsions:
REMARK  status: ('A' for Active; 'I' for Inactive)
REMARK    1  A    between atoms: S_1  and  N_6
REMARK    2  A    between atoms: S_1  and  C_21
REMARK    3  A    between atoms: N_6  and  C_16
REMARK    4  A    between atoms: C_10  and  C_17
REMARK    5  A    between atoms: C_11  and  C_16
REMARK    6  A    between atoms: C_19  and  C_22
REMARK    7  A    between atoms: C_20  and  C_23
REMARK                            x       y       z     vdW  Elec       q    Type
REMARK                         _______ _______ _______ _____ _____    ______ ____
ROOT
ATOM      5  N   UNL     1      15.463  10.804  19.137  0.00  0.00    -0.297 NA
ATOM      9  C   UNL     1      13.282   9.429  18.770  0.00  0.00    +0.002 C 
ATOM     10  C   UNL     1      12.998  10.674  19.657  0.00  0.00    +0.055 C 
ATOM     11  C   UNL     1      15.710   9.369  19.439  0.00  0.00    +0.072 C 
ATOM     12  C   UNL     1      14.385   8.575  19.429  0.00  0.00    +0.024 C 
ATOM     13  C   UNL     1      13.850   9.954  17.435  0.00  0.00    +0.019 C 
ATOM     14  C   UNL     1      14.370  11.324  19.996  0.00  0.00    +0.094 C 
ATOM     15  C   UNL     1      15.028  10.901  17.723  0.00  0.00    +0.085 C 
ENDROOT
BRANCH  10  17
ATOM      7  N   UNL     1      11.565   9.278  21.066  0.00  0.00    -0.237 NA
ATOM      8  N   UNL     1      10.547  10.111  23.084  0.00  0.00    -0.232 NA
ATOM     17  C   UNL     1      12.125  10.493  20.890  0.00  0.00    +0.050 A 
ATOM     18  C   UNL     1      11.944  11.553  21.756  0.00  0.00    +0.052 A 
ATOM     19  C   UNL     1      11.136  11.301  22.846  0.00  0.00    +0.081 A 
ATOM     20  C   UNL     1      10.800   9.159  22.167  0.00  0.00    +0.127 A 
ATOM     23  C   UNL     1      10.166   7.828  22.396  0.00  0.00    +0.088 C 
BRANCH  19  22
ATOM      2  S   UNL     1      10.363  13.867  23.297  0.00  0.00    -0.095 S 
ATOM     22  C   UNL     1      10.862  12.317  23.827  0.00  0.00    +0.038 A 
ATOM     24  C   UNL     1      10.942  12.242  25.201  0.00  0.00    +0.017 A 
ATOM     25  C   UNL     1      10.588  13.472  25.827  0.00  0.00    +0.008 A 
ATOM     26  C   UNL     1      10.251  14.442  24.907  0.00  0.00    +0.046 A 
ENDBRANCH  19  22
ENDBRANCH  10  17
BRANCH  11  16
ATOM     16  C   UNL     1      16.482   9.173  20.745  0.00  0.00    +0.124 C 
BRANCH  16   6
ATOM      6  N   UNL     1      17.654   8.319  20.492  0.00  0.00    -0.193 NA
ATOM     27  H   UNL     1      18.521   8.674  20.920  0.00  0.00    +0.148 HD
BRANCH   6   1
ATOM      1  S   UNL     1      17.462   6.623  20.469  0.00  0.00    +0.027 S 
ATOM      3  O   UNL     1      17.060   6.192  19.144  0.00  0.00    -0.158 OA
ATOM      4  O   UNL     1      16.702   6.229  21.639  0.00  0.00    -0.158 OA
ATOM     21  C   UNL     1      19.143   6.101  20.726  0.00  0.00    +0.214 C 
ENDBRANCH   6   1
ENDBRANCH  16   6
ENDBRANCH  11  16
TORSDOF 5
ENDMDL
MODEL 9
REMARK VINA RESULT:      -5.7     17.737     20.019
REMARK  Name = 26742406
REMARK  7 active torsions:
REMARK  status: ('A' for Active; 'I' for Inactive)
REMARK    1  A    between atoms: S_1  and  N_6
REMARK    2  A    between atoms: S_1  and  C_21
REMARK    3  A    between atoms: N_6  and  C_16
REMARK    4  A    between atoms: C_10  and  C_17
REMARK    5  A    between atoms: C_11  and  C_16
REMARK    6  A    between atoms: C_19  and  C_22
REMARK    7  A    between atoms: C_20  and  C_23
REMARK                            x       y       z     vdW  Elec       q    Type
REMARK                         _______ _______ _______ _____ _____    ______ ____
ROOT
ATOM      5  N   UNL     1     -10.686  -9.814  15.680  0.00  0.00    -0.297 NA
ATOM      9  C   UNL     1      -9.369  -8.405  17.430  0.00  0.00    +0.002 C 
ATOM     10  C   UNL     1      -8.394  -9.044  16.402  0.00  0.00    +0.055 C 
ATOM     11  C   UNL     1     -11.109 -10.188  17.055  0.00  0.00    +0.072 C 
ATOM     12  C   UNL     1     -10.198  -9.517  18.106  0.00  0.00    +0.024 C 
ATOM     13  C   UNL     1     -10.353  -7.531  16.625  0.00  0.00    +0.019 C 
ATOM     14  C   UNL     1      -9.225 -10.023  15.523  0.00  0.00    +0.094 C 
ATOM     15  C   UNL     1     -10.970  -8.371  15.493  0.00  0.00    +0.085 C 
ENDROOT
BRANCH  10  17
ATOM      7  N   UNL     1      -7.124 -10.096  18.210  0.00  0.00    -0.237 NA
ATOM      8  N   UNL     1      -4.848 -10.832  17.919  0.00  0.00    -0.232 NA
ATOM     17  C   UNL     1      -7.115  -9.682  16.925  0.00  0.00    +0.050 A 
ATOM     18  C   UNL     1      -6.026  -9.808  16.087  0.00  0.00    +0.052 A 
ATOM     19  C   UNL     1      -4.908 -10.395  16.644  0.00  0.00    +0.081 A 
ATOM     20  C   UNL     1      -5.974 -10.653  18.634  0.00  0.00    +0.127 A 
ATOM     23  C   UNL     1      -5.947 -11.124  20.050  0.00  0.00    +0.088 C 
BRANCH  19  22
ATOM      2  S   UNL     1      -3.819 -10.797  14.187  0.00  0.00    -0.095 S 
ATOM     22  C   UNL     1      -3.703 -10.587  15.883  0.00  0.00    +0.038 A 
ATOM     24  C   UNL     1      -2.397 -10.634  16.321  0.00  0.00    +0.017 A 
ATOM     25  C   UNL     1      -1.480 -10.844  15.250  0.00  0.00    +0.008 A 
ATOM     26  C   UNL     1      -2.120 -10.950  14.034  0.00  0.00    +0.046 A 
ENDBRANCH  19  22
ENDBRANCH  10  17
BRANCH  11  16
ATOM     16  C   UNL     1     -11.184 -11.703  17.250  0.00  0.00    +0.124 C 
BRANCH  16   6
ATOM      6  N   UNL     1     -10.187 -12.113  18.252  0.00  0.00    -0.193 NA
ATOM     27  H   UNL     1      -9.576 -11.344  18.562  0.00  0.00    +0.148 HD
BRANCH   6   1
ATOM      1  S   UNL     1     -10.619 -13.260  19.441  0.00  0.00    +0.027 S 
ATOM      3  O   UNL     1      -9.584 -13.331  20.454  0.00  0.00    -0.158 OA
ATOM      4  O   UNL     1     -11.090 -14.459  18.775  0.00  0.00    -0.158 OA
ATOM     21  C   UNL     1     -12.036 -12.462  20.163  0.00  0.00    +0.214 C 
ENDBRANCH   6   1
ENDBRANCH  16   6
ENDBRANCH  11  16
TORSDOF 5
ENDMDL
MODEL 10
REMARK VINA RESULT:      -5.7     29.887     31.995
REMARK  Name = 26742406
REMARK  7 active torsions:
REMARK  status: ('A' for Active; 'I' for Inactive)
REMARK    1  A    between atoms: S_1  and  N_6
REMARK    2  A    between atoms: S_1  and  C_21
REMARK    3  A    between atoms: N_6  and  C_16
REMARK    4  A    between atoms: C_10  and  C_17
REMARK    5  A    between atoms: C_11  and  C_16
REMARK    6  A    between atoms: C_19  and  C_22
REMARK    7  A    between atoms: C_20  and  C_23
REMARK                            x       y       z     vdW  Elec       q    Type
REMARK                         _______ _______ _______ _____ _____    ______ ____
ROOT
ATOM      5  N   UNL     1      16.185  12.258  17.983  0.00  0.00    -0.297 NA
ATOM      9  C   UNL     1      14.361  13.981  18.680  0.00  0.00    +0.002 C 
ATOM     10  C   UNL     1      14.599  12.950  19.819  0.00  0.00    +0.055 C 
ATOM     11  C   UNL     1      15.163  12.377  16.910  0.00  0.00    +0.072 C 
ATOM     12  C   UNL     1      13.969  13.233  17.389  0.00  0.00    +0.024 C 
ATOM     13  C   UNL     1      15.717  14.669  18.413  0.00  0.00    +0.019 C 
ATOM     14  C   UNL     1      15.541  11.848  19.256  0.00  0.00    +0.094 C 
ATOM     15  C   UNL     1      16.794  13.595  18.181  0.00  0.00    +0.085 C 
ENDROOT
BRANCH  10  17
ATOM      7  N   UNL     1      12.522  13.244  21.078  0.00  0.00    -0.237 NA
ATOM      8  N   UNL     1      11.186  11.374  21.803  0.00  0.00    -0.232 NA
ATOM     17  C   UNL     1      13.384  12.366  20.524  0.00  0.00    +0.050 A 
ATOM     18  C   UNL     1      13.217  10.996  20.568  0.00  0.00    +0.052 A 
ATOM     19  C   UNL     1      12.089  10.553  21.229  0.00  0.00    +0.081 A 
ATOM     20  C   UNL     1      11.461  12.687  21.692  0.00  0.00    +0.127 A 
ATOM     23  C   UNL     1      10.484  13.628  22.315  0.00  0.00    +0.088 C 
BRANCH  19  22
ATOM      2  S   UNL     1      13.001   8.010  20.935  0.00  0.00    -0.095 S 
ATOM     22  C   UNL     1      11.793   9.151  21.351  0.00  0.00    +0.038 A 
ATOM     24  C   UNL     1      10.630   8.542  21.769  0.00  0.00    +0.017 A 
ATOM     25  C   UNL     1      10.732   7.120  21.749  0.00  0.00    +0.008 A 
ATOM     26  C   UNL     1      11.970   6.697  21.316  0.00  0.00    +0.046 A 
ENDBRANCH  19  22
ENDBRANCH  10  17
BRANCH  11  16
ATOM     16  C   UNL     1      14.711  11.015  16.381  0.00  0.00    +0.124 C 
BRANCH  16   6
ATOM      6  N   UNL     1      13.370  10.712  16.906  0.00  0.00    -0.193 NA
ATOM     27  H   UNL     1      12.711  11.500  16.829  0.00  0.00    +0.148 HD
BRANCH   6   1
ATOM      1  S   UNL     1      12.713   9.153  16.671  0.00  0.00    +0.027 S 
ATOM      3  O   UNL     1      12.481   8.926  15.258  0.00  0.00    -0.158 OA
ATOM      4  O   UNL     1      11.654   8.948  17.640  0.00  0.00    -0.158 OA
ATOM     21  C   UNL     1      14.090   8.142  17.168  0.00  0.00    +0.214 C 
ENDBRANCH   6   1
ENDBRANCH  16   6
ENDBRANCH  11  16
TORSDOF 5
ENDMDL
