MODEL 1
REMARK VINA RESULT:      -6.5      0.000      0.000
REMARK  Name = 75536787
REMARK  6 active torsions:
REMARK  status: ('A' for Active; 'I' for Inactive)
REMARK    1  A    between atoms: O_3  and  C_9
REMARK    2  A    between atoms: N_5  and  C_8
REMARK    3  A    between atoms: N_5  and  C_11
REMARK    4  A    between atoms: N_6  and  C_15
REMARK    5  A    between atoms: C_10  and  C_15
REMARK    6  A    between atoms: C_16  and  C_17
REMARK                            x       y       z     vdW  Elec       q    Type
REMARK                         _______ _______ _______ _____ _____    ______ ____
ROOT
ATOM      1  O   UNL     1      13.034   6.694  20.865  0.00  0.00    -0.371 OA
ATOM      8  C   UNL     1      11.031   7.959  21.041  0.00  0.00    +0.111 C 
ATOM      9  C   UNL     1      11.697   8.269  19.713  0.00  0.00    +0.164 C 
ATOM     10  C   UNL     1      12.595   7.050  19.544  0.00  0.00    +0.165 C 
ATOM     12  C   UNL     1      12.186   7.353  21.822  0.00  0.00    +0.181 C 
ENDROOT
BRANCH   9   3
ATOM      3  O   UNL     1      10.769   8.390  18.653  0.00  0.00    -0.388 OA
ATOM     23  H   UNL     1      11.152   8.974  17.977  0.00  0.00    +0.210 HD
ENDBRANCH   9   3
BRANCH   8   5
ATOM      5  N   UNL     1      10.457   9.125  21.693  0.00  0.00    -0.302 NA
ATOM     22  H   UNL     1       9.903   9.660  21.024  0.00  0.00    +0.123 HD
BRANCH   5  11
ATOM      2  O   UNL     1      10.867  11.905  22.653  0.00  0.00    -0.377 OA
ATOM     11  C   UNL     1      11.521   9.896  22.347  0.00  0.00    +0.106 C 
ATOM     13  C   UNL     1      11.666  11.243  21.639  0.00  0.00    +0.180 C 
ATOM     14  C   UNL     1      10.916  10.718  23.486  0.00  0.00    +0.180 C 
ENDBRANCH   5  11
ENDBRANCH   8   5
BRANCH  10  15
ATOM     15  C   UNL     1      13.798   7.310  18.655  0.00  0.00    +0.138 C 
BRANCH  15   6
ATOM      4  O   UNL     1      16.225   5.786  18.482  0.00  0.00    -0.270 OA
ATOM      6  N   UNL     1      14.988   7.504  19.433  0.00  0.00    -0.309 N 
ATOM     16  C   UNL     1      16.124   6.715  19.280  0.00  0.00    +0.244 C 
ATOM     24  H   UNL     1      14.948   8.212  20.158  0.00  0.00    +0.149 HD
BRANCH  16  17
ATOM      7  N   UNL     1      19.410   7.612  21.873  0.00  0.00    -0.263 NA
ATOM     17  C   UNL     1      17.265   7.026  20.179  0.00  0.00    +0.040 A 
ATOM     18  C   UNL     1      18.371   6.184  20.222  0.00  0.00    +0.033 A 
ATOM     19  C   UNL     1      17.230   8.161  20.983  0.00  0.00    +0.033 A 
ATOM     20  C   UNL     1      19.408   6.519  21.078  0.00  0.00    +0.111 A 
ATOM     21  C   UNL     1      18.318   8.407  21.804  0.00  0.00    +0.111 A 
ENDBRANCH  16  17
ENDBRANCH  15   6
ENDBRANCH  10  15
TORSDOF 6
ENDMDL
MODEL 2
REMARK VINA RESULT:      -6.4      3.580      4.613
REMARK  Name = 75536787
REMARK  6 active torsions:
REMARK  status: ('A' for Active; 'I' for Inactive)
REMARK    1  A    between atoms: O_3  and  C_9
REMARK    2  A    between atoms: N_5  and  C_8
REMARK    3  A    between atoms: N_5  and  C_11
REMARK    4  A    between atoms: N_6  and  C_15
REMARK    5  A    between atoms: C_10  and  C_15
REMARK    6  A    between atoms: C_16  and  C_17
REMARK                            x       y       z     vdW  Elec       q    Type
REMARK                         _______ _______ _______ _____ _____    ______ ____
ROOT
ATOM      1  O   UNL     1      13.119   7.873  21.942  0.00  0.00    -0.371 OA
ATOM      8  C   UNL     1      11.217   9.075  22.702  0.00  0.00    +0.111 C 
ATOM      9  C   UNL     1      10.765   7.987  21.745  0.00  0.00    +0.164 C 
ATOM     10  C   UNL     1      11.958   7.040  21.793  0.00  0.00    +0.165 C 
ATOM     12  C   UNL     1      12.693   9.181  22.360  0.00  0.00    +0.181 C 
ENDROOT
BRANCH   9   3
ATOM      3  O   UNL     1       9.572   7.353  22.162  0.00  0.00    -0.388 OA
ATOM     23  H   UNL     1       8.910   7.452  21.458  0.00  0.00    +0.210 HD
ENDBRANCH   9   3
BRANCH   8   5
ATOM      5  N   UNL     1      10.504  10.331  22.535  0.00  0.00    -0.302 NA
ATOM     22  H   UNL     1      10.074  10.367  21.611  0.00  0.00    +0.123 HD
BRANCH   5  11
ATOM      2  O   UNL     1      10.280  13.252  23.026  0.00  0.00    -0.377 OA
ATOM     11  C   UNL     1      11.408  11.451  22.823  0.00  0.00    +0.106 C 
ATOM     13  C   UNL     1      11.025  12.639  21.942  0.00  0.00    +0.180 C 
ATOM     14  C   UNL     1      10.825  12.286  23.963  0.00  0.00    +0.180 C 
ENDBRANCH   5  11
ENDBRANCH   8   5
BRANCH  10  15
ATOM     15  C   UNL     1      12.095   6.184  20.547  0.00  0.00    +0.138 C 
BRANCH  15   6
ATOM      4  O   UNL     1      14.299   7.083  18.941  0.00  0.00    -0.270 OA
ATOM      6  N   UNL     1      12.018   6.981  19.356  0.00  0.00    -0.309 N 
ATOM     16  C   UNL     1      13.144   7.372  18.638  0.00  0.00    +0.244 C 
ATOM     24  H   UNL     1      11.097   7.311  19.087  0.00  0.00    +0.149 HD
BRANCH  16  17
ATOM      7  N   UNL     1      12.434   9.812  15.193  0.00  0.00    -0.263 NA
ATOM     17  C   UNL     1      12.898   8.217  17.441  0.00  0.00    +0.040 A 
ATOM     18  C   UNL     1      13.967   8.765  16.741  0.00  0.00    +0.033 A 
ATOM     19  C   UNL     1      11.596   8.466  17.019  0.00  0.00    +0.033 A 
ATOM     20  C   UNL     1      13.684   9.548  15.634  0.00  0.00    +0.111 A 
ATOM     21  C   UNL     1      11.420   9.262  15.899  0.00  0.00    +0.111 A 
ENDBRANCH  16  17
ENDBRANCH  15   6
ENDBRANCH  10  15
TORSDOF 6
ENDMDL
MODEL 3
REMARK VINA RESULT:      -6.3      2.248      3.922
REMARK  Name = 75536787
REMARK  6 active torsions:
REMARK  status: ('A' for Active; 'I' for Inactive)
REMARK    1  A    between atoms: O_3  and  C_9
REMARK    2  A    between atoms: N_5  and  C_8
REMARK    3  A    between atoms: N_5  and  C_11
REMARK    4  A    between atoms: N_6  and  C_15
REMARK    5  A    between atoms: C_10  and  C_15
REMARK    6  A    between atoms: C_16  and  C_17
REMARK                            x       y       z     vdW  Elec       q    Type
REMARK                         _______ _______ _______ _____ _____    ______ ____
ROOT
ATOM      1  O   UNL     1      12.094   9.043  21.374  0.00  0.00    -0.371 OA
ATOM      8  C   UNL     1      12.050   7.567  19.514  0.00  0.00    +0.111 C 
ATOM      9  C   UNL     1      13.423   7.510  20.157  0.00  0.00    +0.164 C 
ATOM     10  C   UNL     1      13.116   8.048  21.549  0.00  0.00    +0.165 C 
ATOM     12  C   UNL     1      11.511   8.875  20.071  0.00  0.00    +0.181 C 
ENDROOT
BRANCH   9   3
ATOM      3  O   UNL     1      13.950   6.199  20.204  0.00  0.00    -0.388 OA
ATOM     23  H   UNL     1      13.242   5.576  19.973  0.00  0.00    +0.210 HD
ENDBRANCH   9   3
BRANCH   8   5
ATOM      5  N   UNL     1      12.085   7.543  18.061  0.00  0.00    -0.302 NA
ATOM     22  H   UNL     1      12.507   6.672  17.737  0.00  0.00    +0.123 HD
BRANCH   5  11
ATOM      2  O   UNL     1      13.102   8.572  15.467  0.00  0.00    -0.377 OA
ATOM     11  C   UNL     1      12.749   8.754  17.564  0.00  0.00    +0.106 C 
ATOM     13  C   UNL     1      13.908   8.349  16.653  0.00  0.00    +0.180 C 
ATOM     14  C   UNL     1      12.070   9.202  16.269  0.00  0.00    +0.180 C 
ENDBRANCH   5  11
ENDBRANCH   8   5
BRANCH  10  15
ATOM     15  C   UNL     1      14.323   8.665  22.233  0.00  0.00    +0.138 C 
BRANCH  15   6
ATOM      4  O   UNL     1      16.849   9.846  21.544  0.00  0.00    -0.270 OA
ATOM      6  N   UNL     1      15.529   7.968  21.890  0.00  0.00    -0.309 N 
ATOM     16  C   UNL     1      16.714   8.625  21.569  0.00  0.00    +0.244 C 
ATOM     24  H   UNL     1      15.469   6.958  21.826  0.00  0.00    +0.149 HD
BRANCH  16  17
ATOM      7  N   UNL     1      20.039   6.133  20.542  0.00  0.00    -0.263 NA
ATOM     17  C   UNL     1      17.867   7.761  21.211  0.00  0.00    +0.040 A 
ATOM     18  C   UNL     1      17.668   6.599  20.474  0.00  0.00    +0.033 A 
ATOM     19  C   UNL     1      19.152   8.110  21.614  0.00  0.00    +0.033 A 
ATOM     20  C   UNL     1      18.777   5.826  20.168  0.00  0.00    +0.111 A 
ATOM     21  C   UNL     1      20.194   7.270  21.257  0.00  0.00    +0.111 A 
ENDBRANCH  16  17
ENDBRANCH  15   6
ENDBRANCH  10  15
TORSDOF 6
ENDMDL
MODEL 4
REMARK VINA RESULT:      -6.1      2.911      4.511
REMARK  Name = 75536787
REMARK  6 active torsions:
REMARK  status: ('A' for Active; 'I' for Inactive)
REMARK    1  A    between atoms: O_3  and  C_9
REMARK    2  A    between atoms: N_5  and  C_8
REMARK    3  A    between atoms: N_5  and  C_11
REMARK    4  A    between atoms: N_6  and  C_15
REMARK    5  A    between atoms: C_10  and  C_15
REMARK    6  A    between atoms: C_16  and  C_17
REMARK                            x       y       z     vdW  Elec       q    Type
REMARK                         _______ _______ _______ _____ _____    ______ ____
ROOT
ATOM      1  O   UNL     1      13.936   9.126  19.532  0.00  0.00    -0.371 OA
ATOM      8  C   UNL     1      13.172   9.217  17.285  0.00  0.00    +0.111 C 
ATOM      9  C   UNL     1      13.155   7.774  17.755  0.00  0.00    +0.164 C 
ATOM     10  C   UNL     1      13.141   7.959  19.267  0.00  0.00    +0.165 C 
ATOM     12  C   UNL     1      14.103   9.854  18.303  0.00  0.00    +0.181 C 
ENDROOT
BRANCH   9   3
ATOM      3  O   UNL     1      12.019   7.065  17.301  0.00  0.00    -0.388 OA
ATOM     23  H   UNL     1      12.199   6.741  16.403  0.00  0.00    +0.210 HD
ENDBRANCH   9   3
BRANCH   8   5
ATOM      5  N   UNL     1      13.633   9.379  15.916  0.00  0.00    -0.302 NA
ATOM     22  H   UNL     1      14.105   8.531  15.605  0.00  0.00    +0.123 HD
BRANCH   5  11
ATOM      2  O   UNL     1      14.670  11.139  13.760  0.00  0.00    -0.377 OA
ATOM     11  C   UNL     1      14.448  10.595  15.812  0.00  0.00    +0.106 C 
ATOM     13  C   UNL     1      15.488  10.405  14.708  0.00  0.00    +0.180 C 
ATOM     14  C   UNL     1      13.785  11.561  14.830  0.00  0.00    +0.180 C 
ENDBRANCH   5  11
ENDBRANCH   8   5
BRANCH  10  15
ATOM     15  C   UNL     1      13.706   6.769  20.022  0.00  0.00    +0.138 C 
BRANCH  15   6
ATOM      4  O   UNL     1      16.144   5.880  18.795  0.00  0.00    -0.270 OA
ATOM      6  N   UNL     1      15.040   7.029  20.481  0.00  0.00    -0.309 N 
ATOM     16  C   UNL     1      16.169   6.556  19.820  0.00  0.00    +0.244 C 
ATOM     24  H   UNL     1      15.130   7.526  21.360  0.00  0.00    +0.149 HD
BRANCH  16  17
ATOM      7  N   UNL     1      19.945   7.520  21.592  0.00  0.00    -0.263 NA
ATOM     17  C   UNL     1      17.479   6.890  20.436  0.00  0.00    +0.040 A 
ATOM     18  C   UNL     1      17.594   7.989  21.281  0.00  0.00    +0.033 A 
ATOM     19  C   UNL     1      18.596   6.105  20.169  0.00  0.00    +0.033 A 
ATOM     20  C   UNL     1      18.837   8.259  21.828  0.00  0.00    +0.111 A 
ATOM     21  C   UNL     1      19.795   6.460  20.767  0.00  0.00    +0.111 A 
ENDBRANCH  16  17
ENDBRANCH  15   6
ENDBRANCH  10  15
TORSDOF 6
ENDMDL
MODEL 5
REMARK VINA RESULT:      -6.1      1.980      7.014
REMARK  Name = 75536787
REMARK  6 active torsions:
REMARK  status: ('A' for Active; 'I' for Inactive)
REMARK    1  A    between atoms: O_3  and  C_9
REMARK    2  A    between atoms: N_5  and  C_8
REMARK    3  A    between atoms: N_5  and  C_11
REMARK    4  A    between atoms: N_6  and  C_15
REMARK    5  A    between atoms: C_10  and  C_15
REMARK    6  A    between atoms: C_16  and  C_17
REMARK                            x       y       z     vdW  Elec       q    Type
REMARK                         _______ _______ _______ _____ _____    ______ ____
ROOT
ATOM      1  O   UNL     1      15.830   6.212  19.064  0.00  0.00    -0.371 OA
ATOM      8  C   UNL     1      16.880   6.540  21.169  0.00  0.00    +0.111 C 
ATOM      9  C   UNL     1      15.561   7.289  21.153  0.00  0.00    +0.164 C 
ATOM     10  C   UNL     1      14.827   6.566  20.030  0.00  0.00    +0.165 C 
ATOM     12  C   UNL     1      17.123   6.326  19.684  0.00  0.00    +0.181 C 
ENDROOT
BRANCH   9   3
ATOM      3  O   UNL     1      14.866   7.197  22.380  0.00  0.00    -0.388 OA
ATOM     23  H   UNL     1      14.147   7.852  22.375  0.00  0.00    +0.210 HD
ENDBRANCH   9   3
BRANCH   8   5
ATOM      5  N   UNL     1      17.957   7.268  21.819  0.00  0.00    -0.302 NA
ATOM     22  H   UNL     1      17.719   8.258  21.883  0.00  0.00    +0.123 HD
BRANCH   5  11
ATOM      2  O   UNL     1      20.860   7.499  22.401  0.00  0.00    -0.377 OA
ATOM     11  C   UNL     1      19.223   6.997  21.128  0.00  0.00    +0.106 C 
ATOM     13  C   UNL     1      20.165   8.184  21.328  0.00  0.00    +0.180 C 
ATOM     14  C   UNL     1      20.168   6.265  22.081  0.00  0.00    +0.180 C 
ENDBRANCH   5  11
ENDBRANCH   8   5
BRANCH  10  15
ATOM     15  C   UNL     1      13.754   7.414  19.371  0.00  0.00    +0.138 C 
BRANCH  15   6
ATOM      4  O   UNL     1      11.017   8.043  19.969  0.00  0.00    -0.270 OA
ATOM      6  N   UNL     1      13.286   8.441  20.256  0.00  0.00    -0.309 N 
ATOM     16  C   UNL     1      11.933   8.676  20.488  0.00  0.00    +0.244 C 
ATOM     24  H   UNL     1      13.989   9.045  20.667  0.00  0.00    +0.149 HD
BRANCH  16  17
ATOM      7  N   UNL     1      11.007  11.895  23.154  0.00  0.00    -0.263 NA
ATOM     17  C   UNL     1      11.611   9.793  21.412  0.00  0.00    +0.040 A 
ATOM     18  C   UNL     1      11.802  11.111  21.010  0.00  0.00    +0.033 A 
ATOM     19  C   UNL     1      11.117   9.525  22.685  0.00  0.00    +0.033 A 
ATOM     20  C   UNL     1      11.488  12.116  21.910  0.00  0.00    +0.111 A 
ATOM     21  C   UNL     1      10.834  10.602  23.510  0.00  0.00    +0.111 A 
ENDBRANCH  16  17
ENDBRANCH  15   6
ENDBRANCH  10  15
TORSDOF 6
ENDMDL
MODEL 6
REMARK VINA RESULT:      -6.1      1.934      6.361
REMARK  Name = 75536787
REMARK  6 active torsions:
REMARK  status: ('A' for Active; 'I' for Inactive)
REMARK    1  A    between atoms: O_3  and  C_9
REMARK    2  A    between atoms: N_5  and  C_8
REMARK    3  A    between atoms: N_5  and  C_11
REMARK    4  A    between atoms: N_6  and  C_15
REMARK    5  A    between atoms: C_10  and  C_15
REMARK    6  A    between atoms: C_16  and  C_17
REMARK                            x       y       z     vdW  Elec       q    Type
REMARK                         _______ _______ _______ _____ _____    ______ ____
ROOT
ATOM      1  O   UNL     1      12.964   8.269  18.731  0.00  0.00    -0.371 OA
ATOM      8  C   UNL     1      14.304   6.870  20.105  0.00  0.00    +0.111 C 
ATOM      9  C   UNL     1      13.003   7.172  20.826  0.00  0.00    +0.164 C 
ATOM     10  C   UNL     1      12.111   7.582  19.660  0.00  0.00    +0.165 C 
ATOM     12  C   UNL     1      14.332   7.974  19.061  0.00  0.00    +0.181 C 
ENDROOT
BRANCH   9   3
ATOM      3  O   UNL     1      12.487   6.049  21.513  0.00  0.00    -0.388 OA
ATOM     23  H   UNL     1      11.775   5.662  20.977  0.00  0.00    +0.210 HD
ENDBRANCH   9   3
BRANCH   8   5
ATOM      5  N   UNL     1      15.469   6.882  20.974  0.00  0.00    -0.302 NA
ATOM     22  H   UNL     1      15.257   7.391  21.832  0.00  0.00    +0.123 HD
BRANCH   5  11
ATOM      2  O   UNL     1      18.337   6.186  20.640  0.00  0.00    -0.377 OA
ATOM     11  C   UNL     1      16.628   7.399  20.237  0.00  0.00    +0.106 C 
ATOM     13  C   UNL     1      17.836   7.439  21.173  0.00  0.00    +0.180 C 
ATOM     14  C   UNL     1      17.358   6.234  19.569  0.00  0.00    +0.180 C 
ENDBRANCH   5  11
ENDBRANCH   8   5
BRANCH  10  15
ATOM     15  C   UNL     1      10.964   8.488  20.073  0.00  0.00    +0.138 C 
BRANCH  15   6
ATOM      4  O   UNL     1      12.112  11.084  20.511  0.00  0.00    -0.270 OA
ATOM      6  N   UNL     1      11.221   9.108  21.341  0.00  0.00    -0.309 N 
ATOM     16  C   UNL     1      11.782  10.376  21.460  0.00  0.00    +0.244 C 
ATOM     24  H   UNL     1      11.034   8.550  22.167  0.00  0.00    +0.149 HD
BRANCH  16  17
ATOM      7  N   UNL     1      12.433  11.786  25.449  0.00  0.00    -0.263 NA
ATOM     17  C   UNL     1      12.008  10.867  22.843  0.00  0.00    +0.040 A 
ATOM     18  C   UNL     1      13.277  11.276  23.241  0.00  0.00    +0.033 A 
ATOM     19  C   UNL     1      10.952  10.917  23.747  0.00  0.00    +0.033 A 
ATOM     20  C   UNL     1      13.435  11.723  24.543  0.00  0.00    +0.111 A 
ATOM     21  C   UNL     1      11.215  11.380  25.026  0.00  0.00    +0.111 A 
ENDBRANCH  16  17
ENDBRANCH  15   6
ENDBRANCH  10  15
TORSDOF 6
ENDMDL
MODEL 7
REMARK VINA RESULT:      -5.9      3.211      6.629
REMARK  Name = 75536787
REMARK  6 active torsions:
REMARK  status: ('A' for Active; 'I' for Inactive)
REMARK    1  A    between atoms: O_3  and  C_9
REMARK    2  A    between atoms: N_5  and  C_8
REMARK    3  A    between atoms: N_5  and  C_11
REMARK    4  A    between atoms: N_6  and  C_15
REMARK    5  A    between atoms: C_10  and  C_15
REMARK    6  A    between atoms: C_16  and  C_17
REMARK                            x       y       z     vdW  Elec       q    Type
REMARK                         _______ _______ _______ _____ _____    ______ ____
ROOT
ATOM      1  O   UNL     1      12.336   6.638  19.305  0.00  0.00    -0.371 OA
ATOM      8  C   UNL     1      13.884   8.073  18.217  0.00  0.00    +0.111 C 
ATOM      9  C   UNL     1      13.999   8.269  19.718  0.00  0.00    +0.164 C 
ATOM     10  C   UNL     1      13.384   6.973  20.230  0.00  0.00    +0.165 C 
ATOM     12  C   UNL     1      12.524   7.406  18.104  0.00  0.00    +0.181 C 
ENDROOT
BRANCH   9   3
ATOM      3  O   UNL     1      15.336   8.423  20.148  0.00  0.00    -0.388 OA
ATOM     23  H   UNL     1      15.920   8.017  19.486  0.00  0.00    +0.210 HD
ENDBRANCH   9   3
BRANCH   8   5
ATOM      5  N   UNL     1      13.973   9.310  17.459  0.00  0.00    -0.302 NA
ATOM     22  H   UNL     1      13.256   9.964  17.773  0.00  0.00    +0.123 HD
BRANCH   5  11
ATOM      2  O   UNL     1      13.460  10.786  14.933  0.00  0.00    -0.377 OA
ATOM     11  C   UNL     1      13.929   9.011  16.023  0.00  0.00    +0.106 C 
ATOM     13  C   UNL     1      12.684   9.660  15.417  0.00  0.00    +0.180 C 
ATOM     14  C   UNL     1      14.693  10.095  15.261  0.00  0.00    +0.180 C 
ENDBRANCH   5  11
ENDBRANCH   8   5
BRANCH  10  15
ATOM     15  C   UNL     1      12.813   7.092  21.632  0.00  0.00    +0.138 C 
BRANCH  15   6
ATOM      4  O   UNL     1      10.317   8.218  22.495  0.00  0.00    -0.270 OA
ATOM      6  N   UNL     1      12.566   8.463  21.979  0.00  0.00    -0.309 N 
ATOM     16  C   UNL     1      11.318   8.922  22.389  0.00  0.00    +0.244 C 
ATOM     24  H   UNL     1      13.335   9.111  21.849  0.00  0.00    +0.149 HD
BRANCH  16  17
ATOM      7  N   UNL     1      11.027  13.106  23.247  0.00  0.00    -0.263 NA
ATOM     17  C   UNL     1      11.219  10.373  22.688  0.00  0.00    +0.040 A 
ATOM     18  C   UNL     1      10.925  10.803  23.977  0.00  0.00    +0.033 A 
ATOM     19  C   UNL     1      11.416  11.309  21.677  0.00  0.00    +0.033 A 
ATOM     20  C   UNL     1      10.842  12.168  24.203  0.00  0.00    +0.111 A 
ATOM     21  C   UNL     1      11.311  12.650  22.006  0.00  0.00    +0.111 A 
ENDBRANCH  16  17
ENDBRANCH  15   6
ENDBRANCH  10  15
TORSDOF 6
ENDMDL
MODEL 8
REMARK VINA RESULT:      -5.7     26.314     27.582
REMARK  Name = 75536787
REMARK  6 active torsions:
REMARK  status: ('A' for Active; 'I' for Inactive)
REMARK    1  A    between atoms: O_3  and  C_9
REMARK    2  A    between atoms: N_5  and  C_8
REMARK    3  A    between atoms: N_5  and  C_11
REMARK    4  A    between atoms: N_6  and  C_15
REMARK    5  A    between atoms: C_10  and  C_15
REMARK    6  A    between atoms: C_16  and  C_17
REMARK                            x       y       z     vdW  Elec       q    Type
REMARK                         _______ _______ _______ _____ _____    ______ ____
ROOT
ATOM      1  O   UNL     1      -4.347 -10.411  14.648  0.00  0.00    -0.371 OA
ATOM      8  C   UNL     1      -4.028 -10.573  16.995  0.00  0.00    +0.111 C 
ATOM      9  C   UNL     1      -2.894 -11.296  16.291  0.00  0.00    +0.164 C 
ATOM     10  C   UNL     1      -2.956 -10.659  14.908  0.00  0.00    +0.165 C 
ATOM     12  C   UNL     1      -5.067 -10.495  15.890  0.00  0.00    +0.181 C 
ENDROOT
BRANCH   9   3
ATOM      3  O   UNL     1      -1.642 -11.084  16.912  0.00  0.00    -0.388 OA
ATOM     23  H   UNL     1      -1.712 -10.301  17.484  0.00  0.00    +0.210 HD
ENDBRANCH   9   3
BRANCH   8   5
ATOM      5  N   UNL     1      -4.512 -11.263  18.180  0.00  0.00    -0.302 NA
ATOM     22  H   UNL     1      -4.191 -12.231  18.175  0.00  0.00    +0.123 HD
BRANCH   5  11
ATOM      2  O   UNL     1      -6.608 -11.556  20.264  0.00  0.00    -0.377 OA
ATOM     11  C   UNL     1      -5.969 -11.112  18.276  0.00  0.00    +0.106 C 
ATOM     13  C   UNL     1      -6.545 -12.313  19.028  0.00  0.00    +0.180 C 
ATOM     14  C   UNL     1      -6.309 -10.331  19.546  0.00  0.00    +0.180 C 
ENDBRANCH   5  11
ENDBRANCH   8   5
BRANCH  10  15
ATOM     15  C   UNL     1      -2.378 -11.541  13.815  0.00  0.00    +0.138 C 
BRANCH  15   6
ATOM      4  O   UNL     1      -1.529  -9.852  11.654  0.00  0.00    -0.270 OA
ATOM      6  N   UNL     1      -3.058 -11.339  12.568  0.00  0.00    -0.309 N 
ATOM     16  C   UNL     1      -2.571 -10.498  11.572  0.00  0.00    +0.244 C 
ATOM     24  H   UNL     1      -3.960 -11.791  12.463  0.00  0.00    +0.149 HD
BRANCH  16  17
ATOM      7  N   UNL     1      -4.980 -10.149   8.051  0.00  0.00    -0.263 NA
ATOM     17  C   UNL     1      -3.405 -10.377  10.350  0.00  0.00    +0.040 A 
ATOM     18  C   UNL     1      -3.708  -9.122   9.832  0.00  0.00    +0.033 A 
ATOM     19  C   UNL     1      -3.890 -11.518   9.719  0.00  0.00    +0.033 A 
ATOM     20  C   UNL     1      -4.492  -9.063   8.691  0.00  0.00    +0.111 A 
ATOM     21  C   UNL     1      -4.666 -11.351   8.583  0.00  0.00    +0.111 A 
ENDBRANCH  16  17
ENDBRANCH  15   6
ENDBRANCH  10  15
TORSDOF 6
ENDMDL
MODEL 9
REMARK VINA RESULT:      -5.7     29.460     31.365
REMARK  Name = 75536787
REMARK  6 active torsions:
REMARK  status: ('A' for Active; 'I' for Inactive)
REMARK    1  A    between atoms: O_3  and  C_9
REMARK    2  A    between atoms: N_5  and  C_8
REMARK    3  A    between atoms: N_5  and  C_11
REMARK    4  A    between atoms: N_6  and  C_15
REMARK    5  A    between atoms: C_10  and  C_15
REMARK    6  A    between atoms: C_16  and  C_17
REMARK                            x       y       z     vdW  Elec       q    Type
REMARK                         _______ _______ _______ _____ _____    ______ ____
ROOT
ATOM      1  O   UNL     1     -15.715   4.543  31.933  0.00  0.00    -0.371 OA
ATOM      8  C   UNL     1     -14.832   2.349  31.709  0.00  0.00    +0.111 C 
ATOM      9  C   UNL     1     -14.755   2.767  33.166  0.00  0.00    +0.164 C 
ATOM     10  C   UNL     1     -15.793   3.882  33.206  0.00  0.00    +0.165 C 
ATOM     12  C   UNL     1     -14.999   3.693  31.019  0.00  0.00    +0.181 C 
ENDROOT
BRANCH   9   3
ATOM      3  O   UNL     1     -15.078   1.715  34.053  0.00  0.00    -0.388 OA
ATOM     23  H   UNL     1     -15.412   0.966  33.532  0.00  0.00    +0.210 HD
ENDBRANCH   9   3
BRANCH   8   5
ATOM      5  N   UNL     1     -13.663   1.618  31.249  0.00  0.00    -0.302 NA
ATOM     22  H   UNL     1     -12.837   2.214  31.301  0.00  0.00    +0.123 HD
BRANCH   5  11
ATOM      2  O   UNL     1     -14.893  -0.827  30.096  0.00  0.00    -0.377 OA
ATOM     11  C   UNL     1     -13.922   1.065  29.914  0.00  0.00    +0.106 C 
ATOM     13  C   UNL     1     -13.517  -0.409  29.899  0.00  0.00    +0.180 C 
ATOM     14  C   UNL     1     -15.353   0.529  29.863  0.00  0.00    +0.180 C 
ENDBRANCH   5  11
ENDBRANCH   8   5
BRANCH  10  15
ATOM     15  C   UNL     1     -15.554   4.883  34.322  0.00  0.00    +0.138 C 
BRANCH  15   6
ATOM      4  O   UNL     1     -13.426   6.173  35.754  0.00  0.00    -0.270 OA
ATOM      6  N   UNL     1     -14.763   5.991  33.867  0.00  0.00    -0.309 N 
ATOM     16  C   UNL     1     -13.747   6.555  34.632  0.00  0.00    +0.244 C 
ATOM     24  H   UNL     1     -15.020   6.398  32.974  0.00  0.00    +0.149 HD
BRANCH  16  17
ATOM      7  N   UNL     1     -11.698   9.890  32.898  0.00  0.00    -0.263 NA
ATOM     17  C   UNL     1     -13.037   7.712  34.030  0.00  0.00    +0.040 A 
ATOM     18  C   UNL     1     -12.815   7.759  32.658  0.00  0.00    +0.033 A 
ATOM     19  C   UNL     1     -12.591   8.754  34.837  0.00  0.00    +0.033 A 
ATOM     20  C   UNL     1     -12.147   8.860  32.146  0.00  0.00    +0.111 A 
ATOM     21  C   UNL     1     -11.933   9.810  34.227  0.00  0.00    +0.111 A 
ENDBRANCH  16  17
ENDBRANCH  15   6
ENDBRANCH  10  15
TORSDOF 6
ENDMDL
MODEL 10
REMARK VINA RESULT:      -5.6      3.638      6.187
REMARK  Name = 75536787
REMARK  6 active torsions:
REMARK  status: ('A' for Active; 'I' for Inactive)
REMARK    1  A    between atoms: O_3  and  C_9
REMARK    2  A    between atoms: N_5  and  C_8
REMARK    3  A    between atoms: N_5  and  C_11
REMARK    4  A    between atoms: N_6  and  C_15
REMARK    5  A    between atoms: C_10  and  C_15
REMARK    6  A    between atoms: C_16  and  C_17
REMARK                            x       y       z     vdW  Elec       q    Type
REMARK                         _______ _______ _______ _____ _____    ______ ____
ROOT
ATOM      1  O   UNL     1      11.656   7.533  17.451  0.00  0.00    -0.371 OA
ATOM      8  C   UNL     1      13.112   9.302  16.823  0.00  0.00    +0.111 C 
ATOM      9  C   UNL     1      13.530   8.777  18.184  0.00  0.00    +0.164 C 
ATOM     10  C   UNL     1      12.890   7.394  18.174  0.00  0.00    +0.165 C 
ATOM     12  C   UNL     1      11.691   8.771  16.719  0.00  0.00    +0.181 C 
ENDROOT
BRANCH   9   3
ATOM      3  O   UNL     1      14.934   8.706  18.334  0.00  0.00    -0.388 OA
ATOM     23  H   UNL     1      15.346   9.082  17.539  0.00  0.00    +0.210 HD
ENDBRANCH   9   3
BRANCH   8   5
ATOM      5  N   UNL     1      13.185  10.749  16.708  0.00  0.00    -0.302 NA
ATOM     22  H   UNL     1      12.276  11.162  16.917  0.00  0.00    +0.123 HD
BRANCH   5  11
ATOM      2  O   UNL     1      15.822  11.465  15.542  0.00  0.00    -0.377 OA
ATOM     11  C   UNL     1      13.722  11.112  15.391  0.00  0.00    +0.106 C 
ATOM     13  C   UNL     1      14.648  12.318  15.545  0.00  0.00    +0.180 C 
ATOM     14  C   UNL     1      15.012  10.329  15.142  0.00  0.00    +0.180 C 
ENDBRANCH   5  11
ENDBRANCH   8   5
BRANCH  10  15
ATOM     15  C   UNL     1      12.613   6.851  19.564  0.00  0.00    +0.138 C 
BRANCH  15   6
ATOM      4  O   UNL     1      10.418   8.228  20.802  0.00  0.00    -0.270 OA
ATOM      6  N   UNL     1      12.700   7.886  20.554  0.00  0.00    -0.309 N 
ATOM     16  C   UNL     1      11.578   8.500  21.102  0.00  0.00    +0.244 C 
ATOM     24  H   UNL     1      13.631   8.206  20.799  0.00  0.00    +0.149 HD
BRANCH  16  17
ATOM      7  N   UNL     1      12.324  11.586  23.974  0.00  0.00    -0.263 NA
ATOM     17  C   UNL     1      11.837   9.572  22.097  0.00  0.00    +0.040 A 
ATOM     18  C   UNL     1      13.097  10.154  22.186  0.00  0.00    +0.033 A 
ATOM     19  C   UNL     1      10.820   9.996  22.947  0.00  0.00    +0.033 A 
ATOM     20  C   UNL     1      13.287  11.148  23.132  0.00  0.00    +0.111 A 
ATOM     21  C   UNL     1      11.112  10.997  23.859  0.00  0.00    +0.111 A 
ENDBRANCH  16  17
ENDBRANCH  15   6
ENDBRANCH  10  15
TORSDOF 6
ENDMDL
