MODEL 1
REMARK VINA RESULT:      -7.6      0.000      0.000
REMARK  Name = 11912182
REMARK  8 active torsions:
REMARK  status: ('A' for Active; 'I' for Inactive)
REMARK    1  A    between atoms: O_4  and  C_30
REMARK    2  A    between atoms: O_4  and  C_34
REMARK    3  A    between atoms: O_5  and  C_33
REMARK    4  A    between atoms: O_5  and  C_35
REMARK    5  A    between atoms: N_6  and  C_13
REMARK    6  A    between atoms: N_7  and  C_14
REMARK    7  A    between atoms: N_8  and  C_20
REMARK    8  A    between atoms: C_19  and  C_23
REMARK                            x       y       z     vdW  Elec       q    Type
REMARK                         _______ _______ _______ _____ _____    ______ ____
ROOT
ATOM      1  O   UNL     1      -5.400  -9.085  10.329  0.00  0.00    -0.370 OA
ATOM      2  O   UNL     1      -6.675 -11.891  10.814  0.00  0.00    -0.370 OA
ATOM     11  C   UNL     1      -5.327 -11.397  10.885  0.00  0.00    +0.171 C 
ATOM     12  C   UNL     1      -5.159 -10.386   9.768  0.00  0.00    +0.171 C 
ATOM     13  C   UNL     1      -5.130 -10.590  12.146  0.00  0.00    +0.130 C 
ATOM     14  C   UNL     1      -6.247 -10.743   8.781  0.00  0.00    +0.131 C 
ATOM     15  C   UNL     1      -5.623  -9.213  11.741  0.00  0.00    +0.185 C 
ATOM     16  C   UNL     1      -7.334 -11.300   9.684  0.00  0.00    +0.185 C 
ENDROOT
BRANCH  13   6
ATOM      6  N   UNL     1      -3.726 -10.538  12.488  0.00  0.00    -0.306 N 
ATOM      9  N   UNL     1      -4.178 -10.634  14.763  0.00  0.00    -0.214 NA
ATOM     10  N   UNL     1      -1.915 -10.508  13.942  0.00  0.00    -0.223 NA
ATOM     17  C   UNL     1      -3.252 -10.562  13.788  0.00  0.00    +0.216 A 
ATOM     19  C   UNL     1      -3.682 -10.654  16.018  0.00  0.00    +0.076 A 
ATOM     21  C   UNL     1      -1.489 -10.533  15.222  0.00  0.00    +0.116 A 
ATOM     22  C   UNL     1      -2.334 -10.607  16.310  0.00  0.00    +0.048 A 
ATOM     36  H   UNL     1      -3.033 -10.537  11.748  0.00  0.00    +0.149 HD
BRANCH  19  23
ATOM     23  C   UNL     1      -4.671 -10.733  17.066  0.00  0.00    +0.001 A 
ATOM     26  C   UNL     1      -4.389 -11.436  18.238  0.00  0.00    +0.013 A 
ATOM     27  C   UNL     1      -5.909 -10.110  16.908  0.00  0.00    +0.013 A 
ATOM     31  C   UNL     1      -5.344 -11.515  19.251  0.00  0.00    +0.046 A 
ATOM     32  C   UNL     1      -6.864 -10.190  17.920  0.00  0.00    +0.046 A 
ATOM     33  C   UNL     1      -6.582 -10.892  19.093  0.00  0.00    +0.120 A 
BRANCH  33   5
ATOM      5  O   UNL     1      -7.513 -10.968  20.082  0.00  0.00    -0.495 OA
ATOM     35  C   UNL     1      -8.850 -11.282  19.693  0.00  0.00    +0.277 C 
ENDBRANCH  33   5
ENDBRANCH  19  23
ENDBRANCH  13   6
BRANCH  14   7
ATOM      3  O   UNL     1      -5.182 -10.258   6.167  0.00  0.00    -0.252 OA
ATOM      7  N   UNL     1      -5.792 -11.735   7.837  0.00  0.00    -0.292 N 
ATOM      8  N   UNL     1      -4.922 -12.575   5.885  0.00  0.00    -0.269 N 
ATOM     18  C   UNL     1      -5.282 -11.414   6.575  0.00  0.00    +0.304 C 
ATOM     37  H   UNL     1      -5.780 -12.708   8.128  0.00  0.00    +0.151 HD
ATOM     38  H   UNL     1      -5.072 -13.456   6.367  0.00  0.00    +0.156 HD
BRANCH   8  20
ATOM     20  C   UNL     1      -4.371 -12.677   4.585  0.00  0.00    +0.035 A 
ATOM     24  C   UNL     1      -2.991 -12.591   4.405  0.00  0.00    +0.027 A 
ATOM     25  C   UNL     1      -5.209 -12.863   3.486  0.00  0.00    +0.027 A 
ATOM     28  C   UNL     1      -2.447 -12.692   3.124  0.00  0.00    +0.047 A 
ATOM     29  C   UNL     1      -4.665 -12.965   2.205  0.00  0.00    +0.047 A 
ATOM     30  C   UNL     1      -3.284 -12.878   2.024  0.00  0.00    +0.120 A 
BRANCH  30   4
ATOM      4  O   UNL     1      -2.755 -12.980   0.775  0.00  0.00    -0.495 OA
ATOM     34  C   UNL     1      -3.666 -12.955  -0.322  0.00  0.00    +0.277 C 
ENDBRANCH  30   4
ENDBRANCH   8  20
ENDBRANCH  14   7
TORSDOF 6
ENDMDL
MODEL 2
REMARK VINA RESULT:      -7.5     21.907     24.268
REMARK  Name = 11912182
REMARK  8 active torsions:
REMARK  status: ('A' for Active; 'I' for Inactive)
REMARK    1  A    between atoms: O_4  and  C_30
REMARK    2  A    between atoms: O_4  and  C_34
REMARK    3  A    between atoms: O_5  and  C_33
REMARK    4  A    between atoms: O_5  and  C_35
REMARK    5  A    between atoms: N_6  and  C_13
REMARK    6  A    between atoms: N_7  and  C_14
REMARK    7  A    between atoms: N_8  and  C_20
REMARK    8  A    between atoms: C_19  and  C_23
REMARK                            x       y       z     vdW  Elec       q    Type
REMARK                         _______ _______ _______ _____ _____    ______ ____
ROOT
ATOM      1  O   UNL     1     -18.308   5.947  23.543  0.00  0.00    -0.370 OA
ATOM      2  O   UNL     1     -16.143   3.766  24.085  0.00  0.00    -0.370 OA
ATOM     11  C   UNL     1     -16.487   4.996  24.744  0.00  0.00    +0.171 C 
ATOM     12  C   UNL     1     -16.877   5.989  23.667  0.00  0.00    +0.171 C 
ATOM     13  C   UNL     1     -17.748   4.821  25.558  0.00  0.00    +0.130 C 
ATOM     14  C   UNL     1     -16.224   5.450  22.415  0.00  0.00    +0.131 C 
ATOM     15  C   UNL     1     -18.841   5.054  24.532  0.00  0.00    +0.185 C 
ATOM     16  C   UNL     1     -16.232   3.952  22.664  0.00  0.00    +0.185 C 
ENDROOT
BRANCH  13   6
ATOM      6  N   UNL     1     -17.811   5.826  26.595  0.00  0.00    -0.306 N 
ATOM      9  N   UNL     1     -16.621   4.501  28.084  0.00  0.00    -0.214 NA
ATOM     10  N   UNL     1     -17.393   6.697  28.708  0.00  0.00    -0.223 NA
ATOM     17  C   UNL     1     -17.250   5.668  27.851  0.00  0.00    +0.216 A 
ATOM     19  C   UNL     1     -16.087   4.380  29.318  0.00  0.00    +0.076 A 
ATOM     21  C   UNL     1     -16.835   6.509  29.921  0.00  0.00    +0.116 A 
ATOM     22  C   UNL     1     -16.163   5.361  30.286  0.00  0.00    +0.048 A 
ATOM     36  H   UNL     1     -18.240   6.722  26.395  0.00  0.00    +0.149 HD
BRANCH  19  23
ATOM     23  C   UNL     1     -15.410   3.131  29.573  0.00  0.00    +0.001 A 
ATOM     26  C   UNL     1     -15.922   1.944  29.049  0.00  0.00    +0.013 A 
ATOM     27  C   UNL     1     -14.247   3.110  30.343  0.00  0.00    +0.013 A 
ATOM     31  C   UNL     1     -15.270   0.734  29.296  0.00  0.00    +0.046 A 
ATOM     32  C   UNL     1     -13.596   1.901  30.590  0.00  0.00    +0.046 A 
ATOM     33  C   UNL     1     -14.107   0.713  30.066  0.00  0.00    +0.120 A 
BRANCH  33   5
ATOM      5  O   UNL     1     -13.472  -0.466  30.304  0.00  0.00    -0.495 OA
ATOM     35  C   UNL     1     -13.163  -1.278  29.172  0.00  0.00    +0.277 C 
ENDBRANCH  33   5
ENDBRANCH  19  23
ENDBRANCH  13   6
BRANCH  14   7
ATOM      3  O   UNL     1     -15.164   6.892  20.178  0.00  0.00    -0.252 OA
ATOM      7  N   UNL     1     -14.878   5.949  22.270  0.00  0.00    -0.292 N 
ATOM      8  N   UNL     1     -13.094   7.006  21.282  0.00  0.00    -0.269 N 
ATOM     18  C   UNL     1     -14.438   6.648  21.140  0.00  0.00    +0.304 C 
ATOM     37  H   UNL     1     -14.238   5.846  23.051  0.00  0.00    +0.151 HD
ATOM     38  H   UNL     1     -12.636   6.724  22.144  0.00  0.00    +0.156 HD
BRANCH   8  20
ATOM     20  C   UNL     1     -12.284   7.717  20.365  0.00  0.00    +0.035 A 
ATOM     24  C   UNL     1     -12.034   9.074  20.564  0.00  0.00    +0.027 A 
ATOM     25  C   UNL     1     -11.736   7.060  19.264  0.00  0.00    +0.027 A 
ATOM     28  C   UNL     1     -11.234   9.776  19.661  0.00  0.00    +0.047 A 
ATOM     29  C   UNL     1     -10.937   7.761  18.361  0.00  0.00    +0.047 A 
ATOM     30  C   UNL     1     -10.686   9.119  18.559  0.00  0.00    +0.120 A 
BRANCH  30   4
ATOM      4  O   UNL     1      -9.904   9.802  17.679  0.00  0.00    -0.495 OA
ATOM     34  C   UNL     1     -10.433  10.020  16.373  0.00  0.00    +0.277 C 
ENDBRANCH  30   4
ENDBRANCH   8  20
ENDBRANCH  14   7
TORSDOF 6
ENDMDL
MODEL 3
REMARK VINA RESULT:      -7.3     28.848     32.719
REMARK  Name = 11912182
REMARK  8 active torsions:
REMARK  status: ('A' for Active; 'I' for Inactive)
REMARK    1  A    between atoms: O_4  and  C_30
REMARK    2  A    between atoms: O_4  and  C_34
REMARK    3  A    between atoms: O_5  and  C_33
REMARK    4  A    between atoms: O_5  and  C_35
REMARK    5  A    between atoms: N_6  and  C_13
REMARK    6  A    between atoms: N_7  and  C_14
REMARK    7  A    between atoms: N_8  and  C_20
REMARK    8  A    between atoms: C_19  and  C_23
REMARK                            x       y       z     vdW  Elec       q    Type
REMARK                         _______ _______ _______ _____ _____    ______ ____
ROOT
ATOM      1  O   UNL     1      19.861   8.281  22.965  0.00  0.00    -0.370 OA
ATOM      2  O   UNL     1      20.021   6.804  20.222  0.00  0.00    -0.370 OA
ATOM     11  C   UNL     1      19.077   6.768  21.305  0.00  0.00    +0.171 C 
ATOM     12  C   UNL     1      19.867   6.893  22.593  0.00  0.00    +0.171 C 
ATOM     13  C   UNL     1      18.207   8.002  21.284  0.00  0.00    +0.130 C 
ATOM     14  C   UNL     1      21.263   6.456  22.214  0.00  0.00    +0.131 C 
ATOM     15  C   UNL     1      19.048   9.015  22.038  0.00  0.00    +0.185 C 
ATOM     16  C   UNL     1      21.351   6.878  20.758  0.00  0.00    +0.185 C 
ENDROOT
BRANCH  13   6
ATOM      6  N   UNL     1      16.972   7.750  21.992  0.00  0.00    -0.306 N 
ATOM      9  N   UNL     1      15.685   8.449  20.190  0.00  0.00    -0.214 NA
ATOM     10  N   UNL     1      14.663   7.685  22.235  0.00  0.00    -0.223 NA
ATOM     17  C   UNL     1      15.718   7.970  21.449  0.00  0.00    +0.216 A 
ATOM     19  C   UNL     1      14.447   8.653  19.692  0.00  0.00    +0.076 A 
ATOM     21  C   UNL     1      13.458   7.911  21.674  0.00  0.00    +0.116 A 
ATOM     22  C   UNL     1      13.287   8.399  20.394  0.00  0.00    +0.048 A 
ATOM     36  H   UNL     1      17.004   7.340  22.919  0.00  0.00    +0.149 HD
BRANCH  19  23
ATOM     23  C   UNL     1      14.407   9.164  18.343  0.00  0.00    +0.001 A 
ATOM     26  C   UNL     1      14.081   8.314  17.286  0.00  0.00    +0.013 A 
ATOM     27  C   UNL     1      14.695  10.506  18.096  0.00  0.00    +0.013 A 
ATOM     31  C   UNL     1      14.044   8.806  15.981  0.00  0.00    +0.046 A 
ATOM     32  C   UNL     1      14.659  10.998  16.791  0.00  0.00    +0.046 A 
ATOM     33  C   UNL     1      14.332  10.148  15.733  0.00  0.00    +0.120 A 
BRANCH  33   5
ATOM      5  O   UNL     1      14.294  10.628  14.461  0.00  0.00    -0.495 OA
ATOM     35  C   UNL     1      14.101  12.033  14.302  0.00  0.00    +0.277 C 
ENDBRANCH  33   5
ENDBRANCH  19  23
ENDBRANCH  13   6
BRANCH  14   7
ATOM      3  O   UNL     1      23.722   5.031  22.573  0.00  0.00    -0.252 OA
ATOM      7  N   UNL     1      21.421   5.029  22.356  0.00  0.00    -0.292 N 
ATOM      8  N   UNL     1      22.505   3.024  22.638  0.00  0.00    -0.269 N 
ATOM     18  C   UNL     1      22.663   4.409  22.529  0.00  0.00    +0.304 C 
ATOM     37  H   UNL     1      20.585   4.452  22.397  0.00  0.00    +0.151 HD
ATOM     38  H   UNL     1      21.556   2.667  22.578  0.00  0.00    +0.156 HD
BRANCH   8  20
ATOM     20  C   UNL     1      23.513   2.047  22.820  0.00  0.00    +0.035 A 
ATOM     24  C   UNL     1      24.185   1.525  21.714  0.00  0.00    +0.027 A 
ATOM     25  C   UNL     1      23.835   1.609  24.103  0.00  0.00    +0.027 A 
ATOM     28  C   UNL     1      25.179   0.563  21.892  0.00  0.00    +0.047 A 
ATOM     29  C   UNL     1      24.830   0.647  24.282  0.00  0.00    +0.047 A 
ATOM     30  C   UNL     1      25.501   0.124  23.176  0.00  0.00    +0.120 A 
BRANCH  30   4
ATOM      4  O   UNL     1      26.473  -0.813  23.351  0.00  0.00    -0.495 OA
ATOM     34  C   UNL     1      26.659  -1.761  22.302  0.00  0.00    +0.277 C 
ENDBRANCH  30   4
ENDBRANCH   8  20
ENDBRANCH  14   7
TORSDOF 6
ENDMDL
MODEL 4
REMARK VINA RESULT:      -7.1     28.675     32.612
REMARK  Name = 11912182
REMARK  8 active torsions:
REMARK  status: ('A' for Active; 'I' for Inactive)
REMARK    1  A    between atoms: O_4  and  C_30
REMARK    2  A    between atoms: O_4  and  C_34
REMARK    3  A    between atoms: O_5  and  C_33
REMARK    4  A    between atoms: O_5  and  C_35
REMARK    5  A    between atoms: N_6  and  C_13
REMARK    6  A    between atoms: N_7  and  C_14
REMARK    7  A    between atoms: N_8  and  C_20
REMARK    8  A    between atoms: C_19  and  C_23
REMARK                            x       y       z     vdW  Elec       q    Type
REMARK                         _______ _______ _______ _____ _____    ______ ____
ROOT
ATOM      1  O   UNL     1      21.847   8.367  21.573  0.00  0.00    -0.370 OA
ATOM      2  O   UNL     1      20.825   6.194  23.565  0.00  0.00    -0.370 OA
ATOM     11  C   UNL     1      21.373   6.132  22.238  0.00  0.00    +0.171 C 
ATOM     12  C   UNL     1      20.850   7.336  21.479  0.00  0.00    +0.171 C 
ATOM     13  C   UNL     1      22.868   6.342  22.278  0.00  0.00    +0.130 C 
ATOM     14  C   UNL     1      19.605   7.737  22.237  0.00  0.00    +0.131 C 
ATOM     15  C   UNL     1      22.993   7.854  22.269  0.00  0.00    +0.185 C 
ATOM     16  C   UNL     1      19.943   7.323  23.658  0.00  0.00    +0.185 C 
ENDROOT
BRANCH  13   6
ATOM      6  N   UNL     1      23.479   5.782  21.093  0.00  0.00    -0.306 N 
ATOM      9  N   UNL     1      23.747   3.706  22.097  0.00  0.00    -0.214 NA
ATOM     10  N   UNL     1      24.462   4.099  19.829  0.00  0.00    -0.223 NA
ATOM     17  C   UNL     1      23.915   4.471  21.002  0.00  0.00    +0.216 A 
ATOM     19  C   UNL     1      24.184   2.434  21.974  0.00  0.00    +0.076 A 
ATOM     21  C   UNL     1      24.875   2.816  19.776  0.00  0.00    +0.116 A 
ATOM     22  C   UNL     1      24.760   1.929  20.827  0.00  0.00    +0.048 A 
ATOM     36  H   UNL     1      23.554   6.348  20.256  0.00  0.00    +0.149 HD
BRANCH  19  23
ATOM     23  C   UNL     1      24.005   1.610  23.145  0.00  0.00    +0.001 A 
ATOM     26  C   UNL     1      22.926   1.838  23.998  0.00  0.00    +0.013 A 
ATOM     27  C   UNL     1      24.911   0.586  23.425  0.00  0.00    +0.013 A 
ATOM     31  C   UNL     1      22.752   1.044  25.132  0.00  0.00    +0.046 A 
ATOM     32  C   UNL     1      24.738  -0.207  24.558  0.00  0.00    +0.046 A 
ATOM     33  C   UNL     1      23.658   0.020  25.412  0.00  0.00    +0.120 A 
BRANCH  33   5
ATOM      5  O   UNL     1      23.487  -0.755  26.517  0.00  0.00    -0.495 OA
ATOM     35  C   UNL     1      24.164  -2.011  26.539  0.00  0.00    +0.277 C 
ENDBRANCH  33   5
ENDBRANCH  19  23
ENDBRANCH  13   6
BRANCH  14   7
ATOM      3  O   UNL     1      17.307   8.887  20.970  0.00  0.00    -0.252 OA
ATOM      7  N   UNL     1      18.446   7.031  21.748  0.00  0.00    -0.292 N 
ATOM      8  N   UNL     1      16.389   6.735  20.768  0.00  0.00    -0.269 N 
ATOM     18  C   UNL     1      17.360   7.670  21.138  0.00  0.00    +0.304 C 
ATOM     37  H   UNL     1      18.445   6.016  21.789  0.00  0.00    +0.151 HD
ATOM     38  H   UNL     1      16.589   5.762  20.981  0.00  0.00    +0.156 HD
BRANCH   8  20
ATOM     20  C   UNL     1      15.150   6.978  20.129  0.00  0.00    +0.035 A 
ATOM     24  C   UNL     1      13.960   6.846  20.845  0.00  0.00    +0.027 A 
ATOM     25  C   UNL     1      15.119   7.349  18.786  0.00  0.00    +0.027 A 
ATOM     28  C   UNL     1      12.738   7.086  20.217  0.00  0.00    +0.047 A 
ATOM     29  C   UNL     1      13.897   7.589  18.157  0.00  0.00    +0.047 A 
ATOM     30  C   UNL     1      12.707   7.456  18.873  0.00  0.00    +0.120 A 
BRANCH  30   4
ATOM      4  O   UNL     1      11.515   7.693  18.259  0.00  0.00    -0.495 OA
ATOM     34  C   UNL     1      11.523   8.583  17.145  0.00  0.00    +0.277 C 
ENDBRANCH  30   4
ENDBRANCH   8  20
ENDBRANCH  14   7
TORSDOF 6
ENDMDL
MODEL 5
REMARK VINA RESULT:      -7.0     25.171     26.921
REMARK  Name = 11912182
REMARK  8 active torsions:
REMARK  status: ('A' for Active; 'I' for Inactive)
REMARK    1  A    between atoms: O_4  and  C_30
REMARK    2  A    between atoms: O_4  and  C_34
REMARK    3  A    between atoms: O_5  and  C_33
REMARK    4  A    between atoms: O_5  and  C_35
REMARK    5  A    between atoms: N_6  and  C_13
REMARK    6  A    between atoms: N_7  and  C_14
REMARK    7  A    between atoms: N_8  and  C_20
REMARK    8  A    between atoms: C_19  and  C_23
REMARK                            x       y       z     vdW  Elec       q    Type
REMARK                         _______ _______ _______ _____ _____    ______ ____
ROOT
ATOM      1  O   UNL     1      10.976  13.891  10.599  0.00  0.00    -0.370 OA
ATOM      2  O   UNL     1       9.597  12.026  12.686  0.00  0.00    -0.370 OA
ATOM     11  C   UNL     1      10.926  12.081  12.142  0.00  0.00    +0.171 C 
ATOM     12  C   UNL     1      10.798  12.467  10.681  0.00  0.00    +0.171 C 
ATOM     13  C   UNL     1      11.700  13.221  12.760  0.00  0.00    +0.130 C 
ATOM     14  C   UNL     1       9.378  12.093  10.324  0.00  0.00    +0.131 C 
ATOM     15  C   UNL     1      11.291  14.404  11.902  0.00  0.00    +0.185 C 
ATOM     16  C   UNL     1       8.649  12.291  11.641  0.00  0.00    +0.185 C 
ENDROOT
BRANCH  13   6
ATOM      6  N   UNL     1      13.120  12.980  12.636  0.00  0.00    -0.306 N 
ATOM      9  N   UNL     1      13.125  11.515  14.437  0.00  0.00    -0.214 NA
ATOM     10  N   UNL     1      15.148  12.011  13.225  0.00  0.00    -0.223 NA
ATOM     17  C   UNL     1      13.829  12.131  13.469  0.00  0.00    +0.216 A 
ATOM     19  C   UNL     1      13.846  10.695  15.231  0.00  0.00    +0.076 A 
ATOM     21  C   UNL     1      15.806  11.176  14.054  0.00  0.00    +0.116 A 
ATOM     22  C   UNL     1      15.202  10.485  15.084  0.00  0.00    +0.048 A 
ATOM     36  H   UNL     1      13.633  13.406  11.873  0.00  0.00    +0.149 HD
BRANCH  19  23
ATOM     23  C   UNL     1      13.096  10.032  16.269  0.00  0.00    +0.001 A 
ATOM     26  C   UNL     1      13.470  10.184  17.604  0.00  0.00    +0.013 A 
ATOM     27  C   UNL     1      11.998   9.237  15.939  0.00  0.00    +0.013 A 
ATOM     31  C   UNL     1      12.746   9.541  18.610  0.00  0.00    +0.046 A 
ATOM     32  C   UNL     1      11.275   8.594  16.943  0.00  0.00    +0.046 A 
ATOM     33  C   UNL     1      11.648   8.747  18.279  0.00  0.00    +0.120 A 
BRANCH  33   5
ATOM      5  O   UNL     1      10.942   8.121  19.260  0.00  0.00    -0.495 OA
ATOM     35  C   UNL     1      11.092   8.623  20.588  0.00  0.00    +0.277 C 
ENDBRANCH  33   5
ENDBRANCH  19  23
ENDBRANCH  13   6
BRANCH  14   7
ATOM      3  O   UNL     1       9.727  11.134   7.647  0.00  0.00    -0.252 OA
ATOM      7  N   UNL     1       9.295  10.722   9.881  0.00  0.00    -0.292 N 
ATOM      8  N   UNL     1       9.341   8.951   8.420  0.00  0.00    -0.269 N 
ATOM     18  C   UNL     1       9.479  10.336   8.548  0.00  0.00    +0.304 C 
ATOM     37  H   UNL     1       9.160   9.997  10.578  0.00  0.00    +0.151 HD
ATOM     38  H   UNL     1       9.133   8.432   9.268  0.00  0.00    +0.156 HD
BRANCH   8  20
ATOM     20  C   UNL     1       9.453   8.173   7.243  0.00  0.00    +0.035 A 
ATOM     24  C   UNL     1       8.303   7.754   6.573  0.00  0.00    +0.027 A 
ATOM     25  C   UNL     1      10.712   7.827   6.753  0.00  0.00    +0.027 A 
ATOM     28  C   UNL     1       8.413   6.988   5.412  0.00  0.00    +0.047 A 
ATOM     29  C   UNL     1      10.821   7.061   5.592  0.00  0.00    +0.047 A 
ATOM     30  C   UNL     1       9.671   6.641   4.922  0.00  0.00    +0.120 A 
BRANCH  30   4
ATOM      4  O   UNL     1       9.779   5.897   3.788  0.00  0.00    -0.495 OA
ATOM     34  C   UNL     1      10.557   4.704   3.865  0.00  0.00    +0.277 C 
ENDBRANCH  30   4
ENDBRANCH   8  20
ENDBRANCH  14   7
TORSDOF 6
ENDMDL
MODEL 6
REMARK VINA RESULT:      -7.0     28.253     31.466
REMARK  Name = 11912182
REMARK  8 active torsions:
REMARK  status: ('A' for Active; 'I' for Inactive)
REMARK    1  A    between atoms: O_4  and  C_30
REMARK    2  A    between atoms: O_4  and  C_34
REMARK    3  A    between atoms: O_5  and  C_33
REMARK    4  A    between atoms: O_5  and  C_35
REMARK    5  A    between atoms: N_6  and  C_13
REMARK    6  A    between atoms: N_7  and  C_14
REMARK    7  A    between atoms: N_8  and  C_20
REMARK    8  A    between atoms: C_19  and  C_23
REMARK                            x       y       z     vdW  Elec       q    Type
REMARK                         _______ _______ _______ _____ _____    ______ ____
ROOT
ATOM      1  O   UNL     1      14.232   7.408  17.633  0.00  0.00    -0.370 OA
ATOM      2  O   UNL     1      13.804   8.004  20.665  0.00  0.00    -0.370 OA
ATOM     11  C   UNL     1      14.351   8.771  19.579  0.00  0.00    +0.171 C 
ATOM     12  C   UNL     1      15.117   7.809  18.692  0.00  0.00    +0.171 C 
ATOM     13  C   UNL     1      13.243   9.289  18.693  0.00  0.00    +0.130 C 
ATOM     14  C   UNL     1      15.422   6.637  19.596  0.00  0.00    +0.131 C 
ATOM     15  C   UNL     1      12.993   8.123  17.756  0.00  0.00    +0.185 C 
ATOM     16  C   UNL     1      14.236   6.640  20.544  0.00  0.00    +0.185 C 
ENDROOT
BRANCH  13   6
ATOM      6  N   UNL     1      13.702  10.440  17.949  0.00  0.00    -0.306 N 
ATOM      9  N   UNL     1      12.862  11.917  19.531  0.00  0.00    -0.214 NA
ATOM     10  N   UNL     1      14.002  12.711  17.561  0.00  0.00    -0.223 NA
ATOM     17  C   UNL     1      13.515  11.747  18.365  0.00  0.00    +0.216 A 
ATOM     19  C   UNL     1      12.696  13.204  19.907  0.00  0.00    +0.076 A 
ATOM     21  C   UNL     1      13.802  13.971  17.997  0.00  0.00    +0.116 A 
ATOM     22  C   UNL     1      13.149  14.281  19.173  0.00  0.00    +0.048 A 
ATOM     36  H   UNL     1      14.238  10.303  17.099  0.00  0.00    +0.149 HD
BRANCH  19  23
ATOM     23  C   UNL     1      11.999  13.391  21.156  0.00  0.00    +0.001 A 
ATOM     26  C   UNL     1      10.796  14.097  21.183  0.00  0.00    +0.013 A 
ATOM     27  C   UNL     1      12.527  12.868  22.337  0.00  0.00    +0.013 A 
ATOM     31  C   UNL     1      10.121  14.281  22.390  0.00  0.00    +0.046 A 
ATOM     32  C   UNL     1      11.854  13.053  23.544  0.00  0.00    +0.046 A 
ATOM     33  C   UNL     1      10.650  13.758  23.571  0.00  0.00    +0.120 A 
BRANCH  33   5
ATOM      5  O   UNL     1       9.991  13.937  24.748  0.00  0.00    -0.495 OA
ATOM     35  C   UNL     1      10.781  14.255  25.893  0.00  0.00    +0.277 C 
ENDBRANCH  33   5
ENDBRANCH  19  23
ENDBRANCH  13   6
BRANCH  14   7
ATOM      3  O   UNL     1      17.976   5.527  18.926  0.00  0.00    -0.252 OA
ATOM      7  N   UNL     1      16.661   6.834  20.307  0.00  0.00    -0.292 N 
ATOM      8  N   UNL     1      18.897   6.621  20.788  0.00  0.00    -0.269 N 
ATOM     18  C   UNL     1      17.872   6.253  19.912  0.00  0.00    +0.304 C 
ATOM     37  H   UNL     1      16.670   7.476  21.094  0.00  0.00    +0.151 HD
ATOM     38  H   UNL     1      18.641   7.231  21.559  0.00  0.00    +0.156 HD
BRANCH   8  20
ATOM     20  C   UNL     1      20.260   6.245  20.736  0.00  0.00    +0.035 A 
ATOM     24  C   UNL     1      21.243   7.214  20.533  0.00  0.00    +0.027 A 
ATOM     25  C   UNL     1      20.621   4.907  20.887  0.00  0.00    +0.027 A 
ATOM     28  C   UNL     1      22.587   6.845  20.482  0.00  0.00    +0.047 A 
ATOM     29  C   UNL     1      21.965   4.537  20.836  0.00  0.00    +0.047 A 
ATOM     30  C   UNL     1      22.948   5.506  20.633  0.00  0.00    +0.120 A 
BRANCH  30   4
ATOM      4  O   UNL     1      24.259   5.145  20.586  0.00  0.00    -0.495 OA
ATOM     34  C   UNL     1      24.612   4.094  19.689  0.00  0.00    +0.277 C 
ENDBRANCH  30   4
ENDBRANCH   8  20
ENDBRANCH  14   7
TORSDOF 6
ENDMDL
MODEL 7
REMARK VINA RESULT:      -7.0     24.519     26.817
REMARK  Name = 11912182
REMARK  8 active torsions:
REMARK  status: ('A' for Active; 'I' for Inactive)
REMARK    1  A    between atoms: O_4  and  C_30
REMARK    2  A    between atoms: O_4  and  C_34
REMARK    3  A    between atoms: O_5  and  C_33
REMARK    4  A    between atoms: O_5  and  C_35
REMARK    5  A    between atoms: N_6  and  C_13
REMARK    6  A    between atoms: N_7  and  C_14
REMARK    7  A    between atoms: N_8  and  C_20
REMARK    8  A    between atoms: C_19  and  C_23
REMARK                            x       y       z     vdW  Elec       q    Type
REMARK                         _______ _______ _______ _____ _____    ______ ____
ROOT
ATOM      1  O   UNL     1      12.773   5.298  -0.513  0.00  0.00    -0.370 OA
ATOM      2  O   UNL     1      12.061   3.585   1.996  0.00  0.00    -0.370 OA
ATOM     11  C   UNL     1      11.805   4.953   1.633  0.00  0.00    +0.171 C 
ATOM     12  C   UNL     1      13.029   5.457   0.893  0.00  0.00    +0.171 C 
ATOM     13  C   UNL     1      10.698   5.025   0.610  0.00  0.00    +0.130 C 
ATOM     14  C   UNL     1      14.136   4.528   1.335  0.00  0.00    +0.131 C 
ATOM     15  C   UNL     1      11.437   4.807  -0.697  0.00  0.00    +0.185 C 
ATOM     16  C   UNL     1      13.390   3.229   1.585  0.00  0.00    +0.185 C 
ENDROOT
BRANCH  13   6
ATOM      6  N   UNL     1      10.091   6.338   0.629  0.00  0.00    -0.306 N 
ATOM      9  N   UNL     1       9.765   6.257   2.926  0.00  0.00    -0.214 NA
ATOM     10  N   UNL     1       9.089   8.176   1.634  0.00  0.00    -0.223 NA
ATOM     17  C   UNL     1       9.628   6.951   1.780  0.00  0.00    +0.216 A 
ATOM     19  C   UNL     1       9.303   6.885   4.029  0.00  0.00    +0.076 A 
ATOM     21  C   UNL     1       8.649   8.744   2.775  0.00  0.00    +0.116 A 
ATOM     22  C   UNL     1       8.730   8.140   4.013  0.00  0.00    +0.048 A 
ATOM     36  H   UNL     1      10.040   6.875  -0.229  0.00  0.00    +0.149 HD
BRANCH  19  23
ATOM     23  C   UNL     1       9.448   6.145   5.259  0.00  0.00    +0.001 A 
ATOM     26  C   UNL     1       9.777   4.790   5.222  0.00  0.00    +0.013 A 
ATOM     27  C   UNL     1       9.258   6.783   6.485  0.00  0.00    +0.013 A 
ATOM     31  C   UNL     1       9.916   4.073   6.411  0.00  0.00    +0.046 A 
ATOM     32  C   UNL     1       9.396   6.067   7.673  0.00  0.00    +0.046 A 
ATOM     33  C   UNL     1       9.726   4.711   7.637  0.00  0.00    +0.120 A 
BRANCH  33   5
ATOM      5  O   UNL     1       9.863   4.012   8.796  0.00  0.00    -0.495 OA
ATOM     35  C   UNL     1       9.363   4.622   9.985  0.00  0.00    +0.277 C 
ENDBRANCH  33   5
ENDBRANCH  19  23
ENDBRANCH  13   6
BRANCH  14   7
ATOM      3  O   UNL     1      14.603   7.261   2.052  0.00  0.00    -0.252 OA
ATOM      7  N   UNL     1      14.772   5.007   2.538  0.00  0.00    -0.292 N 
ATOM      8  N   UNL     1      15.601   6.527   4.047  0.00  0.00    -0.269 N 
ATOM     18  C   UNL     1      14.962   6.366   2.814  0.00  0.00    +0.304 C 
ATOM     37  H   UNL     1      15.035   4.330   3.247  0.00  0.00    +0.151 HD
ATOM     38  H   UNL     1      15.833   5.678   4.555  0.00  0.00    +0.156 HD
BRANCH   8  20
ATOM     20  C   UNL     1      15.970   7.737   4.682  0.00  0.00    +0.035 A 
ATOM     24  C   UNL     1      15.114   8.324   5.613  0.00  0.00    +0.027 A 
ATOM     25  C   UNL     1      17.189   8.340   4.376  0.00  0.00    +0.027 A 
ATOM     28  C   UNL     1      15.478   9.516   6.240  0.00  0.00    +0.047 A 
ATOM     29  C   UNL     1      17.553   9.532   5.003  0.00  0.00    +0.047 A 
ATOM     30  C   UNL     1      16.697  10.121   5.934  0.00  0.00    +0.120 A 
BRANCH  30   4
ATOM      4  O   UNL     1      17.054  11.282   6.547  0.00  0.00    -0.495 OA
ATOM     34  C   UNL     1      16.102  11.870   7.432  0.00  0.00    +0.277 C 
ENDBRANCH  30   4
ENDBRANCH   8  20
ENDBRANCH  14   7
TORSDOF 6
ENDMDL
MODEL 8
REMARK VINA RESULT:      -6.9      4.092     10.645
REMARK  Name = 11912182
REMARK  8 active torsions:
REMARK  status: ('A' for Active; 'I' for Inactive)
REMARK    1  A    between atoms: O_4  and  C_30
REMARK    2  A    between atoms: O_4  and  C_34
REMARK    3  A    between atoms: O_5  and  C_33
REMARK    4  A    between atoms: O_5  and  C_35
REMARK    5  A    between atoms: N_6  and  C_13
REMARK    6  A    between atoms: N_7  and  C_14
REMARK    7  A    between atoms: N_8  and  C_20
REMARK    8  A    between atoms: C_19  and  C_23
REMARK                            x       y       z     vdW  Elec       q    Type
REMARK                         _______ _______ _______ _____ _____    ______ ____
ROOT
ATOM      1  O   UNL     1      -5.622 -11.853  19.334  0.00  0.00    -0.370 OA
ATOM      2  O   UNL     1      -6.989 -11.883  16.530  0.00  0.00    -0.370 OA
ATOM     11  C   UNL     1      -5.827 -11.216  17.051  0.00  0.00    +0.171 C 
ATOM     12  C   UNL     1      -6.140 -10.819  18.480  0.00  0.00    +0.171 C 
ATOM     13  C   UNL     1      -4.679 -12.189  17.180  0.00  0.00    +0.130 C 
ATOM     14  C   UNL     1      -7.650 -10.799  18.535  0.00  0.00    +0.131 C 
ATOM     15  C   UNL     1      -4.933 -12.825  18.534  0.00  0.00    +0.185 C 
ATOM     16  C   UNL     1      -8.026 -11.866  17.522  0.00  0.00    +0.185 C 
ENDROOT
BRANCH  13   6
ATOM      6  N   UNL     1      -3.423 -11.474  17.191  0.00  0.00    -0.306 N 
ATOM      9  N   UNL     1      -3.443 -11.214  14.884  0.00  0.00    -0.214 NA
ATOM     10  N   UNL     1      -1.640 -10.341  16.224  0.00  0.00    -0.223 NA
ATOM     17  C   UNL     1      -2.808 -10.988  16.050  0.00  0.00    +0.216 A 
ATOM     19  C   UNL     1      -2.816 -10.727  13.792  0.00  0.00    +0.076 A 
ATOM     21  C   UNL     1      -1.070  -9.881  15.092  0.00  0.00    +0.116 A 
ATOM     22  C   UNL     1      -1.617 -10.046  13.836  0.00  0.00    +0.048 A 
ATOM     36  H   UNL     1      -2.977 -11.262  18.076  0.00  0.00    +0.149 HD
BRANCH  19  23
ATOM     23  C   UNL     1      -3.494 -10.966  12.540  0.00  0.00    +0.001 A 
ATOM     26  C   UNL     1      -4.617 -11.791  12.503  0.00  0.00    +0.013 A 
ATOM     27  C   UNL     1      -3.025 -10.374  11.367  0.00  0.00    +0.013 A 
ATOM     31  C   UNL     1      -5.273 -12.025  11.294  0.00  0.00    +0.046 A 
ATOM     32  C   UNL     1      -3.679 -10.608  10.158  0.00  0.00    +0.046 A 
ATOM     33  C   UNL     1      -4.804 -11.433  10.121  0.00  0.00    +0.120 A 
BRANCH  33   5
ATOM      5  O   UNL     1      -5.444 -11.661   8.942  0.00  0.00    -0.495 OA
ATOM     35  C   UNL     1      -4.860 -11.098   7.768  0.00  0.00    +0.277 C 
ENDBRANCH  33   5
ENDBRANCH  19  23
ENDBRANCH  13   6
BRANCH  14   7
ATOM      3  O   UNL     1     -10.052 -10.288  17.059  0.00  0.00    -0.252 OA
ATOM      7  N   UNL     1      -8.170  -9.508  18.152  0.00  0.00    -0.292 N 
ATOM      8  N   UNL     1      -9.607  -7.987  17.205  0.00  0.00    -0.269 N 
ATOM     18  C   UNL     1      -9.356  -9.344  17.428  0.00  0.00    +0.304 C 
ATOM     37  H   UNL     1      -7.687  -8.677  18.479  0.00  0.00    +0.151 HD
ATOM     38  H   UNL     1      -8.927  -7.331  17.578  0.00  0.00    +0.156 HD
BRANCH   8  20
ATOM     20  C   UNL     1     -10.698  -7.409  16.515  0.00  0.00    +0.035 A 
ATOM     24  C   UNL     1     -11.993  -7.877  16.742  0.00  0.00    +0.027 A 
ATOM     25  C   UNL     1     -10.480  -6.370  15.611  0.00  0.00    +0.027 A 
ATOM     28  C   UNL     1     -13.070  -7.307  16.063  0.00  0.00    +0.047 A 
ATOM     29  C   UNL     1     -11.557  -5.799  14.932  0.00  0.00    +0.047 A 
ATOM     30  C   UNL     1     -12.852  -6.268  15.158  0.00  0.00    +0.120 A 
BRANCH  30   4
ATOM      4  O   UNL     1     -13.902  -5.709  14.497  0.00  0.00    -0.495 OA
ATOM     34  C   UNL     1     -13.690  -5.333  13.138  0.00  0.00    +0.277 C 
ENDBRANCH  30   4
ENDBRANCH   8  20
ENDBRANCH  14   7
TORSDOF 6
ENDMDL
MODEL 9
REMARK VINA RESULT:      -6.9     23.254     26.324
REMARK  Name = 11912182
REMARK  8 active torsions:
REMARK  status: ('A' for Active; 'I' for Inactive)
REMARK    1  A    between atoms: O_4  and  C_30
REMARK    2  A    between atoms: O_4  and  C_34
REMARK    3  A    between atoms: O_5  and  C_33
REMARK    4  A    between atoms: O_5  and  C_35
REMARK    5  A    between atoms: N_6  and  C_13
REMARK    6  A    between atoms: N_7  and  C_14
REMARK    7  A    between atoms: N_8  and  C_20
REMARK    8  A    between atoms: C_19  and  C_23
REMARK                            x       y       z     vdW  Elec       q    Type
REMARK                         _______ _______ _______ _____ _____    ______ ____
ROOT
ATOM      1  O   UNL     1       4.773  11.808   3.114  0.00  0.00    -0.370 OA
ATOM      2  O   UNL     1       5.316   9.790   0.797  0.00  0.00    -0.370 OA
ATOM     11  C   UNL     1       4.385   9.803   1.892  0.00  0.00    +0.171 C 
ATOM     12  C   UNL     1       5.102  10.409   3.083  0.00  0.00    +0.171 C 
ATOM     13  C   UNL     1       3.257  10.767   1.611  0.00  0.00    +0.130 C 
ATOM     14  C   UNL     1       6.568  10.220   2.766  0.00  0.00    +0.131 C 
ATOM     15  C   UNL     1       3.831  12.094   2.070  0.00  0.00    +0.185 C 
ATOM     16  C   UNL     1       6.584  10.289   1.249  0.00  0.00    +0.185 C 
ENDROOT
BRANCH  13   6
ATOM      6  N   UNL     1       2.100  10.420   2.405  0.00  0.00    -0.306 N 
ATOM      9  N   UNL     1       0.693  10.496   0.560  0.00  0.00    -0.214 NA
ATOM     10  N   UNL     1      -0.150   9.955   2.752  0.00  0.00    -0.223 NA
ATOM     17  C   UNL     1       0.825  10.284   1.883  0.00  0.00    +0.216 A 
ATOM     19  C   UNL     1      -0.563  10.356   0.084  0.00  0.00    +0.076 A 
ATOM     21  C   UNL     1      -1.378   9.831   2.210  0.00  0.00    +0.116 A 
ATOM     22  C   UNL     1      -1.647  10.021   0.869  0.00  0.00    +0.048 A 
ATOM     36  H   UNL     1       2.216  10.210   3.390  0.00  0.00    +0.149 HD
BRANCH  19  23
ATOM     23  C   UNL     1      -0.709  10.581  -1.334  0.00  0.00    +0.001 A 
ATOM     26  C   UNL     1       0.391  10.981  -2.092  0.00  0.00    +0.013 A 
ATOM     27  C   UNL     1      -1.950  10.401  -1.946  0.00  0.00    +0.013 A 
ATOM     31  C   UNL     1       0.251  11.201  -3.463  0.00  0.00    +0.046 A 
ATOM     32  C   UNL     1      -2.090  10.622  -3.316  0.00  0.00    +0.046 A 
ATOM     33  C   UNL     1      -0.989  11.022  -4.075  0.00  0.00    +0.120 A 
BRANCH  33   5
ATOM      5  O   UNL     1      -1.124  11.235  -5.412  0.00  0.00    -0.495 OA
ATOM     35  C   UNL     1       0.030  11.020  -6.223  0.00  0.00    +0.277 C 
ENDBRANCH  33   5
ENDBRANCH  19  23
ENDBRANCH  13   6
BRANCH  14   7
ATOM      3  O   UNL     1       7.723   9.661   5.327  0.00  0.00    -0.252 OA
ATOM      7  N   UNL     1       7.044   8.942   3.237  0.00  0.00    -0.292 N 
ATOM      8  N   UNL     1       7.967   7.416   4.684  0.00  0.00    -0.269 N 
ATOM     18  C   UNL     1       7.598   8.753   4.508  0.00  0.00    +0.304 C 
ATOM     37  H   UNL     1       6.912   8.129   2.644  0.00  0.00    +0.151 HD
ATOM     38  H   UNL     1       7.795   6.789   3.904  0.00  0.00    +0.156 HD
BRANCH   8  20
ATOM     20  C   UNL     1       8.559   6.822   5.824  0.00  0.00    +0.035 A 
ATOM     24  C   UNL     1       9.245   5.613   5.702  0.00  0.00    +0.027 A 
ATOM     25  C   UNL     1       8.458   7.445   7.067  0.00  0.00    +0.027 A 
ATOM     28  C   UNL     1       9.829   5.027   6.825  0.00  0.00    +0.047 A 
ATOM     29  C   UNL     1       9.042   6.859   8.190  0.00  0.00    +0.047 A 
ATOM     30  C   UNL     1       9.727   5.650   8.069  0.00  0.00    +0.120 A 
BRANCH  30   4
ATOM      4  O   UNL     1      10.300   5.080   9.165  0.00  0.00    -0.495 OA
ATOM     34  C   UNL     1       9.422   4.599  10.181  0.00  0.00    +0.277 C 
ENDBRANCH  30   4
ENDBRANCH   8  20
ENDBRANCH  14   7
TORSDOF 6
ENDMDL
MODEL 10
REMARK VINA RESULT:      -6.7     23.103     24.748
REMARK  Name = 11912182
REMARK  8 active torsions:
REMARK  status: ('A' for Active; 'I' for Inactive)
REMARK    1  A    between atoms: O_4  and  C_30
REMARK    2  A    between atoms: O_4  and  C_34
REMARK    3  A    between atoms: O_5  and  C_33
REMARK    4  A    between atoms: O_5  and  C_35
REMARK    5  A    between atoms: N_6  and  C_13
REMARK    6  A    between atoms: N_7  and  C_14
REMARK    7  A    between atoms: N_8  and  C_20
REMARK    8  A    between atoms: C_19  and  C_23
REMARK                            x       y       z     vdW  Elec       q    Type
REMARK                         _______ _______ _______ _____ _____    ______ ____
ROOT
ATOM      1  O   UNL     1       6.141  12.090   1.825  0.00  0.00    -0.370 OA
ATOM      2  O   UNL     1       5.298  10.638   4.455  0.00  0.00    -0.370 OA
ATOM     11  C   UNL     1       5.842  10.177   3.207  0.00  0.00    +0.171 C 
ATOM     12  C   UNL     1       5.224  11.020   2.108  0.00  0.00    +0.171 C 
ATOM     13  C   UNL     1       7.317  10.491   3.129  0.00  0.00    +0.130 C 
ATOM     14  C   UNL     1       3.957  11.563   2.729  0.00  0.00    +0.131 C 
ATOM     15  C   UNL     1       7.326  11.919   2.615  0.00  0.00    +0.185 C 
ATOM     16  C   UNL     1       4.334  11.670   4.196  0.00  0.00    +0.185 C 
ENDROOT
BRANCH  13   6
ATOM      6  N   UNL     1       7.961   9.613   2.178  0.00  0.00    -0.306 N 
ATOM      9  N   UNL     1       8.633   8.144   3.847  0.00  0.00    -0.214 NA
ATOM     10  N   UNL     1       9.164   7.734   1.531  0.00  0.00    -0.223 NA
ATOM     17  C   UNL     1       8.614   8.445   2.534  0.00  0.00    +0.216 A 
ATOM     19  C   UNL     1       9.279   7.000   4.158  0.00  0.00    +0.076 A 
ATOM     21  C   UNL     1       9.792   6.603   1.914  0.00  0.00    +0.116 A 
ATOM     22  C   UNL     1       9.882   6.182   3.225  0.00  0.00    +0.048 A 
ATOM     36  H   UNL     1       7.897   9.818   1.188  0.00  0.00    +0.149 HD
BRANCH  19  23
ATOM     23  C   UNL     1       9.301   6.674   5.564  0.00  0.00    +0.001 A 
ATOM     26  C   UNL     1       9.807   5.444   5.984  0.00  0.00    +0.013 A 
ATOM     27  C   UNL     1       8.814   7.585   6.501  0.00  0.00    +0.013 A 
ATOM     31  C   UNL     1       9.827   5.125   7.343  0.00  0.00    +0.046 A 
ATOM     32  C   UNL     1       8.833   7.266   7.858  0.00  0.00    +0.046 A 
ATOM     33  C   UNL     1       9.340   6.036   8.280  0.00  0.00    +0.120 A 
BRANCH  33   5
ATOM      5  O   UNL     1       9.361   5.725   9.604  0.00  0.00    -0.495 OA
ATOM     35  C   UNL     1       9.115   4.364   9.956  0.00  0.00    +0.277 C 
ENDBRANCH  33   5
ENDBRANCH  19  23
ENDBRANCH  13   6
BRANCH  14   7
ATOM      3  O   UNL     1       1.389  12.201   1.631  0.00  0.00    -0.252 OA
ATOM      7  N   UNL     1       2.851  10.656   2.537  0.00  0.00    -0.292 N 
ATOM      8  N   UNL     1       0.749   9.961   1.927  0.00  0.00    -0.269 N 
ATOM     18  C   UNL     1       1.624  11.049   1.991  0.00  0.00    +0.304 C 
ATOM     37  H   UNL     1       2.991   9.673   2.748  0.00  0.00    +0.151 HD
ATOM     38  H   UNL     1       1.101   9.072   2.270  0.00  0.00    +0.156 HD
BRANCH   8  20
ATOM     20  C   UNL     1      -0.580   9.944   1.442  0.00  0.00    +0.035 A 
ATOM     24  C   UNL     1      -1.646  10.117   2.325  0.00  0.00    +0.027 A 
ATOM     25  C   UNL     1      -0.824   9.755   0.082  0.00  0.00    +0.027 A 
ATOM     28  C   UNL     1      -2.957  10.101   1.847  0.00  0.00    +0.047 A 
ATOM     29  C   UNL     1      -2.134   9.739  -0.396  0.00  0.00    +0.047 A 
ATOM     30  C   UNL     1      -3.201   9.912   0.487  0.00  0.00    +0.120 A 
BRANCH  30   4
ATOM      4  O   UNL     1      -4.479   9.899   0.020  0.00  0.00    -0.495 OA
ATOM     34  C   UNL     1      -5.434  10.697   0.716  0.00  0.00    +0.277 C 
ENDBRANCH  30   4
ENDBRANCH   8  20
ENDBRANCH  14   7
TORSDOF 6
ENDMDL
