MODEL 1
REMARK VINA RESULT:      -6.4      0.000      0.000
REMARK  Name = 71693076
REMARK  9 active torsions:
REMARK  status: ('A' for Active; 'I' for Inactive)
REMARK    1  A    between atoms: N_1  and  C_12
REMARK    2  A    between atoms: N_2  and  C_19
REMARK    3  A    between atoms: C_4  and  C_8
REMARK    4  A    between atoms: C_6  and  C_12
REMARK    5  A    between atoms: C_7  and  C_11
REMARK    6  A    between atoms: C_8  and  C_13
REMARK    7  A    between atoms: C_8  and  C_14
REMARK    8  A    between atoms: C_9  and  C_15
REMARK    9  A    between atoms: C_11  and  C_16
REMARK                            x       y       z     vdW  Elec       q    Type
REMARK                         _______ _______ _______ _____ _____    ______ ____
ROOT
ATOM      4  C   UNL     1     -16.223   2.521  29.566  0.00  0.00    +0.000 C 
ATOM      5  C   UNL     1     -16.325   3.168  30.954  0.00  0.00    +0.012 C 
ATOM      6  C   UNL     1     -15.160   1.399  29.568  0.00  0.00    +0.029 C 
ATOM      7  C   UNL     1     -14.983   3.733  31.466  0.00  0.00    +0.022 C 
ATOM      9  C   UNL     1     -13.796   2.842  31.132  0.00  0.00    -0.073 C 
ATOM     10  C   UNL     1     -13.898   1.798  30.291  0.00  0.00    -0.023 C 
ATOM     15  C   UNL     1     -12.466   3.204  31.733  0.00  0.00    +0.039 C 
ENDROOT
BRANCH   4   8
ATOM      8  C   UNL     1     -15.927   3.571  28.486  0.00  0.00    -0.013 C 
ATOM     13  C   UNL     1     -16.842   4.779  28.653  0.00  0.00    +0.007 C 
ATOM     14  C   UNL     1     -16.082   2.963  27.096  0.00  0.00    +0.007 C 
ENDBRANCH   4   8
BRANCH   7  11
ATOM     11  C   UNL     1     -15.112   4.016  32.968  0.00  0.00    +0.082 C 
BRANCH  11  16
ATOM      2  N   UNL     1     -14.040   5.570  34.627  0.00  0.00    -0.331 N 
ATOM      3  N   UNL     1     -14.141   6.286  32.525  0.00  0.00    -0.232 NA
ATOM     16  C   UNL     1     -14.432   5.301  33.345  0.00  0.00    +0.111 A 
ATOM     17  C   UNL     1     -13.457   6.812  34.634  0.00  0.00    +0.069 A 
ATOM     18  C   UNL     1     -13.533   7.238  33.311  0.00  0.00    +0.089 A 
ATOM     19  C   UNL     1     -14.207   4.703  35.771  0.00  0.00    +0.150 C 
ATOM     20  C   UNL     1     -12.889   7.575  35.654  0.00  0.00    +0.028 A 
ATOM     21  C   UNL     1     -13.016   8.498  32.968  0.00  0.00    +0.030 A 
ATOM     22  C   UNL     1     -12.378   8.826  35.295  0.00  0.00    +0.002 A 
ATOM     23  C   UNL     1     -12.439   9.281  33.976  0.00  0.00    +0.002 A 
ENDBRANCH  11  16
ENDBRANCH   7  11
BRANCH   6  12
ATOM     12  C   UNL     1     -15.704   0.104  30.181  0.00  0.00    +0.085 C 
BRANCH  12   1
ATOM      1  N   UNL     1     -14.675  -0.920  30.214  0.00  0.00    -0.329 NA
ATOM     24  H   UNL     1     -14.740  -1.516  29.390  0.00  0.00    +0.118 HD
ATOM     25  H   UNL     1     -14.830  -1.531  31.015  0.00  0.00    +0.118 HD
ENDBRANCH  12   1
ENDBRANCH   6  12
TORSDOF 5
ENDMDL
MODEL 2
REMARK VINA RESULT:      -6.3     21.984     25.536
REMARK  Name = 71693076
REMARK  9 active torsions:
REMARK  status: ('A' for Active; 'I' for Inactive)
REMARK    1  A    between atoms: N_1  and  C_12
REMARK    2  A    between atoms: N_2  and  C_19
REMARK    3  A    between atoms: C_4  and  C_8
REMARK    4  A    between atoms: C_6  and  C_12
REMARK    5  A    between atoms: C_7  and  C_11
REMARK    6  A    between atoms: C_8  and  C_13
REMARK    7  A    between atoms: C_8  and  C_14
REMARK    8  A    between atoms: C_9  and  C_15
REMARK    9  A    between atoms: C_11  and  C_16
REMARK                            x       y       z     vdW  Elec       q    Type
REMARK                         _______ _______ _______ _____ _____    ______ ____
ROOT
ATOM      4  C   UNL     1      -5.969 -10.548  17.863  0.00  0.00    +0.000 C 
ATOM      5  C   UNL     1      -4.998 -10.288  16.703  0.00  0.00    +0.012 C 
ATOM      6  C   UNL     1      -5.624 -11.877  18.573  0.00  0.00    +0.029 C 
ATOM      7  C   UNL     1      -4.964 -11.431  15.666  0.00  0.00    +0.022 C 
ATOM      9  C   UNL     1      -5.034 -12.813  16.299  0.00  0.00    -0.073 C 
ATOM     10  C   UNL     1      -5.320 -12.990  17.602  0.00  0.00    -0.023 C 
ATOM     15  C   UNL     1      -4.832 -14.000  15.399  0.00  0.00    +0.039 C 
ENDROOT
BRANCH   4   8
ATOM      8  C   UNL     1      -7.426 -10.533  17.378  0.00  0.00    -0.013 C 
ATOM     13  C   UNL     1      -7.799  -9.151  16.853  0.00  0.00    +0.007 C 
ATOM     14  C   UNL     1      -8.365 -10.956  18.503  0.00  0.00    +0.007 C 
ENDBRANCH   4   8
BRANCH   7  11
ATOM     11  C   UNL     1      -3.729 -11.247  14.774  0.00  0.00    +0.082 C 
BRANCH  11  16
ATOM      2  N   UNL     1      -3.202 -10.516  12.429  0.00  0.00    -0.331 N 
ATOM      3  N   UNL     1      -5.251 -10.070  13.164  0.00  0.00    -0.232 NA
ATOM     16  C   UNL     1      -4.089 -10.604  13.465  0.00  0.00    +0.111 A 
ATOM     17  C   UNL     1      -3.834  -9.881  11.390  0.00  0.00    +0.069 A 
ATOM     18  C   UNL     1      -5.111  -9.613  11.874  0.00  0.00    +0.089 A 
ATOM     19  C   UNL     1      -1.840 -11.002  12.425  0.00  0.00    +0.150 C 
ATOM     20  C   UNL     1      -3.410  -9.530  10.108  0.00  0.00    +0.028 A 
ATOM     21  C   UNL     1      -6.033  -8.956  11.043  0.00  0.00    +0.030 A 
ATOM     22  C   UNL     1      -4.341  -8.877   9.294  0.00  0.00    +0.002 A 
ATOM     23  C   UNL     1      -5.630  -8.594   9.751  0.00  0.00    +0.002 A 
ENDBRANCH  11  16
ENDBRANCH   7  11
BRANCH   6  12
ATOM     12  C   UNL     1      -4.445 -11.714  19.538  0.00  0.00    +0.085 C 
BRANCH  12   1
ATOM      1  N   UNL     1      -3.375 -12.635  19.200  0.00  0.00    -0.329 NA
ATOM     24  H   UNL     1      -2.514 -12.369  19.675  0.00  0.00    +0.118 HD
ATOM     25  H   UNL     1      -3.176 -12.574  18.202  0.00  0.00    +0.118 HD
ENDBRANCH  12   1
ENDBRANCH   6  12
TORSDOF 5
ENDMDL
MODEL 3
REMARK VINA RESULT:      -6.1     21.476     24.911
REMARK  Name = 71693076
REMARK  9 active torsions:
REMARK  status: ('A' for Active; 'I' for Inactive)
REMARK    1  A    between atoms: N_1  and  C_12
REMARK    2  A    between atoms: N_2  and  C_19
REMARK    3  A    between atoms: C_4  and  C_8
REMARK    4  A    between atoms: C_6  and  C_12
REMARK    5  A    between atoms: C_7  and  C_11
REMARK    6  A    between atoms: C_8  and  C_13
REMARK    7  A    between atoms: C_8  and  C_14
REMARK    8  A    between atoms: C_9  and  C_15
REMARK    9  A    between atoms: C_11  and  C_16
REMARK                            x       y       z     vdW  Elec       q    Type
REMARK                         _______ _______ _______ _____ _____    ______ ____
ROOT
ATOM      4  C   UNL     1      -3.969 -11.592  12.703  0.00  0.00    +0.000 C 
ATOM      5  C   UNL     1      -4.427 -11.538  14.167  0.00  0.00    +0.012 C 
ATOM      6  C   UNL     1      -2.502 -12.073  12.612  0.00  0.00    +0.029 C 
ATOM      7  C   UNL     1      -3.537 -10.641  15.054  0.00  0.00    +0.022 C 
ATOM      9  C   UNL     1      -2.056 -10.765  14.729  0.00  0.00    -0.073 C 
ATOM     10  C   UNL     1      -1.614 -11.418  13.639  0.00  0.00    -0.023 C 
ATOM     15  C   UNL     1      -1.084 -10.073  15.644  0.00  0.00    +0.039 C 
ENDROOT
BRANCH   4   8
ATOM      8  C   UNL     1      -4.158 -10.234  12.013  0.00  0.00    -0.013 C 
ATOM     13  C   UNL     1      -5.640  -9.894  11.905  0.00  0.00    +0.007 C 
ATOM     14  C   UNL     1      -3.503 -10.243  10.636  0.00  0.00    +0.007 C 
ENDBRANCH   4   8
BRANCH   7  11
ATOM     11  C   UNL     1      -3.851 -10.941  16.525  0.00  0.00    +0.082 C 
BRANCH  11  16
ATOM      2  N   UNL     1      -6.026 -11.366  17.710  0.00  0.00    -0.331 N 
ATOM      3  N   UNL     1      -5.947  -9.567  16.408  0.00  0.00    -0.232 NA
ATOM     16  C   UNL     1      -5.274 -10.600  16.863  0.00  0.00    +0.111 A 
ATOM     17  C   UNL     1      -7.267 -10.789  17.807  0.00  0.00    +0.069 A 
ATOM     18  C   UNL     1      -7.192  -9.668  16.985  0.00  0.00    +0.089 A 
ATOM     19  C   UNL     1      -5.594 -12.570  18.384  0.00  0.00    +0.150 C 
ATOM     20  C   UNL     1      -8.412 -11.142  18.521  0.00  0.00    +0.028 A 
ATOM     21  C   UNL     1      -8.318  -8.838  16.856  0.00  0.00    +0.030 A 
ATOM     22  C   UNL     1      -9.523 -10.304  18.382  0.00  0.00    +0.002 A 
ATOM     23  C   UNL     1      -9.479  -9.172  17.565  0.00  0.00    +0.002 A 
ENDBRANCH  11  16
ENDBRANCH   7  11
BRANCH   6  12
ATOM     12  C   UNL     1      -2.395 -13.595  12.749  0.00  0.00    +0.085 C 
BRANCH  12   1
ATOM      1  N   UNL     1      -1.095 -13.972  13.275  0.00  0.00    -0.329 NA
ATOM     24  H   UNL     1      -1.078 -13.873  14.288  0.00  0.00    +0.118 HD
ATOM     25  H   UNL     1      -0.386 -13.332  12.918  0.00  0.00    +0.118 HD
ENDBRANCH  12   1
ENDBRANCH   6  12
TORSDOF 5
ENDMDL
MODEL 4
REMARK VINA RESULT:      -6.1     23.811     27.231
REMARK  Name = 71693076
REMARK  9 active torsions:
REMARK  status: ('A' for Active; 'I' for Inactive)
REMARK    1  A    between atoms: N_1  and  C_12
REMARK    2  A    between atoms: N_2  and  C_19
REMARK    3  A    between atoms: C_4  and  C_8
REMARK    4  A    between atoms: C_6  and  C_12
REMARK    5  A    between atoms: C_7  and  C_11
REMARK    6  A    between atoms: C_8  and  C_13
REMARK    7  A    between atoms: C_8  and  C_14
REMARK    8  A    between atoms: C_9  and  C_15
REMARK    9  A    between atoms: C_11  and  C_16
REMARK                            x       y       z     vdW  Elec       q    Type
REMARK                         _______ _______ _______ _____ _____    ______ ____
ROOT
ATOM      4  C   UNL     1      -5.048 -12.294  15.684  0.00  0.00    +0.000 C 
ATOM      5  C   UNL     1      -4.061 -12.757  14.604  0.00  0.00    +0.012 C 
ATOM      6  C   UNL     1      -4.930 -10.769  15.909  0.00  0.00    +0.029 C 
ATOM      7  C   UNL     1      -2.594 -12.397  14.922  0.00  0.00    +0.022 C 
ATOM      9  C   UNL     1      -2.441 -11.017  15.545  0.00  0.00    -0.073 C 
ATOM     10  C   UNL     1      -3.498 -10.302  15.970  0.00  0.00    -0.023 C 
ATOM     15  C   UNL     1      -1.044 -10.492  15.733  0.00  0.00    +0.039 C 
ENDROOT
BRANCH   4   8
ATOM      8  C   UNL     1      -4.843 -13.071  16.993  0.00  0.00    -0.013 C 
ATOM     13  C   UNL     1      -5.199 -14.540  16.800  0.00  0.00    +0.007 C 
ATOM     14  C   UNL     1      -5.674 -12.454  18.113  0.00  0.00    +0.007 C 
ENDBRANCH   4   8
BRANCH   7  11
ATOM     11  C   UNL     1      -1.760 -12.569  13.645  0.00  0.00    +0.082 C 
BRANCH  11  16
ATOM      2  N   UNL     1      -3.058 -12.504  11.495  0.00  0.00    -0.331 N 
ATOM      3  N   UNL     1      -2.349 -10.549  12.280  0.00  0.00    -0.232 NA
ATOM     16  C   UNL     1      -2.379 -11.847  12.483  0.00  0.00    +0.111 A 
ATOM     17  C   UNL     1      -3.494 -11.567  10.593  0.00  0.00    +0.069 A 
ATOM     18  C   UNL     1      -3.039 -10.355  11.105  0.00  0.00    +0.089 A 
ATOM     19  C   UNL     1      -3.278 -13.930  11.411  0.00  0.00    +0.150 C 
ATOM     20  C   UNL     1      -4.225 -11.673   9.409  0.00  0.00    +0.028 A 
ATOM     21  C   UNL     1      -3.321  -9.169  10.407  0.00  0.00    +0.030 A 
ATOM     22  C   UNL     1      -4.497 -10.483   8.729  0.00  0.00    +0.002 A 
ATOM     23  C   UNL     1      -4.054  -9.252   9.217  0.00  0.00    +0.002 A 
ENDBRANCH  11  16
ENDBRANCH   7  11
BRANCH   6  12
ATOM     12  C   UNL     1      -5.673  -9.978  14.827  0.00  0.00    +0.085 C 
BRANCH  12   1
ATOM      1  N   UNL     1      -6.973  -9.546  15.309  0.00  0.00    -0.329 NA
ATOM     24  H   UNL     1      -7.614  -9.410  14.529  0.00  0.00    +0.118 HD
ATOM     25  H   UNL     1      -6.882  -8.637  15.761  0.00  0.00    +0.118 HD
ENDBRANCH  12   1
ENDBRANCH   6  12
TORSDOF 5
ENDMDL
MODEL 5
REMARK VINA RESULT:      -5.8     20.568     23.624
REMARK  Name = 71693076
REMARK  9 active torsions:
REMARK  status: ('A' for Active; 'I' for Inactive)
REMARK    1  A    between atoms: N_1  and  C_12
REMARK    2  A    between atoms: N_2  and  C_19
REMARK    3  A    between atoms: C_4  and  C_8
REMARK    4  A    between atoms: C_6  and  C_12
REMARK    5  A    between atoms: C_7  and  C_11
REMARK    6  A    between atoms: C_8  and  C_13
REMARK    7  A    between atoms: C_8  and  C_14
REMARK    8  A    between atoms: C_9  and  C_15
REMARK    9  A    between atoms: C_11  and  C_16
REMARK                            x       y       z     vdW  Elec       q    Type
REMARK                         _______ _______ _______ _____ _____    ______ ____
ROOT
ATOM      4  C   UNL     1      -3.586 -10.570  15.220  0.00  0.00    +0.000 C 
ATOM      5  C   UNL     1      -4.008 -10.415  16.688  0.00  0.00    +0.012 C 
ATOM      6  C   UNL     1      -4.719 -11.225  14.397  0.00  0.00    +0.029 C 
ATOM      7  C   UNL     1      -4.419 -11.748  17.350  0.00  0.00    +0.022 C 
ATOM      9  C   UNL     1      -5.221 -12.650  16.424  0.00  0.00    -0.073 C 
ATOM     10  C   UNL     1      -5.352 -12.393  15.110  0.00  0.00    -0.023 C 
ATOM     15  C   UNL     1      -5.824 -13.893  17.017  0.00  0.00    +0.039 C 
ENDROOT
BRANCH   4   8
ATOM      8  C   UNL     1      -2.277 -11.362  15.100  0.00  0.00    -0.013 C 
ATOM     13  C   UNL     1      -1.114 -10.557  15.668  0.00  0.00    +0.007 C 
ATOM     14  C   UNL     1      -2.015 -11.739  13.646  0.00  0.00    +0.007 C 
ENDBRANCH   4   8
BRANCH   7  11
ATOM     11  C   UNL     1      -5.153 -11.437  18.661  0.00  0.00    +0.082 C 
BRANCH  11  16
ATOM      2  N   UNL     1      -7.647 -11.343  18.947  0.00  0.00    -0.331 N 
ATOM      3  N   UNL     1      -6.742  -9.774  17.659  0.00  0.00    -0.232 NA
ATOM     16  C   UNL     1      -6.502 -10.829  18.404  0.00  0.00    +0.111 A 
ATOM     17  C   UNL     1      -8.696 -10.567  18.523  0.00  0.00    +0.069 A 
ATOM     18  C   UNL     1      -8.105  -9.594  17.721  0.00  0.00    +0.089 A 
ATOM     19  C   UNL     1      -7.741 -12.497  19.812  0.00  0.00    +0.150 C 
ATOM     20  C   UNL     1     -10.068 -10.631  18.765  0.00  0.00    +0.028 A 
ATOM     21  C   UNL     1      -8.916  -8.620  17.117  0.00  0.00    +0.030 A 
ATOM     22  C   UNL     1     -10.861  -9.652  18.156  0.00  0.00    +0.002 A 
ATOM     23  C   UNL     1     -10.297  -8.664  17.346  0.00  0.00    +0.002 A 
ENDBRANCH  11  16
ENDBRANCH   7  11
BRANCH   6  12
ATOM     12  C   UNL     1      -5.807 -10.212  14.025  0.00  0.00    +0.085 C 
BRANCH  12   1
ATOM      1  N   UNL     1      -5.636  -9.754  12.657  0.00  0.00    -0.329 NA
ATOM     24  H   UNL     1      -5.827 -10.511  12.003  0.00  0.00    +0.118 HD
ATOM     25  H   UNL     1      -4.663  -9.491  12.507  0.00  0.00    +0.118 HD
ENDBRANCH  12   1
ENDBRANCH   6  12
TORSDOF 5
ENDMDL
MODEL 6
REMARK VINA RESULT:      -5.8     10.515     13.027
REMARK  Name = 71693076
REMARK  9 active torsions:
REMARK  status: ('A' for Active; 'I' for Inactive)
REMARK    1  A    between atoms: N_1  and  C_12
REMARK    2  A    between atoms: N_2  and  C_19
REMARK    3  A    between atoms: C_4  and  C_8
REMARK    4  A    between atoms: C_6  and  C_12
REMARK    5  A    between atoms: C_7  and  C_11
REMARK    6  A    between atoms: C_8  and  C_13
REMARK    7  A    between atoms: C_8  and  C_14
REMARK    8  A    between atoms: C_9  and  C_15
REMARK    9  A    between atoms: C_11  and  C_16
REMARK                            x       y       z     vdW  Elec       q    Type
REMARK                         _______ _______ _______ _____ _____    ______ ____
ROOT
ATOM      4  C   UNL     1     -15.914   7.123  21.260  0.00  0.00    +0.000 C 
ATOM      5  C   UNL     1     -15.042   8.362  21.507  0.00  0.00    +0.012 C 
ATOM      6  C   UNL     1     -15.268   5.871  21.894  0.00  0.00    +0.029 C 
ATOM      7  C   UNL     1     -13.598   8.208  20.984  0.00  0.00    +0.022 C 
ATOM      9  C   UNL     1     -13.023   6.820  21.221  0.00  0.00    -0.073 C 
ATOM     10  C   UNL     1     -13.784   5.792  21.638  0.00  0.00    -0.023 C 
ATOM     15  C   UNL     1     -11.567   6.609  20.913  0.00  0.00    +0.039 C 
ENDROOT
BRANCH   4   8
ATOM      8  C   UNL     1     -16.176   6.920  19.760  0.00  0.00    -0.013 C 
ATOM     13  C   UNL     1     -17.055   8.040  19.217  0.00  0.00    +0.007 C 
ATOM     14  C   UNL     1     -16.818   5.560  19.513  0.00  0.00    +0.007 C 
ENDBRANCH   4   8
BRANCH   7  11
ATOM     11  C   UNL     1     -12.736   9.322  21.593  0.00  0.00    +0.082 C 
BRANCH  11  16
ATOM      2  N   UNL     1     -12.442  11.480  20.340  0.00  0.00    -0.331 N 
ATOM      3  N   UNL     1     -11.181   9.775  19.677  0.00  0.00    -0.232 NA
ATOM     16  C   UNL     1     -12.102  10.169  20.526  0.00  0.00    +0.111 A 
ATOM     17  C   UNL     1     -11.690  11.964  19.299  0.00  0.00    +0.069 A 
ATOM     18  C   UNL     1     -10.911  10.880  18.903  0.00  0.00    +0.089 A 
ATOM     19  C   UNL     1     -13.420  12.226  21.100  0.00  0.00    +0.150 C 
ATOM     20  C   UNL     1     -11.628  13.217  18.691  0.00  0.00    +0.028 A 
ATOM     21  C   UNL     1     -10.010  11.040  17.837  0.00  0.00    +0.030 A 
ATOM     22  C   UNL     1     -10.725  13.358  17.632  0.00  0.00    +0.002 A 
ATOM     23  C   UNL     1      -9.930  12.290  17.211  0.00  0.00    +0.002 A 
ENDBRANCH  11  16
ENDBRANCH   7  11
BRANCH   6  12
ATOM     12  C   UNL     1     -15.523   5.805  23.404  0.00  0.00    +0.085 C 
BRANCH  12   1
ATOM      1  N   UNL     1     -14.553   4.939  24.051  0.00  0.00    -0.329 NA
ATOM     24  H   UNL     1     -13.606   5.263  23.862  0.00  0.00    +0.118 HD
ATOM     25  H   UNL     1     -14.615   4.003  23.652  0.00  0.00    +0.118 HD
ENDBRANCH  12   1
ENDBRANCH   6  12
TORSDOF 5
ENDMDL
MODEL 7
REMARK VINA RESULT:      -5.8     31.987     33.800
REMARK  Name = 71693076
REMARK  9 active torsions:
REMARK  status: ('A' for Active; 'I' for Inactive)
REMARK    1  A    between atoms: N_1  and  C_12
REMARK    2  A    between atoms: N_2  and  C_19
REMARK    3  A    between atoms: C_4  and  C_8
REMARK    4  A    between atoms: C_6  and  C_12
REMARK    5  A    between atoms: C_7  and  C_11
REMARK    6  A    between atoms: C_8  and  C_13
REMARK    7  A    between atoms: C_8  and  C_14
REMARK    8  A    between atoms: C_9  and  C_15
REMARK    9  A    between atoms: C_11  and  C_16
REMARK                            x       y       z     vdW  Elec       q    Type
REMARK                         _______ _______ _______ _____ _____    ______ ____
ROOT
ATOM      4  C   UNL     1      19.141   6.956  21.843  0.00  0.00    +0.000 C 
ATOM      5  C   UNL     1      17.839   7.769  21.849  0.00  0.00    +0.012 C 
ATOM      6  C   UNL     1      20.313   7.807  22.382  0.00  0.00    +0.029 C 
ATOM      7  C   UNL     1      17.934   9.082  21.043  0.00  0.00    +0.022 C 
ATOM      9  C   UNL     1      19.269   9.792  21.215  0.00  0.00    -0.073 C 
ATOM     10  C   UNL     1      20.316   9.208  21.826  0.00  0.00    -0.023 C 
ATOM     15  C   UNL     1      19.408  11.165  20.618  0.00  0.00    +0.039 C 
ENDROOT
BRANCH   4   8
ATOM      8  C   UNL     1      19.445   6.407  20.442  0.00  0.00    -0.013 C 
ATOM     13  C   UNL     1      18.178   5.855  19.800  0.00  0.00    +0.007 C 
ATOM     14  C   UNL     1      20.526   5.335  20.515  0.00  0.00    +0.007 C 
ENDBRANCH   4   8
BRANCH   7  11
ATOM     11  C   UNL     1      16.737   9.970  21.409  0.00  0.00    +0.082 C 
BRANCH  11  16
ATOM      2  N   UNL     1      14.243   9.773  21.183  0.00  0.00    -0.331 N 
ATOM      3  N   UNL     1      15.453   8.911  19.531  0.00  0.00    -0.232 NA
ATOM     16  C   UNL     1      15.494   9.539  20.685  0.00  0.00    +0.111 A 
ATOM     17  C   UNL     1      13.334   9.262  20.292  0.00  0.00    +0.069 A 
ATOM     18  C   UNL     1      14.115   8.729  19.269  0.00  0.00    +0.089 A 
ATOM     19  C   UNL     1      13.928  10.440  22.427  0.00  0.00    +0.150 C 
ATOM     20  C   UNL     1      11.940   9.221  20.293  0.00  0.00    +0.028 A 
ATOM     21  C   UNL     1      13.483   8.115  18.176  0.00  0.00    +0.030 A 
ATOM     22  C   UNL     1      11.327   8.607  19.196  0.00  0.00    +0.002 A 
ATOM     23  C   UNL     1      12.083   8.063  18.155  0.00  0.00    +0.002 A 
ENDBRANCH  11  16
ENDBRANCH   7  11
BRANCH   6  12
ATOM     12  C   UNL     1      20.308   7.873  23.913  0.00  0.00    +0.085 C 
BRANCH  12   1
ATOM      1  N   UNL     1      20.034   6.565  24.482  0.00  0.00    -0.329 NA
ATOM     24  H   UNL     1      19.083   6.275  24.263  0.00  0.00    +0.118 HD
ATOM     25  H   UNL     1      20.085   6.620  25.499  0.00  0.00    +0.118 HD
ENDBRANCH  12   1
ENDBRANCH   6  12
TORSDOF 5
ENDMDL
MODEL 8
REMARK VINA RESULT:      -5.7     31.724     33.727
REMARK  Name = 71693076
REMARK  9 active torsions:
REMARK  status: ('A' for Active; 'I' for Inactive)
REMARK    1  A    between atoms: N_1  and  C_12
REMARK    2  A    between atoms: N_2  and  C_19
REMARK    3  A    between atoms: C_4  and  C_8
REMARK    4  A    between atoms: C_6  and  C_12
REMARK    5  A    between atoms: C_7  and  C_11
REMARK    6  A    between atoms: C_8  and  C_13
REMARK    7  A    between atoms: C_8  and  C_14
REMARK    8  A    between atoms: C_9  and  C_15
REMARK    9  A    between atoms: C_11  and  C_16
REMARK                            x       y       z     vdW  Elec       q    Type
REMARK                         _______ _______ _______ _____ _____    ______ ____
ROOT
ATOM      4  C   UNL     1      17.358  -4.339  23.385  0.00  0.00    +0.000 C 
ATOM      5  C   UNL     1      17.195  -4.963  24.778  0.00  0.00    +0.012 C 
ATOM      6  C   UNL     1      18.815  -4.488  22.892  0.00  0.00    +0.029 C 
ATOM      7  C   UNL     1      18.156  -4.370  25.830  0.00  0.00    +0.022 C 
ATOM      9  C   UNL     1      19.549  -4.102  25.280  0.00  0.00    -0.073 C 
ATOM     10  C   UNL     1      19.825  -4.170  23.965  0.00  0.00    -0.023 C 
ATOM     15  C   UNL     1      20.615  -3.690  26.258  0.00  0.00    +0.039 C 
ENDROOT
BRANCH   4   8
ATOM      8  C   UNL     1      16.912  -2.870  23.380  0.00  0.00    -0.013 C 
ATOM     13  C   UNL     1      15.431  -2.764  23.034  0.00  0.00    +0.007 C 
ATOM     14  C   UNL     1      17.755  -2.061  22.401  0.00  0.00    +0.007 C 
ENDBRANCH   4   8
BRANCH   7  11
ATOM     11  C   UNL     1      18.168  -5.291  27.057  0.00  0.00    +0.082 C 
BRANCH  11  16
ATOM      2  N   UNL     1      16.663  -5.233  29.068  0.00  0.00    -0.331 N 
ATOM      3  N   UNL     1      17.840  -3.392  28.663  0.00  0.00    -0.232 NA
ATOM     16  C   UNL     1      17.573  -4.613  28.258  0.00  0.00    +0.111 A 
ATOM     17  C   UNL     1      16.320  -4.353  30.063  0.00  0.00    +0.069 A 
ATOM     18  C   UNL     1      17.068  -3.211  29.788  0.00  0.00    +0.089 A 
ATOM     19  C   UNL     1      16.151  -6.576  28.909  0.00  0.00    +0.150 C 
ATOM     20  C   UNL     1      15.446  -4.455  31.145  0.00  0.00    +0.028 A 
ATOM     21  C   UNL     1      16.948  -2.096  30.633  0.00  0.00    +0.030 A 
ATOM     22  C   UNL     1      15.341  -3.336  31.977  0.00  0.00    +0.002 A 
ATOM     23  C   UNL     1      16.077  -2.176  31.727  0.00  0.00    +0.002 A 
ENDBRANCH  11  16
ENDBRANCH   7  11
BRANCH   6  12
ATOM     12  C   UNL     1      19.087  -5.893  22.344  0.00  0.00    +0.085 C 
BRANCH  12   1
ATOM      1  N   UNL     1      19.743  -5.821  21.050  0.00  0.00    -0.329 NA
ATOM     24  H   UNL     1      20.421  -6.575  20.953  0.00  0.00    +0.118 HD
ATOM     25  H   UNL     1      20.277  -4.954  20.989  0.00  0.00    +0.118 HD
ENDBRANCH  12   1
ENDBRANCH   6  12
TORSDOF 5
ENDMDL
MODEL 9
REMARK VINA RESULT:      -5.7     32.175     34.067
REMARK  Name = 71693076
REMARK  9 active torsions:
REMARK  status: ('A' for Active; 'I' for Inactive)
REMARK    1  A    between atoms: N_1  and  C_12
REMARK    2  A    between atoms: N_2  and  C_19
REMARK    3  A    between atoms: C_4  and  C_8
REMARK    4  A    between atoms: C_6  and  C_12
REMARK    5  A    between atoms: C_7  and  C_11
REMARK    6  A    between atoms: C_8  and  C_13
REMARK    7  A    between atoms: C_8  and  C_14
REMARK    8  A    between atoms: C_9  and  C_15
REMARK    9  A    between atoms: C_11  and  C_16
REMARK                            x       y       z     vdW  Elec       q    Type
REMARK                         _______ _______ _______ _____ _____    ______ ____
ROOT
ATOM      4  C   UNL     1      17.243  -3.092  24.117  0.00  0.00    +0.000 C 
ATOM      5  C   UNL     1      17.471  -3.414  25.601  0.00  0.00    +0.012 C 
ATOM      6  C   UNL     1      18.023  -4.081  23.221  0.00  0.00    +0.029 C 
ATOM      7  C   UNL     1      18.960  -3.410  26.006  0.00  0.00    +0.022 C 
ATOM      9  C   UNL     1      19.867  -4.024  24.950  0.00  0.00    -0.073 C 
ATOM     10  C   UNL     1      19.426  -4.327  23.716  0.00  0.00    -0.023 C 
ATOM     15  C   UNL     1      21.311  -4.232  25.311  0.00  0.00    +0.039 C 
ENDROOT
BRANCH   4   8
ATOM      8  C   UNL     1      17.617  -1.636  23.803  0.00  0.00    -0.013 C 
ATOM     13  C   UNL     1      16.917  -0.687  24.769  0.00  0.00    +0.007 C 
ATOM     14  C   UNL     1      17.263  -1.297  22.359  0.00  0.00    +0.007 C 
ENDBRANCH   4   8
BRANCH   7  11
ATOM     11  C   UNL     1      19.097  -4.086  27.376  0.00  0.00    +0.082 C 
BRANCH  11  16
ATOM      2  N   UNL     1      19.518  -2.263  29.052  0.00  0.00    -0.331 N 
ATOM      3  N   UNL     1      17.471  -3.126  29.027  0.00  0.00    -0.232 NA
ATOM     16  C   UNL     1      18.667  -3.170  28.485  0.00  0.00    +0.111 A 
ATOM     17  C   UNL     1      18.825  -1.589  30.025  0.00  0.00    +0.069 A 
ATOM     18  C   UNL     1      17.549  -2.146  29.989  0.00  0.00    +0.089 A 
ATOM     19  C   UNL     1      20.902  -2.049  28.694  0.00  0.00    +0.150 C 
ATOM     20  C   UNL     1      19.193  -0.571  30.905  0.00  0.00    +0.028 A 
ATOM     21  C   UNL     1      16.571  -1.671  30.879  0.00  0.00    +0.030 A 
ATOM     22  C   UNL     1      18.206  -0.111  31.783  0.00  0.00    +0.002 A 
ATOM     23  C   UNL     1      16.918  -0.649  31.772  0.00  0.00    +0.002 A 
ENDBRANCH  11  16
ENDBRANCH   7  11
BRANCH   6  12
ATOM     12  C   UNL     1      17.293  -5.422  23.088  0.00  0.00    +0.085 C 
BRANCH  12   1
ATOM      1  N   UNL     1      18.119  -6.388  22.387  0.00  0.00    -0.329 NA
ATOM     24  H   UNL     1      18.863  -5.916  21.876  0.00  0.00    +0.118 HD
ATOM     25  H   UNL     1      17.557  -6.868  21.684  0.00  0.00    +0.118 HD
ENDBRANCH  12   1
ENDBRANCH   6  12
TORSDOF 5
ENDMDL
MODEL 10
REMARK VINA RESULT:      -5.7     29.882     31.517
REMARK  Name = 71693076
REMARK  9 active torsions:
REMARK  status: ('A' for Active; 'I' for Inactive)
REMARK    1  A    between atoms: N_1  and  C_12
REMARK    2  A    between atoms: N_2  and  C_19
REMARK    3  A    between atoms: C_4  and  C_8
REMARK    4  A    between atoms: C_6  and  C_12
REMARK    5  A    between atoms: C_7  and  C_11
REMARK    6  A    between atoms: C_8  and  C_13
REMARK    7  A    between atoms: C_8  and  C_14
REMARK    8  A    between atoms: C_9  and  C_15
REMARK    9  A    between atoms: C_11  and  C_16
REMARK                            x       y       z     vdW  Elec       q    Type
REMARK                         _______ _______ _______ _____ _____    ______ ____
ROOT
ATOM      4  C   UNL     1      16.815   8.122  20.160  0.00  0.00    +0.000 C 
ATOM      5  C   UNL     1      15.606   8.909  19.635  0.00  0.00    +0.012 C 
ATOM      6  C   UNL     1      16.504   6.608  20.190  0.00  0.00    +0.029 C 
ATOM      7  C   UNL     1      14.317   8.665  20.447  0.00  0.00    +0.022 C 
ATOM      9  C   UNL     1      14.147   7.215  20.874  0.00  0.00    -0.073 C 
ATOM     10  C   UNL     1      15.133   6.309  20.740  0.00  0.00    -0.023 C 
ATOM     15  C   UNL     1      12.844   6.828  21.517  0.00  0.00    +0.039 C 
ENDROOT
BRANCH   4   8
ATOM      8  C   UNL     1      17.250   8.632  21.542  0.00  0.00    -0.013 C 
ATOM     13  C   UNL     1      17.350  10.153  21.540  0.00  0.00    +0.007 C 
ATOM     14  C   UNL     1      18.578   8.002  21.946  0.00  0.00    +0.007 C 
ENDBRANCH   4   8
BRANCH   7  11
ATOM     11  C   UNL     1      13.123   9.193  19.641  0.00  0.00    +0.082 C 
BRANCH  11  16
ATOM      2  N   UNL     1      11.873  10.851  21.056  0.00  0.00    -0.331 N 
ATOM      3  N   UNL     1      13.232  11.696  19.514  0.00  0.00    -0.232 NA
ATOM     16  C   UNL     1      12.761  10.592  20.049  0.00  0.00    +0.111 A 
ATOM     17  C   UNL     1      11.764  12.213  21.178  0.00  0.00    +0.069 A 
ATOM     18  C   UNL     1      12.622  12.717  20.204  0.00  0.00    +0.089 A 
ATOM     19  C   UNL     1      11.172   9.868  21.851  0.00  0.00    +0.150 C 
ATOM     20  C   UNL     1      11.011  13.021  22.030  0.00  0.00    +0.028 A 
ATOM     21  C   UNL     1      12.748  14.109  20.059  0.00  0.00    +0.030 A 
ATOM     22  C   UNL     1      11.149  14.403  21.871  0.00  0.00    +0.002 A 
ATOM     23  C   UNL     1      12.002  14.940  20.904  0.00  0.00    +0.002 A 
ENDBRANCH  11  16
ENDBRANCH   7  11
BRANCH   6  12
ATOM     12  C   UNL     1      16.639   5.975  18.801  0.00  0.00    +0.085 C 
BRANCH  12   1
ATOM      1  N   UNL     1      17.968   5.419  18.618  0.00  0.00    -0.329 NA
ATOM     24  H   UNL     1      18.042   4.968  17.708  0.00  0.00    +0.118 HD
ATOM     25  H   UNL     1      18.128   4.687  19.309  0.00  0.00    +0.118 HD
ENDBRANCH  12   1
ENDBRANCH   6  12
TORSDOF 5
ENDMDL
