MODEL 1
REMARK VINA RESULT:      -6.9      0.000      0.000
REMARK  Name = 75537012
REMARK  2 active torsions:
REMARK  status: ('A' for Active; 'I' for Inactive)
REMARK    1  A    between atoms: N_4  and  C_8
REMARK    2  A    between atoms: C_19  and  C_20
REMARK                            x       y       z     vdW  Elec       q    Type
REMARK                         _______ _______ _______ _____ _____    ______ ____
ROOT
ATOM      2  O   UNL     1     -17.367   3.022  21.980  0.00  0.00    -0.252 OA
ATOM      3  O   UNL     1     -18.109   0.106  28.285  0.00  0.00    -0.270 OA
ATOM      4  N   UNL     1     -15.699   4.093  23.258  0.00  0.00    -0.281 N 
ATOM      5  N   UNL     1     -16.900   2.450  24.211  0.00  0.00    -0.278 N 
ATOM      6  N   UNL     1     -17.430   1.837  26.869  0.00  0.00    -0.294 N 
ATOM      7  C   UNL     1     -15.904   2.802  25.208  0.00  0.00    +0.112 C 
ATOM      9  C   UNL     1     -15.242   4.052  24.637  0.00  0.00    +0.133 C 
ATOM     12  C   UNL     1     -16.566   2.995  26.569  0.00  0.00    +0.132 C 
ATOM     13  C   UNL     1     -16.733   3.167  23.017  0.00  0.00    +0.305 C 
ATOM     14  C   UNL     1     -17.848   1.383  24.480  0.00  0.00    +0.128 C 
ATOM     18  C   UNL     1     -18.468   1.571  25.863  0.00  0.00    +0.127 C 
ATOM     19  C   UNL     1     -17.360   1.045  28.016  0.00  0.00    +0.247 C 
ENDROOT
BRANCH  19  20
ATOM      1  F   UNL     1     -13.323   2.142  31.734  0.00  0.00    -0.205 F 
ATOM     20  C   UNL     1     -16.300   1.332  28.991  0.00  0.00    +0.037 A 
ATOM     21  C   UNL     1     -16.432   2.410  29.866  0.00  0.00    +0.016 A 
ATOM     22  C   UNL     1     -15.162   0.529  29.043  0.00  0.00    +0.016 A 
ATOM     23  C   UNL     1     -15.427   2.685  30.793  0.00  0.00    +0.039 A 
ATOM     24  C   UNL     1     -14.156   0.802  29.970  0.00  0.00    +0.039 A 
ATOM     25  C   UNL     1     -14.288   1.880  30.844  0.00  0.00    +0.123 A 
ENDBRANCH  19  20
BRANCH   4   8
ATOM      8  C   UNL     1     -15.214   5.077  22.322  0.00  0.00    +0.078 C 
ATOM     10  C   UNL     1     -15.854   6.443  22.588  0.00  0.00    +0.022 C 
ATOM     11  C   UNL     1     -13.686   5.159  22.373  0.00  0.00    +0.022 C 
ATOM     15  C   UNL     1     -15.313   7.511  21.643  0.00  0.00    +0.002 C 
ATOM     16  C   UNL     1     -13.148   6.231  21.428  0.00  0.00    +0.002 C 
ATOM     17  C   UNL     1     -13.790   7.589  21.693  0.00  0.00    +0.000 C 
ENDBRANCH   4   8
TORSDOF 2
ENDMDL
MODEL 2
REMARK VINA RESULT:      -6.8     17.316     18.589
REMARK  Name = 75537012
REMARK  2 active torsions:
REMARK  status: ('A' for Active; 'I' for Inactive)
REMARK    1  A    between atoms: N_4  and  C_8
REMARK    2  A    between atoms: C_19  and  C_20
REMARK                            x       y       z     vdW  Elec       q    Type
REMARK                         _______ _______ _______ _____ _____    ______ ____
ROOT
ATOM      2  O   UNL     1      -5.058 -12.088  18.410  0.00  0.00    -0.252 OA
ATOM      3  O   UNL     1     -11.536  -9.622  19.288  0.00  0.00    -0.270 OA
ATOM      4  N   UNL     1      -5.408 -10.813  16.458  0.00  0.00    -0.281 N 
ATOM      5  N   UNL     1      -6.996 -10.810  18.048  0.00  0.00    -0.278 N 
ATOM      6  N   UNL     1      -9.713 -10.236  17.959  0.00  0.00    -0.294 N 
ATOM      7  C   UNL     1      -7.463  -9.852  17.060  0.00  0.00    +0.112 C 
ATOM      9  C   UNL     1      -6.491 -10.024  15.897  0.00  0.00    +0.133 C 
ATOM     12  C   UNL     1      -8.925 -10.120  16.717  0.00  0.00    +0.132 C 
ATOM     13  C   UNL     1      -5.733 -11.330  17.728  0.00  0.00    +0.305 C 
ATOM     14  C   UNL     1      -7.774 -11.048  19.251  0.00  0.00    +0.128 C 
ATOM     18  C   UNL     1      -9.241 -11.272  18.888  0.00  0.00    +0.127 C 
ATOM     19  C   UNL     1     -10.854  -9.494  18.271  0.00  0.00    +0.247 C 
ENDROOT
BRANCH  19  20
ATOM      1  F   UNL     1     -12.506  -5.549  14.660  0.00  0.00    -0.205 F 
ATOM     20  C   UNL     1     -11.287  -8.459  17.324  0.00  0.00    +0.037 A 
ATOM     21  C   UNL     1     -12.474  -8.620  16.610  0.00  0.00    +0.016 A 
ATOM     22  C   UNL     1     -10.511  -7.316  17.136  0.00  0.00    +0.016 A 
ATOM     23  C   UNL     1     -12.886  -7.638  15.710  0.00  0.00    +0.039 A 
ATOM     24  C   UNL     1     -10.923  -6.332  16.237  0.00  0.00    +0.039 A 
ATOM     25  C   UNL     1     -12.110  -6.494  15.523  0.00  0.00    +0.123 A 
ENDBRANCH  19  20
BRANCH   4   8
ATOM      8  C   UNL     1      -4.214 -11.114  15.705  0.00  0.00    +0.078 C 
ATOM     10  C   UNL     1      -4.335 -10.600  14.268  0.00  0.00    +0.022 C 
ATOM     11  C   UNL     1      -2.980 -10.536  16.402  0.00  0.00    +0.022 C 
ATOM     15  C   UNL     1      -3.061 -10.860  13.469  0.00  0.00    +0.002 C 
ATOM     16  C   UNL     1      -1.708 -10.795  15.599  0.00  0.00    +0.002 C 
ATOM     17  C   UNL     1      -1.831 -10.285  14.167  0.00  0.00    +0.000 C 
ENDBRANCH   4   8
TORSDOF 2
ENDMDL
MODEL 3
REMARK VINA RESULT:      -6.8     17.977     19.153
REMARK  Name = 75537012
REMARK  2 active torsions:
REMARK  status: ('A' for Active; 'I' for Inactive)
REMARK    1  A    between atoms: N_4  and  C_8
REMARK    2  A    between atoms: C_19  and  C_20
REMARK                            x       y       z     vdW  Elec       q    Type
REMARK                         _______ _______ _______ _____ _____    ______ ____
ROOT
ATOM      2  O   UNL     1     -10.497  -9.661  18.852  0.00  0.00    -0.252 OA
ATOM      3  O   UNL     1      -3.910 -11.989  18.914  0.00  0.00    -0.270 OA
ATOM      4  N   UNL     1      -9.757  -9.213  16.659  0.00  0.00    -0.281 N 
ATOM      5  N   UNL     1      -8.383 -10.310  18.059  0.00  0.00    -0.278 N 
ATOM      6  N   UNL     1      -5.623 -10.638  18.076  0.00  0.00    -0.294 N 
ATOM      7  C   UNL     1      -7.683 -10.306  16.785  0.00  0.00    +0.112 C 
ATOM      9  C   UNL     1      -8.523  -9.380  15.911  0.00  0.00    +0.133 C 
ATOM     12  C   UNL     1      -6.236  -9.862  16.980  0.00  0.00    +0.132 C 
ATOM     13  C   UNL     1      -9.654  -9.724  17.968  0.00  0.00    +0.305 C 
ATOM     14  C   UNL     1      -7.790 -10.971  19.208  0.00  0.00    +0.128 C 
ATOM     18  C   UNL     1      -6.331 -10.546  19.361  0.00  0.00    +0.127 C 
ATOM     19  C   UNL     1      -4.443 -11.378  17.988  0.00  0.00    +0.247 C 
ENDROOT
BRANCH  19  20
ATOM      1  F   UNL     1      -1.888 -11.684  13.017  0.00  0.00    -0.205 F 
ATOM     20  C   UNL     1      -3.772 -11.458  16.684  0.00  0.00    +0.037 A 
ATOM     21  C   UNL     1      -4.190 -12.398  15.742  0.00  0.00    +0.016 A 
ATOM     22  C   UNL     1      -2.718 -10.595  16.387  0.00  0.00    +0.016 A 
ATOM     23  C   UNL     1      -3.554 -12.475  14.503  0.00  0.00    +0.039 A 
ATOM     24  C   UNL     1      -2.081 -10.671  15.148  0.00  0.00    +0.039 A 
ATOM     25  C   UNL     1      -2.499 -11.611  14.207  0.00  0.00    +0.123 A 
ENDBRANCH  19  20
BRANCH   4   8
ATOM      8  C   UNL     1     -10.880  -8.483  16.125  0.00  0.00    +0.078 C 
ATOM     10  C   UNL     1     -10.833  -7.016  16.562  0.00  0.00    +0.022 C 
ATOM     11  C   UNL     1     -10.927  -8.608  14.600  0.00  0.00    +0.022 C 
ATOM     15  C   UNL     1     -11.983  -6.213  15.963  0.00  0.00    +0.002 C 
ATOM     16  C   UNL     1     -12.077  -7.801  14.003  0.00  0.00    +0.002 C 
ATOM     17  C   UNL     1     -12.029  -6.341  14.443  0.00  0.00    +0.000 C 
ENDBRANCH   4   8
TORSDOF 2
ENDMDL
MODEL 4
REMARK VINA RESULT:      -6.7     28.268     29.907
REMARK  Name = 75537012
REMARK  2 active torsions:
REMARK  status: ('A' for Active; 'I' for Inactive)
REMARK    1  A    between atoms: N_4  and  C_8
REMARK    2  A    between atoms: C_19  and  C_20
REMARK                            x       y       z     vdW  Elec       q    Type
REMARK                         _______ _______ _______ _____ _____    ______ ____
ROOT
ATOM      2  O   UNL     1      10.902  10.700  24.861  0.00  0.00    -0.252 OA
ATOM      3  O   UNL     1      12.007   6.483  19.401  0.00  0.00    -0.270 OA
ATOM      4  N   UNL     1      11.532  12.199  23.153  0.00  0.00    -0.281 N 
ATOM      5  N   UNL     1      11.300  10.022  22.646  0.00  0.00    -0.278 N 
ATOM      6  N   UNL     1      12.330   8.475  20.581  0.00  0.00    -0.294 N 
ATOM      7  C   UNL     1      11.570  10.668  21.373  0.00  0.00    +0.112 C 
ATOM      9  C   UNL     1      11.934  12.098  21.760  0.00  0.00    +0.133 C 
ATOM     12  C   UNL     1      12.659   9.912  20.619  0.00  0.00    +0.132 C 
ATOM     13  C   UNL     1      11.202  10.943  23.699  0.00  0.00    +0.305 C 
ATOM     14  C   UNL     1      11.064   8.590  22.696  0.00  0.00    +0.128 C 
ATOM     18  C   UNL     1      12.141   7.855  21.900  0.00  0.00    +0.127 C 
ATOM     19  C   UNL     1      12.239   7.691  19.429  0.00  0.00    +0.247 C 
ENDROOT
BRANCH  19  20
ATOM      1  F   UNL     1      12.925  10.199  14.473  0.00  0.00    -0.205 F 
ATOM     20  C   UNL     1      12.420   8.349  18.129  0.00  0.00    +0.037 A 
ATOM     21  C   UNL     1      11.313   8.616  17.324  0.00  0.00    +0.016 A 
ATOM     22  C   UNL     1      13.697   8.706  17.698  0.00  0.00    +0.016 A 
ATOM     23  C   UNL     1      11.483   9.241  16.088  0.00  0.00    +0.039 A 
ATOM     24  C   UNL     1      13.868   9.331  16.463  0.00  0.00    +0.039 A 
ATOM     25  C   UNL     1      12.761   9.598  15.658  0.00  0.00    +0.123 A 
ENDBRANCH  19  20
BRANCH   4   8
ATOM      8  C   UNL     1      11.608  13.442  23.881  0.00  0.00    +0.078 C 
ATOM     10  C   UNL     1      10.207  13.979  24.186  0.00  0.00    +0.022 C 
ATOM     11  C   UNL     1      12.428  13.266  25.161  0.00  0.00    +0.022 C 
ATOM     15  C   UNL     1      10.263  15.266  25.003  0.00  0.00    +0.002 C 
ATOM     16  C   UNL     1      12.480  14.555  25.978  0.00  0.00    +0.002 C 
ATOM     17  C   UNL     1      11.084  15.089  26.277  0.00  0.00    +0.000 C 
ENDBRANCH   4   8
TORSDOF 2
ENDMDL
MODEL 5
REMARK VINA RESULT:      -6.7     19.437     20.471
REMARK  Name = 75537012
REMARK  2 active torsions:
REMARK  status: ('A' for Active; 'I' for Inactive)
REMARK    1  A    between atoms: N_4  and  C_8
REMARK    2  A    between atoms: C_19  and  C_20
REMARK                            x       y       z     vdW  Elec       q    Type
REMARK                         _______ _______ _______ _____ _____    ______ ____
ROOT
ATOM      2  O   UNL     1      -1.852 -11.011  13.976  0.00  0.00    -0.252 OA
ATOM      3  O   UNL     1      -6.022 -10.796  19.577  0.00  0.00    -0.270 OA
ATOM      4  N   UNL     1      -3.963 -10.524  13.045  0.00  0.00    -0.281 N 
ATOM      5  N   UNL     1      -3.768 -10.634  15.282  0.00  0.00    -0.278 N 
ATOM      6  N   UNL     1      -5.636 -11.082  17.289  0.00  0.00    -0.294 N 
ATOM      7  C   UNL     1      -5.138 -10.207  15.052  0.00  0.00    +0.112 C 
ATOM      9  C   UNL     1      -5.316 -10.344  13.543  0.00  0.00    +0.133 C 
ATOM     12  C   UNL     1      -6.099 -11.047  15.889  0.00  0.00    +0.132 C 
ATOM     13  C   UNL     1      -3.042 -10.751  14.088  0.00  0.00    +0.305 C 
ATOM     14  C   UNL     1      -3.275 -10.785  16.639  0.00  0.00    +0.128 C 
ATOM     18  C   UNL     1      -4.270 -11.593  17.470  0.00  0.00    +0.127 C 
ATOM     19  C   UNL     1      -6.395 -10.725  18.406  0.00  0.00    +0.247 C 
ENDROOT
BRANCH  19  20
ATOM      1  F   UNL     1     -11.560  -8.744  17.560  0.00  0.00    -0.205 F 
ATOM     20  C   UNL     1      -7.750 -10.206  18.184  0.00  0.00    +0.037 A 
ATOM     21  C   UNL     1      -7.939  -9.057  17.417  0.00  0.00    +0.016 A 
ATOM     22  C   UNL     1      -8.848 -10.860  18.741  0.00  0.00    +0.016 A 
ATOM     23  C   UNL     1      -9.226  -8.562  17.206  0.00  0.00    +0.039 A 
ATOM     24  C   UNL     1     -10.136 -10.366  18.530  0.00  0.00    +0.039 A 
ATOM     25  C   UNL     1     -10.324  -9.217  17.763  0.00  0.00    +0.123 A 
ENDBRANCH  19  20
BRANCH   4   8
ATOM      8  C   UNL     1      -3.672 -10.588  11.634  0.00  0.00    +0.078 C 
ATOM     10  C   UNL     1      -4.341 -11.809  10.996  0.00  0.00    +0.022 C 
ATOM     11  C   UNL     1      -4.097  -9.293  10.938  0.00  0.00    +0.022 C 
ATOM     15  C   UNL     1      -4.090 -11.866   9.492  0.00  0.00    +0.002 C 
ATOM     16  C   UNL     1      -3.848  -9.354   9.433  0.00  0.00    +0.002 C 
ATOM     17  C   UNL     1      -4.513 -10.573   8.801  0.00  0.00    +0.000 C 
ENDBRANCH   4   8
TORSDOF 2
ENDMDL
MODEL 6
REMARK VINA RESULT:      -6.6     20.655     22.950
REMARK  Name = 75537012
REMARK  2 active torsions:
REMARK  status: ('A' for Active; 'I' for Inactive)
REMARK    1  A    between atoms: N_4  and  C_8
REMARK    2  A    between atoms: C_19  and  C_20
REMARK                            x       y       z     vdW  Elec       q    Type
REMARK                         _______ _______ _______ _____ _____    ______ ____
ROOT
ATOM      2  O   UNL     1      -5.150 -10.680   6.613  0.00  0.00    -0.252 OA
ATOM      3  O   UNL     1     -10.813  -6.656   5.874  0.00  0.00    -0.270 OA
ATOM      4  N   UNL     1      -5.355  -9.662   8.730  0.00  0.00    -0.281 N 
ATOM      5  N   UNL     1      -6.942  -9.274   7.187  0.00  0.00    -0.278 N 
ATOM      6  N   UNL     1      -8.786  -7.215   6.895  0.00  0.00    -0.294 N 
ATOM      7  C   UNL     1      -7.425  -8.610   8.386  0.00  0.00    +0.112 C 
ATOM      9  C   UNL     1      -6.248  -8.699   9.351  0.00  0.00    +0.133 C 
ATOM     12  C   UNL     1      -7.876  -7.190   8.056  0.00  0.00    +0.132 C 
ATOM     13  C   UNL     1      -5.743  -9.966   7.410  0.00  0.00    +0.305 C 
ATOM     14  C   UNL     1      -7.743  -9.254   5.975  0.00  0.00    +0.128 C 
ATOM     18  C   UNL     1      -8.219  -7.831   5.687  0.00  0.00    +0.127 C 
ATOM     19  C   UNL     1     -10.072  -6.673   6.857  0.00  0.00    +0.247 C 
ENDROOT
BRANCH  19  20
ATOM      1  F   UNL     1     -12.119  -4.406  11.547  0.00  0.00    -0.205 F 
ATOM     20  C   UNL     1     -10.609  -6.079   8.087  0.00  0.00    +0.037 A 
ATOM     21  C   UNL     1     -10.399  -4.727   8.357  0.00  0.00    +0.016 A 
ATOM     22  C   UNL     1     -11.328  -6.865   8.986  0.00  0.00    +0.016 A 
ATOM     23  C   UNL     1     -10.908  -4.161   9.526  0.00  0.00    +0.039 A 
ATOM     24  C   UNL     1     -11.839  -6.300  10.155  0.00  0.00    +0.039 A 
ATOM     25  C   UNL     1     -11.628  -4.949  10.425  0.00  0.00    +0.123 A 
ENDBRANCH  19  20
BRANCH   4   8
ATOM      8  C   UNL     1      -4.153 -10.119   9.382  0.00  0.00    +0.078 C 
ATOM     10  C   UNL     1      -3.464  -8.968  10.120  0.00  0.00    +0.022 C 
ATOM     11  C   UNL     1      -4.463 -11.281  10.328  0.00  0.00    +0.022 C 
ATOM     15  C   UNL     1      -2.218  -9.441  10.862  0.00  0.00    +0.002 C 
ATOM     16  C   UNL     1      -3.215 -11.750  11.072  0.00  0.00    +0.002 C 
ATOM     17  C   UNL     1      -2.529 -10.601  11.803  0.00  0.00    +0.000 C 
ENDBRANCH   4   8
TORSDOF 2
ENDMDL
MODEL 7
REMARK VINA RESULT:      -6.3      1.543      2.269
REMARK  Name = 75537012
REMARK  2 active torsions:
REMARK  status: ('A' for Active; 'I' for Inactive)
REMARK    1  A    between atoms: N_4  and  C_8
REMARK    2  A    between atoms: C_19  and  C_20
REMARK                            x       y       z     vdW  Elec       q    Type
REMARK                         _______ _______ _______ _____ _____    ______ ____
ROOT
ATOM      2  O   UNL     1     -17.139   2.137  22.713  0.00  0.00    -0.252 OA
ATOM      3  O   UNL     1     -16.499   0.135  29.376  0.00  0.00    -0.270 OA
ATOM      4  N   UNL     1     -16.451   4.116  23.796  0.00  0.00    -0.281 N 
ATOM      5  N   UNL     1     -16.572   2.216  24.992  0.00  0.00    -0.278 N 
ATOM      6  N   UNL     1     -16.829   1.751  27.720  0.00  0.00    -0.294 N 
ATOM      7  C   UNL     1     -16.013   3.194  25.911  0.00  0.00    +0.112 C 
ATOM      9  C   UNL     1     -16.138   4.515  25.158  0.00  0.00    +0.133 C 
ATOM     12  C   UNL     1     -16.752   3.146  27.245  0.00  0.00    +0.132 C 
ATOM     13  C   UNL     1     -16.764   2.745  23.707  0.00  0.00    +0.305 C 
ATOM     14  C   UNL     1     -16.767   0.844  25.426  0.00  0.00    +0.128 C 
ATOM     18  C   UNL     1     -17.471   0.819  26.782  0.00  0.00    +0.127 C 
ATOM     19  C   UNL     1     -16.395   1.291  28.964  0.00  0.00    +0.247 C 
ENDROOT
BRANCH  19  20
ATOM      1  F   UNL     1     -13.918   4.940  32.410  0.00  0.00    -0.205 F 
ATOM     20  C   UNL     1     -15.746   2.248  29.869  0.00  0.00    +0.037 A 
ATOM     21  C   UNL     1     -14.357   2.254  29.995  0.00  0.00    +0.016 A 
ATOM     22  C   UNL     1     -16.517   3.150  30.601  0.00  0.00    +0.016 A 
ATOM     23  C   UNL     1     -13.739   3.163  30.854  0.00  0.00    +0.039 A 
ATOM     24  C   UNL     1     -15.899   4.060  31.460  0.00  0.00    +0.039 A 
ATOM     25  C   UNL     1     -14.511   4.066  31.586  0.00  0.00    +0.123 A 
ENDBRANCH  19  20
BRANCH   4   8
ATOM      8  C   UNL     1     -16.547   5.074  22.723  0.00  0.00    +0.078 C 
ATOM     10  C   UNL     1     -15.233   5.147  21.940  0.00  0.00    +0.022 C 
ATOM     11  C   UNL     1     -17.724   4.737  21.805  0.00  0.00    +0.022 C 
ATOM     15  C   UNL     1     -15.331   6.117  20.766  0.00  0.00    +0.002 C 
ATOM     16  C   UNL     1     -17.818   5.706  20.629  0.00  0.00    +0.002 C 
ATOM     17  C   UNL     1     -16.507   5.780  19.854  0.00  0.00    +0.000 C 
ENDBRANCH   4   8
TORSDOF 2
ENDMDL
MODEL 8
REMARK VINA RESULT:      -6.2     33.056     35.629
REMARK  Name = 75537012
REMARK  2 active torsions:
REMARK  status: ('A' for Active; 'I' for Inactive)
REMARK    1  A    between atoms: N_4  and  C_8
REMARK    2  A    between atoms: C_19  and  C_20
REMARK                            x       y       z     vdW  Elec       q    Type
REMARK                         _______ _______ _______ _____ _____    ______ ____
ROOT
ATOM      2  O   UNL     1      16.127   9.210  21.188  0.00  0.00    -0.252 OA
ATOM      3  O   UNL     1      22.808   7.636  22.488  0.00  0.00    -0.270 OA
ATOM      4  N   UNL     1      16.339   7.034  20.305  0.00  0.00    -0.281 N 
ATOM      5  N   UNL     1      18.091   7.936  21.385  0.00  0.00    -0.278 N 
ATOM      6  N   UNL     1      20.813   7.385  21.296  0.00  0.00    -0.294 N 
ATOM      7  C   UNL     1      18.507   6.577  21.083  0.00  0.00    +0.112 C 
ATOM      9  C   UNL     1      17.402   6.053  20.170  0.00  0.00    +0.133 C 
ATOM     12  C   UNL     1      19.901   6.578  20.463  0.00  0.00    +0.132 C 
ATOM     13  C   UNL     1      16.770   8.189  20.989  0.00  0.00    +0.305 C 
ATOM     14  C   UNL     1      18.982   8.820  22.118  0.00  0.00    +0.128 C 
ATOM     18  C   UNL     1      20.382   8.774  21.508  0.00  0.00    +0.127 C 
ATOM     19  C   UNL     1      22.028   6.949  21.830  0.00  0.00    +0.247 C 
ENDROOT
BRANCH  19  20
ATOM      1  F   UNL     1      23.515   1.619  20.989  0.00  0.00    -0.205 F 
ATOM     20  C   UNL     1      22.418   5.551  21.609  0.00  0.00    +0.037 A 
ATOM     21  C   UNL     1      21.807   4.533  22.341  0.00  0.00    +0.016 A 
ATOM     22  C   UNL     1      23.400   5.240  20.669  0.00  0.00    +0.016 A 
ATOM     23  C   UNL     1      22.177   3.205  22.132  0.00  0.00    +0.039 A 
ATOM     24  C   UNL     1      23.771   3.912  20.460  0.00  0.00    +0.039 A 
ATOM     25  C   UNL     1      23.160   2.894  21.191  0.00  0.00    +0.123 A 
ENDBRANCH  19  20
BRANCH   4   8
ATOM      8  C   UNL     1      15.052   6.856  19.679  0.00  0.00    +0.078 C 
ATOM     10  C   UNL     1      13.926   6.955  20.712  0.00  0.00    +0.022 C 
ATOM     11  C   UNL     1      14.861   7.869  18.548  0.00  0.00    +0.022 C 
ATOM     15  C   UNL     1      12.553   6.823  20.061  0.00  0.00    +0.002 C 
ATOM     16  C   UNL     1      13.484   7.737  17.901  0.00  0.00    +0.002 C 
ATOM     17  C   UNL     1      12.365   7.832  18.932  0.00  0.00    +0.000 C 
ENDBRANCH   4   8
TORSDOF 2
ENDMDL
MODEL 9
REMARK VINA RESULT:      -6.1     31.624     35.499
REMARK  Name = 75537012
REMARK  2 active torsions:
REMARK  status: ('A' for Active; 'I' for Inactive)
REMARK    1  A    between atoms: N_4  and  C_8
REMARK    2  A    between atoms: C_19  and  C_20
REMARK                            x       y       z     vdW  Elec       q    Type
REMARK                         _______ _______ _______ _____ _____    ______ ____
ROOT
ATOM      2  O   UNL     1      14.371   9.342   2.333  0.00  0.00    -0.252 OA
ATOM      3  O   UNL     1       8.247   7.101   4.838  0.00  0.00    -0.270 OA
ATOM      4  N   UNL     1      14.945   8.503   4.461  0.00  0.00    -0.281 N 
ATOM      5  N   UNL     1      12.828   8.267   3.743  0.00  0.00    -0.278 N 
ATOM      6  N   UNL     1      10.438   7.869   5.103  0.00  0.00    -0.294 N 
ATOM      7  C   UNL     1      12.869   7.552   5.007  0.00  0.00    +0.112 C 
ATOM      9  C   UNL     1      14.239   7.901   5.579  0.00  0.00    +0.133 C 
ATOM     12  C   UNL     1      11.688   7.961   5.882  0.00  0.00    +0.132 C 
ATOM     13  C   UNL     1      14.085   8.772   3.378  0.00  0.00    +0.305 C 
ATOM     14  C   UNL     1      11.600   8.301   2.969  0.00  0.00    +0.128 C 
ATOM     18  C   UNL     1      10.424   8.672   3.871  0.00  0.00    +0.127 C 
ATOM     19  C   UNL     1       9.303   7.142   5.468  0.00  0.00    +0.247 C 
ENDROOT
BRANCH  19  20
ATOM      1  F   UNL     1       9.521   4.091  10.155  0.00  0.00    -0.205 F 
ATOM     20  C   UNL     1       9.361   6.341   6.697  0.00  0.00    +0.037 A 
ATOM     21  C   UNL     1       8.985   6.907   7.915  0.00  0.00    +0.016 A 
ATOM     22  C   UNL     1       9.792   5.016   6.648  0.00  0.00    +0.016 A 
ATOM     23  C   UNL     1       9.038   6.147   9.083  0.00  0.00    +0.039 A 
ATOM     24  C   UNL     1       9.846   4.255   7.816  0.00  0.00    +0.039 A 
ATOM     25  C   UNL     1       9.470   4.821   9.033  0.00  0.00    +0.123 A 
ENDBRANCH  19  20
BRANCH   4   8
ATOM      8  C   UNL     1      16.333   8.883   4.550  0.00  0.00    +0.078 C 
ATOM     10  C   UNL     1      16.809   8.863   6.006  0.00  0.00    +0.022 C 
ATOM     11  C   UNL     1      17.197   7.978   3.669  0.00  0.00    +0.022 C 
ATOM     15  C   UNL     1      18.291   9.210   6.118  0.00  0.00    +0.002 C 
ATOM     16  C   UNL     1      18.679   8.325   3.786  0.00  0.00    +0.002 C 
ATOM     17  C   UNL     1      19.149   8.307   5.237  0.00  0.00    +0.000 C 
ENDBRANCH   4   8
TORSDOF 2
ENDMDL
MODEL 10
REMARK VINA RESULT:      -6.1     32.726     36.654
REMARK  Name = 75537012
REMARK  2 active torsions:
REMARK  status: ('A' for Active; 'I' for Inactive)
REMARK    1  A    between atoms: N_4  and  C_8
REMARK    2  A    between atoms: C_19  and  C_20
REMARK                            x       y       z     vdW  Elec       q    Type
REMARK                         _______ _______ _______ _____ _____    ______ ____
ROOT
ATOM      2  O   UNL     1      16.576  11.539   5.799  0.00  0.00    -0.252 OA
ATOM      3  O   UNL     1      10.072   9.503   7.335  0.00  0.00    -0.270 OA
ATOM      4  N   UNL     1      16.687   9.195   5.568  0.00  0.00    -0.281 N 
ATOM      5  N   UNL     1      14.699  10.142   6.019  0.00  0.00    -0.278 N 
ATOM      6  N   UNL     1      12.371   9.129   7.148  0.00  0.00    -0.294 N 
ATOM      7  C   UNL     1      14.399   8.734   5.825  0.00  0.00    +0.112 C 
ATOM      9  C   UNL     1      15.773   8.077   5.734  0.00  0.00    +0.133 C 
ATOM     12  C   UNL     1      13.520   8.221   6.962  0.00  0.00    +0.132 C 
ATOM     13  C   UNL     1      16.052  10.433   5.792  0.00  0.00    +0.305 C 
ATOM     14  C   UNL     1      13.626  11.078   6.305  0.00  0.00    +0.128 C 
ATOM     18  C   UNL     1      12.734  10.527   7.416  0.00  0.00    +0.127 C 
ATOM     19  C   UNL     1      11.027   8.752   7.137  0.00  0.00    +0.247 C 
ENDROOT
BRANCH  19  20
ATOM      1  F   UNL     1       9.795   3.402   6.050  0.00  0.00    -0.205 F 
ATOM     20  C   UNL     1      10.703   7.349   6.852  0.00  0.00    +0.037 A 
ATOM     21  C   UNL     1      10.758   6.873   5.542  0.00  0.00    +0.016 A 
ATOM     22  C   UNL     1      10.341   6.491   7.890  0.00  0.00    +0.016 A 
ATOM     23  C   UNL     1      10.451   5.540   5.270  0.00  0.00    +0.039 A 
ATOM     24  C   UNL     1      10.034   5.158   7.619  0.00  0.00    +0.039 A 
ATOM     25  C   UNL     1      10.089   4.682   6.309  0.00  0.00    +0.123 A 
ENDBRANCH  19  20
BRANCH   4   8
ATOM      8  C   UNL     1      18.097   8.999   5.334  0.00  0.00    +0.078 C 
ATOM     10  C   UNL     1      18.785   8.455   6.588  0.00  0.00    +0.022 C 
ATOM     11  C   UNL     1      18.319   8.078   4.132  0.00  0.00    +0.022 C 
ATOM     15  C   UNL     1      20.268   8.191   6.346  0.00  0.00    +0.002 C 
ATOM     16  C   UNL     1      19.803   7.812   3.894  0.00  0.00    +0.002 C 
ATOM     17  C   UNL     1      20.488   7.274   5.146  0.00  0.00    +0.000 C 
ENDBRANCH   4   8
TORSDOF 2
ENDMDL
