MODEL 1
REMARK VINA RESULT:      -6.6      0.000      0.000
REMARK  Name = 75536523
REMARK  12 active torsions:
REMARK  status: ('A' for Active; 'I' for Inactive)
REMARK    1  A    between atoms: O_2  and  C_8
REMARK    2  A    between atoms: O_4  and  C_20
REMARK    3  A    between atoms: N_5  and  C_7
REMARK    4  A    between atoms: N_5  and  C_13
REMARK    5  A    between atoms: N_6  and  C_11
REMARK    6  A    between atoms: C_9  and  C_11
REMARK    7  A    between atoms: C_12  and  C_14
REMARK    8  A    between atoms: C_12  and  C_16
REMARK    9  A    between atoms: C_12  and  C_17
REMARK   10  A    between atoms: C_12  and  C_18
REMARK   11  A    between atoms: C_13  and  C_19
REMARK   12  A    between atoms: C_14  and  C_15
REMARK                            x       y       z     vdW  Elec       q    Type
REMARK                         _______ _______ _______ _____ _____    ______ ____
ROOT
ATOM      1  O   UNL     1     -17.575   3.743  26.340  0.00  0.00    -0.371 OA
ATOM      7  C   UNL     1     -16.577   4.812  24.469  0.00  0.00    +0.111 C 
ATOM      8  C   UNL     1     -16.000   3.415  24.607  0.00  0.00    +0.164 C 
ATOM      9  C   UNL     1     -17.075   2.736  25.445  0.00  0.00    +0.165 C 
ATOM     10  C   UNL     1     -17.165   5.032  25.854  0.00  0.00    +0.181 C 
ENDROOT
BRANCH   8   2
ATOM      2  O   UNL     1     -15.821   2.774  23.358  0.00  0.00    -0.388 OA
ATOM     27  H   UNL     1     -16.463   2.047  23.294  0.00  0.00    +0.210 HD
ENDBRANCH   8   2
BRANCH   7   5
ATOM      5  N   UNL     1     -15.591   5.818  24.106  0.00  0.00    -0.305 NA
ATOM     25  H   UNL     1     -14.657   5.426  24.230  0.00  0.00    +0.123 HD
BRANCH   5  13
ATOM     13  C   UNL     1     -15.751   6.233  22.718  0.00  0.00    +0.120 C 
BRANCH  13  19
ATOM     19  C   UNL     1     -14.438   6.631  22.098  0.00  0.00    +0.008 A 
ATOM     20  C   UNL     1     -13.478   5.669  21.783  0.00  0.00    +0.121 A 
ATOM     21  C   UNL     1     -14.187   7.978  21.839  0.00  0.00    +0.008 A 
ATOM     22  C   UNL     1     -12.267   6.054  21.208  0.00  0.00    +0.046 A 
ATOM     23  C   UNL     1     -12.975   8.364  21.265  0.00  0.00    +0.001 A 
ATOM     24  C   UNL     1     -12.015   7.402  20.950  0.00  0.00    +0.004 A 
BRANCH  20   4
ATOM      4  O   UNL     1     -13.707   4.348  22.030  0.00  0.00    -0.506 OA
ATOM     28  H   UNL     1     -12.931   3.970  22.479  0.00  0.00    +0.292 HD
ENDBRANCH  20   4
ENDBRANCH  13  19
ENDBRANCH   5  13
ENDBRANCH   7   5
BRANCH   9  11
ATOM     11  C   UNL     1     -16.555   1.553  26.242  0.00  0.00    +0.138 C 
BRANCH  11   6
ATOM      3  O   UNL     1     -17.324   0.186  28.677  0.00  0.00    -0.276 OA
ATOM      6  N   UNL     1     -16.231   1.930  27.599  0.00  0.00    -0.313 N 
ATOM     15  C   UNL     1     -16.645   1.211  28.707  0.00  0.00    +0.214 C 
ATOM     26  H   UNL     1     -15.663   2.763  27.730  0.00  0.00    +0.149 HD
BRANCH  15  14
ATOM     14  C   UNL     1     -16.180   1.820  30.019  0.00  0.00    +0.102 C 
BRANCH  14  12
ATOM     12  C   UNL     1     -15.041   1.047  30.724  0.00  0.00    -0.029 C 
ATOM     16  C   UNL     1     -15.380  -0.445  30.870  0.00  0.00    +0.011 C 
ATOM     17  C   UNL     1     -13.715   1.194  29.958  0.00  0.00    +0.011 C 
ATOM     18  C   UNL     1     -14.858   1.645  32.132  0.00  0.00    +0.011 C 
ENDBRANCH  14  12
ENDBRANCH  15  14
ENDBRANCH  11   6
ENDBRANCH   9  11
TORSDOF 9
ENDMDL
MODEL 2
REMARK VINA RESULT:      -6.6     15.286     17.878
REMARK  Name = 75536523
REMARK  12 active torsions:
REMARK  status: ('A' for Active; 'I' for Inactive)
REMARK    1  A    between atoms: O_2  and  C_8
REMARK    2  A    between atoms: O_4  and  C_20
REMARK    3  A    between atoms: N_5  and  C_7
REMARK    4  A    between atoms: N_5  and  C_13
REMARK    5  A    between atoms: N_6  and  C_11
REMARK    6  A    between atoms: C_9  and  C_11
REMARK    7  A    between atoms: C_12  and  C_14
REMARK    8  A    between atoms: C_12  and  C_16
REMARK    9  A    between atoms: C_12  and  C_17
REMARK   10  A    between atoms: C_12  and  C_18
REMARK   11  A    between atoms: C_13  and  C_19
REMARK   12  A    between atoms: C_14  and  C_15
REMARK                            x       y       z     vdW  Elec       q    Type
REMARK                         _______ _______ _______ _____ _____    ______ ____
ROOT
ATOM      1  O   UNL     1     -12.458  -7.399  16.692  0.00  0.00    -0.371 OA
ATOM      7  C   UNL     1     -10.084  -7.479  16.677  0.00  0.00    +0.111 C 
ATOM      8  C   UNL     1     -10.560  -6.666  15.487  0.00  0.00    +0.164 C 
ATOM      9  C   UNL     1     -11.963  -6.281  15.936  0.00  0.00    +0.165 C 
ATOM     10  C   UNL     1     -11.348  -8.241  17.043  0.00  0.00    +0.181 C 
ENDROOT
BRANCH   8   2
ATOM      2  O   UNL     1      -9.752  -5.530  15.245  0.00  0.00    -0.388 OA
ATOM     27  H   UNL     1     -10.162  -4.765  15.685  0.00  0.00    +0.210 HD
ENDBRANCH   8   2
BRANCH   7   5
ATOM      5  N   UNL     1      -8.963  -8.354  16.376  0.00  0.00    -0.305 NA
ATOM     25  H   UNL     1      -8.118  -7.789  16.279  0.00  0.00    +0.123 HD
BRANCH   5  13
ATOM     13  C   UNL     1      -8.759  -9.331  17.439  0.00  0.00    +0.120 C 
BRANCH  13  19
ATOM     19  C   UNL     1      -7.322  -9.772  17.527  0.00  0.00    +0.008 A 
ATOM     20  C   UNL     1      -6.816 -10.322  18.704  0.00  0.00    +0.121 A 
ATOM     21  C   UNL     1      -6.495  -9.625  16.414  0.00  0.00    +0.008 A 
ATOM     22  C   UNL     1      -5.483 -10.726  18.769  0.00  0.00    +0.046 A 
ATOM     23  C   UNL     1      -5.161 -10.029  16.478  0.00  0.00    +0.001 A 
ATOM     24  C   UNL     1      -4.655 -10.579  17.656  0.00  0.00    +0.004 A 
BRANCH  20   4
ATOM      4  O   UNL     1      -7.611 -10.472  19.802  0.00  0.00    -0.506 OA
ATOM     28  H   UNL     1      -8.184  -9.691  19.888  0.00  0.00    +0.292 HD
ENDBRANCH  20   4
ENDBRANCH  13  19
ENDBRANCH   5  13
ENDBRANCH   7   5
BRANCH   9  11
ATOM     11  C   UNL     1     -12.902  -5.985  14.781  0.00  0.00    +0.138 C 
BRANCH  11   6
ATOM      3  O   UNL     1     -13.974  -3.710  13.342  0.00  0.00    -0.276 OA
ATOM      6  N   UNL     1     -12.247  -5.209  13.752  0.00  0.00    -0.313 N 
ATOM     15  C   UNL     1     -12.842  -4.133  13.117  0.00  0.00    +0.214 C 
ATOM     26  H   UNL     1     -11.299  -5.474  13.499  0.00  0.00    +0.149 HD
BRANCH  15  14
ATOM     14  C   UNL     1     -11.947  -3.492  12.069  0.00  0.00    +0.102 C 
BRANCH  14  12
ATOM     12  C   UNL     1     -12.198  -3.976  10.622  0.00  0.00    -0.029 C 
ATOM     16  C   UNL     1     -11.149  -3.413   9.649  0.00  0.00    +0.011 C 
ATOM     17  C   UNL     1     -12.191  -5.512  10.541  0.00  0.00    +0.011 C 
ATOM     18  C   UNL     1     -13.588  -3.473  10.184  0.00  0.00    +0.011 C 
ENDBRANCH  14  12
ENDBRANCH  15  14
ENDBRANCH  11   6
ENDBRANCH   9  11
TORSDOF 9
ENDMDL
MODEL 3
REMARK VINA RESULT:      -6.1     34.513     36.793
REMARK  Name = 75536523
REMARK  12 active torsions:
REMARK  status: ('A' for Active; 'I' for Inactive)
REMARK    1  A    between atoms: O_2  and  C_8
REMARK    2  A    between atoms: O_4  and  C_20
REMARK    3  A    between atoms: N_5  and  C_7
REMARK    4  A    between atoms: N_5  and  C_13
REMARK    5  A    between atoms: N_6  and  C_11
REMARK    6  A    between atoms: C_9  and  C_11
REMARK    7  A    between atoms: C_12  and  C_14
REMARK    8  A    between atoms: C_12  and  C_16
REMARK    9  A    between atoms: C_12  and  C_17
REMARK   10  A    between atoms: C_12  and  C_18
REMARK   11  A    between atoms: C_13  and  C_19
REMARK   12  A    between atoms: C_14  and  C_15
REMARK                            x       y       z     vdW  Elec       q    Type
REMARK                         _______ _______ _______ _____ _____    ______ ____
ROOT
ATOM      1  O   UNL     1      -1.637 -15.689  -1.711  0.00  0.00    -0.371 OA
ATOM      7  C   UNL     1      -0.818 -14.264   0.004  0.00  0.00    +0.111 C 
ATOM      8  C   UNL     1      -1.514 -13.421  -1.050  0.00  0.00    +0.164 C 
ATOM      9  C   UNL     1      -2.392 -14.466  -1.727  0.00  0.00    +0.165 C 
ATOM     10  C   UNL     1      -0.566 -15.553  -0.762  0.00  0.00    +0.181 C 
ENDROOT
BRANCH   8   2
ATOM      2  O   UNL     1      -2.280 -12.371  -0.491  0.00  0.00    -0.388 OA
ATOM     27  H   UNL     1      -2.706 -12.702   0.318  0.00  0.00    +0.210 HD
ENDBRANCH   8   2
BRANCH   7   5
ATOM      5  N   UNL     1       0.402 -13.663   0.518  0.00  0.00    -0.305 NA
ATOM     25  H   UNL     1       0.158 -12.861   1.100  0.00  0.00    +0.123 HD
BRANCH   5  13
ATOM     13  C   UNL     1       1.158 -14.617   1.320  0.00  0.00    +0.120 C 
BRANCH  13  19
ATOM     19  C   UNL     1       2.596 -14.702   0.882  0.00  0.00    +0.008 A 
ATOM     20  C   UNL     1       3.485 -15.568   1.518  0.00  0.00    +0.121 A 
ATOM     21  C   UNL     1       3.035 -13.903  -0.172  0.00  0.00    +0.008 A 
ATOM     22  C   UNL     1       4.814 -15.635   1.100  0.00  0.00    +0.046 A 
ATOM     23  C   UNL     1       4.365 -13.969  -0.591  0.00  0.00    +0.001 A 
ATOM     24  C   UNL     1       5.254 -14.835   0.045  0.00  0.00    +0.004 A 
BRANCH  20   4
ATOM      4  O   UNL     1       3.072 -16.356   2.552  0.00  0.00    -0.506 OA
ATOM     28  H   UNL     1       2.481 -15.841   3.127  0.00  0.00    +0.292 HD
ENDBRANCH  20   4
ENDBRANCH  13  19
ENDBRANCH   5  13
ENDBRANCH   7   5
BRANCH   9  11
ATOM     11  C   UNL     1      -2.757 -14.106  -3.157  0.00  0.00    +0.138 C 
BRANCH  11   6
ATOM      3  O   UNL     1      -0.785 -14.269  -5.272  0.00  0.00    -0.276 OA
ATOM      6  N   UNL     1      -1.924 -13.039  -3.663  0.00  0.00    -0.313 N 
ATOM     15  C   UNL     1      -1.005 -13.212  -4.683  0.00  0.00    +0.214 C 
ATOM     26  H   UNL     1      -2.037 -12.119  -3.246  0.00  0.00    +0.149 HD
BRANCH  15  14
ATOM     14  C   UNL     1      -0.250 -11.938  -5.026  0.00  0.00    +0.102 C 
BRANCH  14  12
ATOM     12  C   UNL     1       1.240 -11.938  -4.612  0.00  0.00    -0.029 C 
ATOM     16  C   UNL     1       1.449 -12.638  -3.259  0.00  0.00    +0.011 C 
ATOM     17  C   UNL     1       2.111 -12.624  -5.678  0.00  0.00    +0.011 C 
ATOM     18  C   UNL     1       1.699 -10.473  -4.479  0.00  0.00    +0.011 C 
ENDBRANCH  14  12
ENDBRANCH  15  14
ENDBRANCH  11   6
ENDBRANCH   9  11
TORSDOF 9
ENDMDL
MODEL 4
REMARK VINA RESULT:      -5.9     31.654     35.113
REMARK  Name = 75536523
REMARK  12 active torsions:
REMARK  status: ('A' for Active; 'I' for Inactive)
REMARK    1  A    between atoms: O_2  and  C_8
REMARK    2  A    between atoms: O_4  and  C_20
REMARK    3  A    between atoms: N_5  and  C_7
REMARK    4  A    between atoms: N_5  and  C_13
REMARK    5  A    between atoms: N_6  and  C_11
REMARK    6  A    between atoms: C_9  and  C_11
REMARK    7  A    between atoms: C_12  and  C_14
REMARK    8  A    between atoms: C_12  and  C_16
REMARK    9  A    between atoms: C_12  and  C_17
REMARK   10  A    between atoms: C_12  and  C_18
REMARK   11  A    between atoms: C_13  and  C_19
REMARK   12  A    between atoms: C_14  and  C_15
REMARK                            x       y       z     vdW  Elec       q    Type
REMARK                         _______ _______ _______ _____ _____    ______ ____
ROOT
ATOM      1  O   UNL     1      18.759   7.062  21.766  0.00  0.00    -0.371 OA
ATOM      7  C   UNL     1      20.008   5.697  20.276  0.00  0.00    +0.111 C 
ATOM      8  C   UNL     1      18.528   5.512  19.994  0.00  0.00    +0.164 C 
ATOM      9  C   UNL     1      17.952   6.780  20.611  0.00  0.00    +0.165 C 
ATOM     10  C   UNL     1      19.975   6.299  21.671  0.00  0.00    +0.181 C 
ENDROOT
BRANCH   8   2
ATOM      2  O   UNL     1      18.244   5.421  18.611  0.00  0.00    -0.388 OA
ATOM     27  H   UNL     1      17.781   6.232  18.341  0.00  0.00    +0.210 HD
ENDBRANCH   8   2
BRANCH   7   5
ATOM      5  N   UNL     1      20.774   4.462  20.211  0.00  0.00    -0.305 NA
ATOM     25  H   UNL     1      20.724   4.090  19.262  0.00  0.00    +0.123 HD
BRANCH   5  13
ATOM     13  C   UNL     1      22.171   4.692  20.557  0.00  0.00    +0.120 C 
BRANCH  13  19
ATOM     19  C   UNL     1      22.724   3.590  21.420  0.00  0.00    +0.008 A 
ATOM     20  C   UNL     1      23.602   2.644  20.894  0.00  0.00    +0.121 A 
ATOM     21  C   UNL     1      22.347   3.521  22.761  0.00  0.00    +0.008 A 
ATOM     22  C   UNL     1      24.106   1.629  21.707  0.00  0.00    +0.046 A 
ATOM     23  C   UNL     1      22.850   2.506  23.576  0.00  0.00    +0.001 A 
ATOM     24  C   UNL     1      23.728   1.560  23.049  0.00  0.00    +0.004 A 
BRANCH  20   4
ATOM      4  O   UNL     1      23.980   2.696  19.585  0.00  0.00    -0.506 OA
ATOM     28  H   UNL     1      24.868   3.090  19.526  0.00  0.00    +0.292 HD
ENDBRANCH  20   4
ENDBRANCH  13  19
ENDBRANCH   5  13
ENDBRANCH   7   5
BRANCH   9  11
ATOM     11  C   UNL     1      16.497   6.638  21.022  0.00  0.00    +0.138 C 
BRANCH  11   6
ATOM      3  O   UNL     1      13.639   6.690  20.553  0.00  0.00    -0.276 OA
ATOM      6  N   UNL     1      15.705   7.754  20.556  0.00  0.00    -0.313 N 
ATOM     15  C   UNL     1      14.337   7.684  20.360  0.00  0.00    +0.214 C 
ATOM     26  H   UNL     1      16.189   8.628  20.376  0.00  0.00    +0.149 HD
BRANCH  15  14
ATOM     14  C   UNL     1      13.740   8.989  19.859  0.00  0.00    +0.102 C 
BRANCH  14  12
ATOM     12  C   UNL     1      13.237   8.950  18.397  0.00  0.00    -0.029 C 
ATOM     16  C   UNL     1      11.786   8.451  18.313  0.00  0.00    +0.011 C 
ATOM     17  C   UNL     1      13.335  10.338  17.740  0.00  0.00    +0.011 C 
ATOM     18  C   UNL     1      14.134   7.975  17.609  0.00  0.00    +0.011 C 
ENDBRANCH  14  12
ENDBRANCH  15  14
ENDBRANCH  11   6
ENDBRANCH   9  11
TORSDOF 9
ENDMDL
MODEL 5
REMARK VINA RESULT:      -5.9     15.395     17.858
REMARK  Name = 75536523
REMARK  12 active torsions:
REMARK  status: ('A' for Active; 'I' for Inactive)
REMARK    1  A    between atoms: O_2  and  C_8
REMARK    2  A    between atoms: O_4  and  C_20
REMARK    3  A    between atoms: N_5  and  C_7
REMARK    4  A    between atoms: N_5  and  C_13
REMARK    5  A    between atoms: N_6  and  C_11
REMARK    6  A    between atoms: C_9  and  C_11
REMARK    7  A    between atoms: C_12  and  C_14
REMARK    8  A    between atoms: C_12  and  C_16
REMARK    9  A    between atoms: C_12  and  C_17
REMARK   10  A    between atoms: C_12  and  C_18
REMARK   11  A    between atoms: C_13  and  C_19
REMARK   12  A    between atoms: C_14  and  C_15
REMARK                            x       y       z     vdW  Elec       q    Type
REMARK                         _______ _______ _______ _____ _____    ______ ____
ROOT
ATOM      1  O   UNL     1     -12.608  -8.463  16.486  0.00  0.00    -0.371 OA
ATOM      7  C   UNL     1     -10.564  -7.592  17.325  0.00  0.00    +0.111 C 
ATOM      8  C   UNL     1     -10.794  -7.054  15.925  0.00  0.00    +0.164 C 
ATOM      9  C   UNL     1     -12.297  -7.252  15.778  0.00  0.00    +0.165 C 
ATOM     10  C   UNL     1     -11.501  -8.789  17.344  0.00  0.00    +0.181 C 
ENDROOT
BRANCH   8   2
ATOM      2  O   UNL     1     -10.426  -5.694  15.796  0.00  0.00    -0.388 OA
ATOM     27  H   UNL     1      -9.495  -5.603  16.061  0.00  0.00    +0.210 HD
ENDBRANCH   8   2
BRANCH   7   5
ATOM      5  N   UNL     1      -9.181  -7.952  17.592  0.00  0.00    -0.305 NA
ATOM     25  H   UNL     1      -8.904  -7.562  18.494  0.00  0.00    +0.123 HD
BRANCH   5  13
ATOM     13  C   UNL     1      -9.013  -9.400  17.633  0.00  0.00    +0.120 C 
BRANCH  13  19
ATOM     19  C   UNL     1      -7.562  -9.797  17.609  0.00  0.00    +0.008 A 
ATOM     20  C   UNL     1      -6.808  -9.674  16.443  0.00  0.00    +0.121 A 
ATOM     21  C   UNL     1      -6.972 -10.293  18.771  0.00  0.00    +0.008 A 
ATOM     22  C   UNL     1      -5.464 -10.047  16.437  0.00  0.00    +0.046 A 
ATOM     23  C   UNL     1      -5.627 -10.667  18.767  0.00  0.00    +0.001 A 
ATOM     24  C   UNL     1      -4.874 -10.544  17.600  0.00  0.00    +0.004 A 
BRANCH  20   4
ATOM      4  O   UNL     1      -7.369  -9.192  15.297  0.00  0.00    -0.506 OA
ATOM     28  H   UNL     1      -7.496  -8.232  15.385  0.00  0.00    +0.292 HD
ENDBRANCH  20   4
ENDBRANCH  13  19
ENDBRANCH   5  13
ENDBRANCH   7   5
BRANCH   9  11
ATOM     11  C   UNL     1     -12.747  -7.372  14.333  0.00  0.00    +0.138 C 
BRANCH  11   6
ATOM      3  O   UNL     1     -14.145  -4.925  13.661  0.00  0.00    -0.276 OA
ATOM      6  N   UNL     1     -12.256  -6.272  13.533  0.00  0.00    -0.313 N 
ATOM     15  C   UNL     1     -13.000  -5.137  13.264  0.00  0.00    +0.214 C 
ATOM     26  H   UNL     1     -11.312  -6.348  13.164  0.00  0.00    +0.149 HD
BRANCH  15  14
ATOM     14  C   UNL     1     -12.261  -4.134  12.395  0.00  0.00    +0.102 C 
BRANCH  14  12
ATOM     12  C   UNL     1     -12.673  -4.142  10.904  0.00  0.00    -0.029 C 
ATOM     16  C   UNL     1     -11.565  -3.564  10.010  0.00  0.00    +0.011 C 
ATOM     17  C   UNL     1     -13.014  -5.566  10.431  0.00  0.00    +0.011 C 
ATOM     18  C   UNL     1     -13.931  -3.265  10.752  0.00  0.00    +0.011 C 
ENDBRANCH  14  12
ENDBRANCH  15  14
ENDBRANCH  11   6
ENDBRANCH   9  11
TORSDOF 9
ENDMDL
MODEL 6
REMARK VINA RESULT:      -5.8     26.873     31.347
REMARK  Name = 75536523
REMARK  12 active torsions:
REMARK  status: ('A' for Active; 'I' for Inactive)
REMARK    1  A    between atoms: O_2  and  C_8
REMARK    2  A    between atoms: O_4  and  C_20
REMARK    3  A    between atoms: N_5  and  C_7
REMARK    4  A    between atoms: N_5  and  C_13
REMARK    5  A    between atoms: N_6  and  C_11
REMARK    6  A    between atoms: C_9  and  C_11
REMARK    7  A    between atoms: C_12  and  C_14
REMARK    8  A    between atoms: C_12  and  C_16
REMARK    9  A    between atoms: C_12  and  C_17
REMARK   10  A    between atoms: C_12  and  C_18
REMARK   11  A    between atoms: C_13  and  C_19
REMARK   12  A    between atoms: C_14  and  C_15
REMARK                            x       y       z     vdW  Elec       q    Type
REMARK                         _______ _______ _______ _____ _____    ______ ____
ROOT
ATOM      1  O   UNL     1      14.624   8.115  17.902  0.00  0.00    -0.371 OA
ATOM      7  C   UNL     1      12.805   6.812  18.700  0.00  0.00    +0.111 C 
ATOM      8  C   UNL     1      12.262   8.000  17.926  0.00  0.00    +0.164 C 
ATOM      9  C   UNL     1      13.472   8.379  17.084  0.00  0.00    +0.165 C 
ATOM     10  C   UNL     1      14.224   7.271  18.995  0.00  0.00    +0.181 C 
ENDROOT
BRANCH   8   2
ATOM      2  O   UNL     1      11.145   7.664  17.124  0.00  0.00    -0.388 OA
ATOM     27  H   UNL     1      10.368   7.582  17.702  0.00  0.00    +0.210 HD
ENDBRANCH   8   2
BRANCH   7   5
ATOM      5  N   UNL     1      12.048   6.504  19.902  0.00  0.00    -0.305 NA
ATOM     25  H   UNL     1      11.866   5.500  19.932  0.00  0.00    +0.123 HD
BRANCH   5  13
ATOM     13  C   UNL     1      12.786   6.886  21.100  0.00  0.00    +0.120 C 
BRANCH  13  19
ATOM     19  C   UNL     1      12.248   8.153  21.709  0.00  0.00    +0.008 A 
ATOM     20  C   UNL     1      10.897   8.270  22.034  0.00  0.00    +0.121 A 
ATOM     21  C   UNL     1      13.118   9.217  21.947  0.00  0.00    +0.008 A 
ATOM     22  C   UNL     1      10.415   9.451  22.599  0.00  0.00    +0.046 A 
ATOM     23  C   UNL     1      12.636  10.400  22.511  0.00  0.00    +0.001 A 
ATOM     24  C   UNL     1      11.285  10.517  22.836  0.00  0.00    +0.004 A 
BRANCH  20   4
ATOM      4  O   UNL     1      10.033   7.241  21.808  0.00  0.00    -0.506 OA
ATOM     28  H   UNL     1      10.465   6.585  21.233  0.00  0.00    +0.292 HD
ENDBRANCH  20   4
ENDBRANCH  13  19
ENDBRANCH   5  13
ENDBRANCH   7   5
BRANCH   9  11
ATOM     11  C   UNL     1      13.471   9.835  16.653  0.00  0.00    +0.138 C 
BRANCH  11   6
ATOM      3  O   UNL     1      13.866  12.091  14.880  0.00  0.00    -0.276 OA
ATOM      6  N   UNL     1      14.665  10.169  15.910  0.00  0.00    -0.313 N 
ATOM     15  C   UNL     1      14.761  11.273  15.083  0.00  0.00    +0.214 C 
ATOM     26  H   UNL     1      15.469   9.556  16.019  0.00  0.00    +0.149 HD
BRANCH  15  14
ATOM     14  C   UNL     1      16.119  11.397  14.411  0.00  0.00    +0.102 C 
BRANCH  14  12
ATOM     12  C   UNL     1      17.058  12.453  15.040  0.00  0.00    -0.029 C 
ATOM     16  C   UNL     1      16.760  12.654  16.534  0.00  0.00    +0.011 C 
ATOM     17  C   UNL     1      18.534  12.055  14.866  0.00  0.00    +0.011 C 
ATOM     18  C   UNL     1      16.826  13.791  14.311  0.00  0.00    +0.011 C 
ENDBRANCH  14  12
ENDBRANCH  15  14
ENDBRANCH  11   6
ENDBRANCH   9  11
TORSDOF 9
ENDMDL
MODEL 7
REMARK VINA RESULT:      -5.8     17.895     19.432
REMARK  Name = 75536523
REMARK  12 active torsions:
REMARK  status: ('A' for Active; 'I' for Inactive)
REMARK    1  A    between atoms: O_2  and  C_8
REMARK    2  A    between atoms: O_4  and  C_20
REMARK    3  A    between atoms: N_5  and  C_7
REMARK    4  A    between atoms: N_5  and  C_13
REMARK    5  A    between atoms: N_6  and  C_11
REMARK    6  A    between atoms: C_9  and  C_11
REMARK    7  A    between atoms: C_12  and  C_14
REMARK    8  A    between atoms: C_12  and  C_16
REMARK    9  A    between atoms: C_12  and  C_17
REMARK   10  A    between atoms: C_12  and  C_18
REMARK   11  A    between atoms: C_13  and  C_19
REMARK   12  A    between atoms: C_14  and  C_15
REMARK                            x       y       z     vdW  Elec       q    Type
REMARK                         _______ _______ _______ _____ _____    ______ ____
ROOT
ATOM      1  O   UNL     1      -7.974 -12.816  18.545  0.00  0.00    -0.371 OA
ATOM      7  C   UNL     1      -5.902 -11.658  18.469  0.00  0.00    +0.111 C 
ATOM      8  C   UNL     1      -6.970 -10.727  19.013  0.00  0.00    +0.164 C 
ATOM      9  C   UNL     1      -8.019 -11.726  19.481  0.00  0.00    +0.165 C 
ATOM     10  C   UNL     1      -6.750 -12.726  17.797  0.00  0.00    +0.181 C 
ENDROOT
BRANCH   8   2
ATOM      2  O   UNL     1      -6.499  -9.919  20.076  0.00  0.00    -0.388 OA
ATOM     27  H   UNL     1      -5.736  -9.409  19.756  0.00  0.00    +0.210 HD
ENDBRANCH   8   2
BRANCH   7   5
ATOM      5  N   UNL     1      -4.975 -11.011  17.553  0.00  0.00    -0.305 NA
ATOM     25  H   UNL     1      -4.062 -10.937  18.002  0.00  0.00    +0.123 HD
BRANCH   5  13
ATOM     13  C   UNL     1      -4.836 -11.777  16.320  0.00  0.00    +0.120 C 
BRANCH  13  19
ATOM     19  C   UNL     1      -3.750 -11.224  15.437  0.00  0.00    +0.008 A 
ATOM     20  C   UNL     1      -2.476 -10.974  15.945  0.00  0.00    +0.121 A 
ATOM     21  C   UNL     1      -4.030 -10.960  14.096  0.00  0.00    +0.008 A 
ATOM     22  C   UNL     1      -1.480 -10.462  15.113  0.00  0.00    +0.046 A 
ATOM     23  C   UNL     1      -3.035 -10.447  13.263  0.00  0.00    +0.001 A 
ATOM     24  C   UNL     1      -1.761 -10.197  13.772  0.00  0.00    +0.004 A 
BRANCH  20   4
ATOM      4  O   UNL     1      -2.185 -11.225  17.253  0.00  0.00    -0.506 OA
ATOM     28  H   UNL     1      -1.222 -11.168  17.381  0.00  0.00    +0.292 HD
ENDBRANCH  20   4
ENDBRANCH  13  19
ENDBRANCH   5  13
ENDBRANCH   7   5
BRANCH   9  11
ATOM     11  C   UNL     1      -9.421 -11.146  19.527  0.00  0.00    +0.138 C 
BRANCH  11   6
ATOM      3  O   UNL     1      -9.800 -10.593  16.708  0.00  0.00    -0.276 OA
ATOM      6  N   UNL     1      -9.479  -9.851  18.887  0.00  0.00    -0.313 N 
ATOM     15  C   UNL     1      -9.665  -9.684  17.526  0.00  0.00    +0.214 C 
ATOM     26  H   UNL     1      -9.387  -9.031  19.480  0.00  0.00    +0.149 HD
BRANCH  15  14
ATOM     14  C   UNL     1      -9.681  -8.225  17.102  0.00  0.00    +0.102 C 
BRANCH  14  12
ATOM     12  C   UNL     1     -10.940  -7.794  16.315  0.00  0.00    -0.029 C 
ATOM     16  C   UNL     1     -10.830  -8.165  14.827  0.00  0.00    +0.011 C 
ATOM     17  C   UNL     1     -12.209  -8.435  16.905  0.00  0.00    +0.011 C 
ATOM     18  C   UNL     1     -11.072  -6.262  16.427  0.00  0.00    +0.011 C 
ENDBRANCH  14  12
ENDBRANCH  15  14
ENDBRANCH  11   6
ENDBRANCH   9  11
TORSDOF 9
ENDMDL
MODEL 8
REMARK VINA RESULT:      -5.5     19.813     22.202
REMARK  Name = 75536523
REMARK  12 active torsions:
REMARK  status: ('A' for Active; 'I' for Inactive)
REMARK    1  A    between atoms: O_2  and  C_8
REMARK    2  A    between atoms: O_4  and  C_20
REMARK    3  A    between atoms: N_5  and  C_7
REMARK    4  A    between atoms: N_5  and  C_13
REMARK    5  A    between atoms: N_6  and  C_11
REMARK    6  A    between atoms: C_9  and  C_11
REMARK    7  A    between atoms: C_12  and  C_14
REMARK    8  A    between atoms: C_12  and  C_16
REMARK    9  A    between atoms: C_12  and  C_17
REMARK   10  A    between atoms: C_12  and  C_18
REMARK   11  A    between atoms: C_13  and  C_19
REMARK   12  A    between atoms: C_14  and  C_15
REMARK                            x       y       z     vdW  Elec       q    Type
REMARK                         _______ _______ _______ _____ _____    ______ ____
ROOT
ATOM      1  O   UNL     1      -4.392 -13.807  15.323  0.00  0.00    -0.371 OA
ATOM      7  C   UNL     1      -5.014 -12.191  16.949  0.00  0.00    +0.111 C 
ATOM      8  C   UNL     1      -3.770 -11.711  16.223  0.00  0.00    +0.164 C 
ATOM      9  C   UNL     1      -3.839 -12.535  14.945  0.00  0.00    +0.165 C 
ATOM     10  C   UNL     1      -4.998 -13.675  16.620  0.00  0.00    +0.181 C 
ENDROOT
BRANCH   8   2
ATOM      2  O   UNL     1      -3.796 -10.321  15.957  0.00  0.00    -0.388 OA
ATOM     27  H   UNL     1      -3.301 -10.158  15.137  0.00  0.00    +0.210 HD
ENDBRANCH   8   2
BRANCH   7   5
ATOM      5  N   UNL     1      -4.994 -11.928  18.378  0.00  0.00    -0.305 NA
ATOM     25  H   UNL     1      -4.042 -12.051  18.726  0.00  0.00    +0.123 HD
BRANCH   5  13
ATOM     13  C   UNL     1      -5.431 -10.568  18.668  0.00  0.00    +0.120 C 
BRANCH  13  19
ATOM     19  C   UNL     1      -6.920 -10.412  18.509  0.00  0.00    +0.008 A 
ATOM     20  C   UNL     1      -7.802 -11.161  19.287  0.00  0.00    +0.121 A 
ATOM     21  C   UNL     1      -7.414  -9.506  17.572  0.00  0.00    +0.008 A 
ATOM     22  C   UNL     1      -9.179 -11.004  19.127  0.00  0.00    +0.046 A 
ATOM     23  C   UNL     1      -8.791  -9.349  17.411  0.00  0.00    +0.001 A 
ATOM     24  C   UNL     1      -9.674 -10.098  18.188  0.00  0.00    +0.004 A 
BRANCH  20   4
ATOM      4  O   UNL     1      -7.337 -12.052  20.208  0.00  0.00    -0.506 OA
ATOM     28  H   UNL     1      -6.738 -12.680  19.768  0.00  0.00    +0.292 HD
ENDBRANCH  20   4
ENDBRANCH  13  19
ENDBRANCH   5  13
ENDBRANCH   7   5
BRANCH   9  11
ATOM     11  C   UNL     1      -2.485 -12.738  14.288  0.00  0.00    +0.138 C 
BRANCH  11   6
ATOM      3  O   UNL     1      -1.843  -9.958  13.792  0.00  0.00    -0.276 OA
ATOM      6  N   UNL     1      -2.412 -12.070  13.009  0.00  0.00    -0.313 N 
ATOM     15  C   UNL     1      -2.096 -10.730  12.869  0.00  0.00    +0.214 C 
ATOM     26  H   UNL     1      -2.596 -12.627  12.179  0.00  0.00    +0.149 HD
BRANCH  15  14
ATOM     14  C   UNL     1      -2.093 -10.268  11.421  0.00  0.00    +0.102 C 
BRANCH  14  12
ATOM     12  C   UNL     1      -3.494 -10.146  10.778  0.00  0.00    -0.029 C 
ATOM     16  C   UNL     1      -4.576  -9.869  11.834  0.00  0.00    +0.011 C 
ATOM     17  C   UNL     1      -3.523  -9.031   9.719  0.00  0.00    +0.011 C 
ATOM     18  C   UNL     1      -3.820 -11.483  10.085  0.00  0.00    +0.011 C 
ENDBRANCH  14  12
ENDBRANCH  15  14
ENDBRANCH  11   6
ENDBRANCH   9  11
TORSDOF 9
ENDMDL
MODEL 9
REMARK VINA RESULT:      -5.4     31.830     35.653
REMARK  Name = 75536523
REMARK  12 active torsions:
REMARK  status: ('A' for Active; 'I' for Inactive)
REMARK    1  A    between atoms: O_2  and  C_8
REMARK    2  A    between atoms: O_4  and  C_20
REMARK    3  A    between atoms: N_5  and  C_7
REMARK    4  A    between atoms: N_5  and  C_13
REMARK    5  A    between atoms: N_6  and  C_11
REMARK    6  A    between atoms: C_9  and  C_11
REMARK    7  A    between atoms: C_12  and  C_14
REMARK    8  A    between atoms: C_12  and  C_16
REMARK    9  A    between atoms: C_12  and  C_17
REMARK   10  A    between atoms: C_12  and  C_18
REMARK   11  A    between atoms: C_13  and  C_19
REMARK   12  A    between atoms: C_14  and  C_15
REMARK                            x       y       z     vdW  Elec       q    Type
REMARK                         _______ _______ _______ _____ _____    ______ ____
ROOT
ATOM      1  O   UNL     1      14.066   9.084   5.256  0.00  0.00    -0.371 OA
ATOM      7  C   UNL     1      12.680   8.157   6.947  0.00  0.00    +0.111 C 
ATOM      8  C   UNL     1      13.527   7.053   6.341  0.00  0.00    +0.164 C 
ATOM      9  C   UNL     1      14.659   7.859   5.720  0.00  0.00    +0.165 C 
ATOM     10  C   UNL     1      12.778   9.232   5.877  0.00  0.00    +0.181 C 
ENDROOT
BRANCH   8   2
ATOM      2  O   UNL     1      14.000   6.136   7.308  0.00  0.00    -0.388 OA
ATOM     27  H   UNL     1      13.563   5.281   7.158  0.00  0.00    +0.210 HD
ENDBRANCH   8   2
BRANCH   7   5
ATOM      5  N   UNL     1      11.309   7.757   7.224  0.00  0.00    -0.305 NA
ATOM     25  H   UNL     1      10.687   8.539   7.016  0.00  0.00    +0.123 HD
BRANCH   5  13
ATOM     13  C   UNL     1      10.921   6.614   6.407  0.00  0.00    +0.120 C 
BRANCH  13  19
ATOM     19  C   UNL     1      10.069   7.026   5.236  0.00  0.00    +0.008 A 
ATOM     20  C   UNL     1       8.812   7.595   5.435  0.00  0.00    +0.121 A 
ATOM     21  C   UNL     1      10.549   6.832   3.942  0.00  0.00    +0.008 A 
ATOM     22  C   UNL     1       8.034   7.972   4.339  0.00  0.00    +0.046 A 
ATOM     23  C   UNL     1       9.772   7.207   2.845  0.00  0.00    +0.001 A 
ATOM     24  C   UNL     1       8.515   7.776   3.044  0.00  0.00    +0.004 A 
BRANCH  20   4
ATOM      4  O   UNL     1       8.326   7.791   6.694  0.00  0.00    -0.506 OA
ATOM     28  H   UNL     1       7.369   7.616   6.696  0.00  0.00    +0.292 HD
ENDBRANCH  20   4
ENDBRANCH  13  19
ENDBRANCH   5  13
ENDBRANCH   7   5
BRANCH   9  11
ATOM     11  C   UNL     1      15.338   7.147   4.564  0.00  0.00    +0.138 C 
BRANCH  11   6
ATOM      3  O   UNL     1      15.489   6.704   1.705  0.00  0.00    -0.276 OA
ATOM      6  N   UNL     1      14.380   6.455   3.732  0.00  0.00    -0.313 N 
ATOM     15  C   UNL     1      14.538   6.291   2.367  0.00  0.00    +0.214 C 
ATOM     26  H   UNL     1      13.559   6.067   4.188  0.00  0.00    +0.149 HD
BRANCH  15  14
ATOM     14  C   UNL     1      13.388   5.535   1.722  0.00  0.00    +0.102 C 
BRANCH  14  12
ATOM     12  C   UNL     1      13.730   4.094   1.278  0.00  0.00    -0.029 C 
ATOM     16  C   UNL     1      15.072   3.627   1.865  0.00  0.00    +0.011 C 
ATOM     17  C   UNL     1      12.624   3.108   1.695  0.00  0.00    +0.011 C 
ATOM     18  C   UNL     1      13.838   4.081  -0.259  0.00  0.00    +0.011 C 
ENDBRANCH  14  12
ENDBRANCH  15  14
ENDBRANCH  11   6
ENDBRANCH   9  11
TORSDOF 9
ENDMDL
MODEL 10
REMARK VINA RESULT:      -5.4     25.195     27.192
REMARK  Name = 75536523
REMARK  12 active torsions:
REMARK  status: ('A' for Active; 'I' for Inactive)
REMARK    1  A    between atoms: O_2  and  C_8
REMARK    2  A    between atoms: O_4  and  C_20
REMARK    3  A    between atoms: N_5  and  C_7
REMARK    4  A    between atoms: N_5  and  C_13
REMARK    5  A    between atoms: N_6  and  C_11
REMARK    6  A    between atoms: C_9  and  C_11
REMARK    7  A    between atoms: C_12  and  C_14
REMARK    8  A    between atoms: C_12  and  C_16
REMARK    9  A    between atoms: C_12  and  C_17
REMARK   10  A    between atoms: C_12  and  C_18
REMARK   11  A    between atoms: C_13  and  C_19
REMARK   12  A    between atoms: C_14  and  C_15
REMARK                            x       y       z     vdW  Elec       q    Type
REMARK                         _______ _______ _______ _____ _____    ______ ____
ROOT
ATOM      1  O   UNL     1      10.080  -6.432  35.324  0.00  0.00    -0.371 OA
ATOM      7  C   UNL     1       8.117  -6.484  33.987  0.00  0.00    +0.111 C 
ATOM      8  C   UNL     1       8.270  -5.099  34.589  0.00  0.00    +0.164 C 
ATOM      9  C   UNL     1       9.754  -5.089  34.929  0.00  0.00    +0.165 C 
ATOM     10  C   UNL     1       9.022  -7.305  34.890  0.00  0.00    +0.181 C 
ENDROOT
BRANCH   8   2
ATOM      2  O   UNL     1       7.930  -4.069  33.681  0.00  0.00    -0.388 OA
ATOM     27  H   UNL     1       7.180  -3.572  34.049  0.00  0.00    +0.210 HD
ENDBRANCH   8   2
BRANCH   7   5
ATOM      5  N   UNL     1       6.745  -6.966  33.971  0.00  0.00    -0.305 NA
ATOM     25  H   UNL     1       6.153  -6.299  34.468  0.00  0.00    +0.123 HD
BRANCH   5  13
ATOM     13  C   UNL     1       6.254  -7.109  32.606  0.00  0.00    +0.120 C 
BRANCH  13  19
ATOM     19  C   UNL     1       6.468  -8.502  32.077  0.00  0.00    +0.008 A 
ATOM     20  C   UNL     1       6.334  -9.610  32.913  0.00  0.00    +0.121 A 
ATOM     21  C   UNL     1       6.804  -8.677  30.735  0.00  0.00    +0.008 A 
ATOM     22  C   UNL     1       6.535 -10.894  32.407  0.00  0.00    +0.046 A 
ATOM     23  C   UNL     1       7.006  -9.962  30.229  0.00  0.00    +0.001 A 
ATOM     24  C   UNL     1       6.872 -11.070  31.064  0.00  0.00    +0.004 A 
BRANCH  20   4
ATOM      4  O   UNL     1       6.007  -9.457  34.227  0.00  0.00    -0.506 OA
ATOM     28  H   UNL     1       6.822  -9.434  34.757  0.00  0.00    +0.292 HD
ENDBRANCH  20   4
ENDBRANCH  13  19
ENDBRANCH   5  13
ENDBRANCH   7   5
BRANCH   9  11
ATOM     11  C   UNL     1      10.107  -4.125  36.047  0.00  0.00    +0.138 C 
BRANCH  11   6
ATOM      3  O   UNL     1       9.193  -4.174  38.795  0.00  0.00    -0.276 OA
ATOM      6  N   UNL     1       8.927  -3.491  36.591  0.00  0.00    -0.313 N 
ATOM     15  C   UNL     1       8.569  -3.570  37.925  0.00  0.00    +0.214 C 
ATOM     26  H   UNL     1       8.347  -2.956  35.951  0.00  0.00    +0.149 HD
BRANCH  15  14
ATOM     14  C   UNL     1       7.283  -2.824  38.241  0.00  0.00    +0.102 C 
BRANCH  14  12
ATOM     12  C   UNL     1       5.991  -3.647  38.035  0.00  0.00    -0.029 C 
ATOM     16  C   UNL     1       6.301  -5.135  37.802  0.00  0.00    +0.011 C 
ATOM     17  C   UNL     1       5.047  -3.509  39.242  0.00  0.00    +0.011 C 
ATOM     18  C   UNL     1       5.269  -3.099  36.788  0.00  0.00    +0.011 C 
ENDBRANCH  14  12
ENDBRANCH  15  14
ENDBRANCH  11   6
ENDBRANCH   9  11
TORSDOF 9
ENDMDL
