MODEL 1
REMARK VINA RESULT:      -8.2      0.000      0.000
REMARK  Name = 11942948
REMARK  7 active torsions:
REMARK  status: ('A' for Active; 'I' for Inactive)
REMARK    1  A    between atoms: O_3  and  C_18
REMARK    2  A    between atoms: N_5  and  C_16
REMARK    3  A    between atoms: N_6  and  C_25
REMARK    4  A    between atoms: C_10  and  C_16
REMARK    5  A    between atoms: C_11  and  C_17
REMARK    6  A    between atoms: C_18  and  C_21
REMARK    7  A    between atoms: C_25  and  C_26
REMARK                            x       y       z     vdW  Elec       q    Type
REMARK                         _______ _______ _______ _____ _____    ______ ____
ROOT
ATOM      4  N   UNL     1      14.671   8.829  18.701  0.00  0.00    -0.297 NA
ATOM      9  C   UNL     1      12.195   8.227  18.168  0.00  0.00    +0.005 C 
ATOM     10  C   UNL     1      14.458   7.366  18.864  0.00  0.00    +0.078 C 
ATOM     11  C   UNL     1      12.282   9.367  19.201  0.00  0.00    +0.092 C 
ATOM     12  C   UNL     1      12.965   7.003  18.702  0.00  0.00    +0.025 C 
ATOM     13  C   UNL     1      12.931   8.715  16.906  0.00  0.00    +0.020 C 
ATOM     14  C   UNL     1      13.754   9.585  19.591  0.00  0.00    +0.097 C 
ATOM     15  C   UNL     1      14.345   9.184  17.296  0.00  0.00    +0.085 C 
ENDROOT
BRANCH  11  17
ATOM      2  O   UNL     1      10.489   8.286  20.348  0.00  0.00    -0.275 OA
ATOM      6  N   UNL     1      11.810   9.811  21.507  0.00  0.00    -0.311 N 
ATOM     17  C   UNL     1      11.426   9.078  20.398  0.00  0.00    +0.218 C 
ATOM     32  H   UNL     1      12.630  10.407  21.457  0.00  0.00    +0.149 HD
BRANCH   6  25
ATOM     25  C   UNL     1      11.133   9.733  22.781  0.00  0.00    +0.139 C 
BRANCH  25  26
ATOM      1  F   UNL     1      10.617  14.777  25.204  0.00  0.00    -0.205 F 
ATOM     26  C   UNL     1      10.994  11.080  23.428  0.00  0.00    -0.030 A 
ATOM     27  C   UNL     1      11.055  11.187  24.812  0.00  0.00    +0.008 A 
ATOM     28  C   UNL     1      10.807  12.208  22.636  0.00  0.00    +0.008 A 
ATOM     29  C   UNL     1      10.928  12.440  25.414  0.00  0.00    +0.038 A 
ATOM     30  C   UNL     1      10.678  13.460  23.238  0.00  0.00    +0.038 A 
ATOM     31  C   UNL     1      10.740  13.576  24.626  0.00  0.00    +0.123 A 
ENDBRANCH  25  26
ENDBRANCH   6  25
ENDBRANCH  11  17
BRANCH  10  16
ATOM     16  C   UNL     1      15.034   6.837  20.179  0.00  0.00    +0.164 C 
BRANCH  16   5
ATOM      5  N   UNL     1      16.422   6.430  20.036  0.00  0.00    -0.250 N 
ATOM      7  N   UNL     1      16.823   5.788  18.936  0.00  0.00    -0.065 NA
ATOM      8  N   UNL     1      18.121   5.542  19.086  0.00  0.00    -0.132 NA
ATOM     21  C   UNL     1      18.506   6.045  20.297  0.00  0.00    +0.114 A 
ATOM     22  C   UNL     1      17.427   6.619  20.922  0.00  0.00    +0.136 A 
BRANCH  21  18
ATOM     18  C   UNL     1      19.937   5.929  20.778  0.00  0.00    +0.111 C 
ATOM     19  C   UNL     1      20.560   4.544  20.526  0.00  0.00    +0.041 C 
ATOM     20  C   UNL     1      20.151   6.067  22.295  0.00  0.00    +0.041 C 
ATOM     23  C   UNL     1      21.764   4.453  21.465  0.00  0.00    +0.003 C 
ATOM     24  C   UNL     1      21.551   5.513  22.538  0.00  0.00    +0.003 C 
BRANCH  18   3
ATOM      3  O   UNL     1      20.757   6.903  20.117  0.00  0.00    -0.382 OA
ATOM     33  H   UNL     1      20.649   6.782  19.159  0.00  0.00    +0.211 HD
ENDBRANCH  18   3
ENDBRANCH  21  18
ENDBRANCH  16   5
ENDBRANCH  10  16
TORSDOF 7
ENDMDL
MODEL 2
REMARK VINA RESULT:      -7.6      3.505      5.709
REMARK  Name = 11942948
REMARK  7 active torsions:
REMARK  status: ('A' for Active; 'I' for Inactive)
REMARK    1  A    between atoms: O_3  and  C_18
REMARK    2  A    between atoms: N_5  and  C_16
REMARK    3  A    between atoms: N_6  and  C_25
REMARK    4  A    between atoms: C_10  and  C_16
REMARK    5  A    between atoms: C_11  and  C_17
REMARK    6  A    between atoms: C_18  and  C_21
REMARK    7  A    between atoms: C_25  and  C_26
REMARK                            x       y       z     vdW  Elec       q    Type
REMARK                         _______ _______ _______ _____ _____    ______ ____
ROOT
ATOM      4  N   UNL     1      13.580   6.939  20.529  0.00  0.00    -0.297 NA
ATOM      9  C   UNL     1      13.507   9.398  19.681  0.00  0.00    +0.005 C 
ATOM     10  C   UNL     1      14.962   7.477  20.414  0.00  0.00    +0.078 C 
ATOM     11  C   UNL     1      12.695   8.466  18.761  0.00  0.00    +0.092 C 
ATOM     12  C   UNL     1      14.956   8.881  19.769  0.00  0.00    +0.025 C 
ATOM     13  C   UNL     1      12.892   9.279  21.087  0.00  0.00    +0.020 C 
ATOM     14  C   UNL     1      12.889   7.010  19.218  0.00  0.00    +0.097 C 
ATOM     15  C   UNL     1      12.837   7.793  21.490  0.00  0.00    +0.085 C 
ENDROOT
BRANCH  11  17
ATOM      2  O   UNL     1      13.458   7.717  16.626  0.00  0.00    -0.275 OA
ATOM      6  N   UNL     1      12.979   9.975  16.922  0.00  0.00    -0.311 N 
ATOM     17  C   UNL     1      13.081   8.655  17.324  0.00  0.00    +0.218 C 
ATOM     32  H   UNL     1      12.612  10.670  17.565  0.00  0.00    +0.149 HD
BRANCH   6  25
ATOM     25  C   UNL     1      13.314  10.425  15.591  0.00  0.00    +0.139 C 
BRANCH  25  26
ATOM      1  F   UNL     1      18.326  12.962  15.423  0.00  0.00    -0.205 F 
ATOM     26  C   UNL     1      14.653  11.102  15.546  0.00  0.00    -0.030 A 
ATOM     27  C   UNL     1      15.419  11.034  14.389  0.00  0.00    +0.008 A 
ATOM     28  C   UNL     1      15.113  11.791  16.663  0.00  0.00    +0.008 A 
ATOM     29  C   UNL     1      16.664  11.665  14.347  0.00  0.00    +0.038 A 
ATOM     30  C   UNL     1      16.357  12.420  16.621  0.00  0.00    +0.038 A 
ATOM     31  C   UNL     1      17.132  12.358  15.463  0.00  0.00    +0.123 A 
ENDBRANCH  25  26
ENDBRANCH   6  25
ENDBRANCH  11  17
BRANCH  10  16
ATOM     16  C   UNL     1      15.902   6.517  19.681  0.00  0.00    +0.164 C 
BRANCH  16   5
ATOM      5  N   UNL     1      17.234   6.516  20.264  0.00  0.00    -0.250 N 
ATOM      7  N   UNL     1      17.470   7.175  21.401  0.00  0.00    -0.065 NA
ATOM      8  N   UNL     1      18.757   7.002  21.685  0.00  0.00    -0.132 NA
ATOM     21  C   UNL     1      19.303   6.225  20.702  0.00  0.00    +0.114 A 
ATOM     22  C   UNL     1      18.339   5.903  19.780  0.00  0.00    +0.136 A 
BRANCH  21  18
ATOM     18  C   UNL     1      20.766   5.838  20.727  0.00  0.00    +0.111 C 
ATOM     19  C   UNL     1      21.256   5.374  22.112  0.00  0.00    +0.041 C 
ATOM     20  C   UNL     1      21.767   6.968  20.434  0.00  0.00    +0.041 C 
ATOM     23  C   UNL     1      22.780   5.492  22.074  0.00  0.00    +0.003 C 
ATOM     24  C   UNL     1      23.110   6.430  20.919  0.00  0.00    +0.003 C 
BRANCH  18   3
ATOM      3  O   UNL     1      21.008   4.771  19.800  0.00  0.00    -0.382 OA
ATOM     33  H   UNL     1      21.078   3.945  20.309  0.00  0.00    +0.211 HD
ENDBRANCH  18   3
ENDBRANCH  21  18
ENDBRANCH  16   5
ENDBRANCH  10  16
TORSDOF 7
ENDMDL
MODEL 3
REMARK VINA RESULT:      -7.6      2.783      8.382
REMARK  Name = 11942948
REMARK  7 active torsions:
REMARK  status: ('A' for Active; 'I' for Inactive)
REMARK    1  A    between atoms: O_3  and  C_18
REMARK    2  A    between atoms: N_5  and  C_16
REMARK    3  A    between atoms: N_6  and  C_25
REMARK    4  A    between atoms: C_10  and  C_16
REMARK    5  A    between atoms: C_11  and  C_17
REMARK    6  A    between atoms: C_18  and  C_21
REMARK    7  A    between atoms: C_25  and  C_26
REMARK                            x       y       z     vdW  Elec       q    Type
REMARK                         _______ _______ _______ _____ _____    ______ ____
ROOT
ATOM      4  N   UNL     1      11.650   8.184  18.828  0.00  0.00    -0.297 NA
ATOM      9  C   UNL     1      14.150   8.794  18.438  0.00  0.00    +0.005 C 
ATOM     10  C   UNL     1      12.055   9.275  19.753  0.00  0.00    +0.078 C 
ATOM     11  C   UNL     1      13.974   7.280  18.662  0.00  0.00    +0.092 C 
ATOM     12  C   UNL     1      13.572   9.553  19.649  0.00  0.00    +0.025 C 
ATOM     13  C   UNL     1      13.292   9.165  17.214  0.00  0.00    +0.020 C 
ATOM     14  C   UNL     1      12.509   6.990  19.031  0.00  0.00    +0.097 C 
ATOM     15  C   UNL     1      11.852   8.665  17.438  0.00  0.00    +0.085 C 
ENDROOT
BRANCH  11  17
ATOM      2  O   UNL     1      14.539   6.455  20.829  0.00  0.00    -0.275 OA
ATOM      6  N   UNL     1      16.231   6.742  19.257  0.00  0.00    -0.311 N 
ATOM     17  C   UNL     1      14.922   6.775  19.707  0.00  0.00    +0.218 C 
ATOM     32  H   UNL     1      16.438   6.985  18.293  0.00  0.00    +0.149 HD
BRANCH   6  25
ATOM     25  C   UNL     1      17.340   6.316  20.078  0.00  0.00    +0.139 C 
BRANCH  25  26
ATOM      1  F   UNL     1      19.543  10.571  23.015  0.00  0.00    -0.205 F 
ATOM     26  C   UNL     1      17.928   7.452  20.864  0.00  0.00    -0.030 A 
ATOM     27  C   UNL     1      19.078   7.245  21.615  0.00  0.00    +0.008 A 
ATOM     28  C   UNL     1      17.317   8.700  20.830  0.00  0.00    +0.008 A 
ATOM     29  C   UNL     1      19.626   8.302  22.344  0.00  0.00    +0.038 A 
ATOM     30  C   UNL     1      17.863   9.756  21.559  0.00  0.00    +0.038 A 
ATOM     31  C   UNL     1      19.018   9.558  22.315  0.00  0.00    +0.123 A 
ENDBRANCH  25  26
ENDBRANCH   6  25
ENDBRANCH  11  17
BRANCH  10  16
ATOM     16  C   UNL     1      11.623   9.007  21.196  0.00  0.00    +0.164 C 
BRANCH  16   5
ATOM      5  N   UNL     1      11.483  10.238  21.956  0.00  0.00    -0.250 N 
ATOM      7  N   UNL     1      11.340  11.405  21.322  0.00  0.00    -0.065 NA
ATOM      8  N   UNL     1      11.241  12.342  22.260  0.00  0.00    -0.132 NA
ATOM     21  C   UNL     1      11.324  11.727  23.477  0.00  0.00    +0.114 A 
ATOM     22  C   UNL     1      11.480  10.375  23.302  0.00  0.00    +0.136 A 
BRANCH  21  18
ATOM     18  C   UNL     1      11.245  12.519  24.766  0.00  0.00    +0.111 C 
ATOM     19  C   UNL     1      10.376  13.786  24.656  0.00  0.00    +0.041 C 
ATOM     20  C   UNL     1      12.568  13.123  25.268  0.00  0.00    +0.041 C 
ATOM     23  C   UNL     1      10.786  14.674  25.832  0.00  0.00    +0.003 C 
ATOM     24  C   UNL     1      12.148  14.170  26.295  0.00  0.00    +0.003 C 
BRANCH  18   3
ATOM      3  O   UNL     1      10.698  11.703  25.811  0.00  0.00    -0.382 OA
ATOM     33  H   UNL     1       9.966  12.195  26.220  0.00  0.00    +0.211 HD
ENDBRANCH  18   3
ENDBRANCH  21  18
ENDBRANCH  16   5
ENDBRANCH  10  16
TORSDOF 7
ENDMDL
MODEL 4
REMARK VINA RESULT:      -7.3      3.478      9.219
REMARK  Name = 11942948
REMARK  7 active torsions:
REMARK  status: ('A' for Active; 'I' for Inactive)
REMARK    1  A    between atoms: O_3  and  C_18
REMARK    2  A    between atoms: N_5  and  C_16
REMARK    3  A    between atoms: N_6  and  C_25
REMARK    4  A    between atoms: C_10  and  C_16
REMARK    5  A    between atoms: C_11  and  C_17
REMARK    6  A    between atoms: C_18  and  C_21
REMARK    7  A    between atoms: C_25  and  C_26
REMARK                            x       y       z     vdW  Elec       q    Type
REMARK                         _______ _______ _______ _____ _____    ______ ____
ROOT
ATOM      4  N   UNL     1      11.813   8.033  19.288  0.00  0.00    -0.297 NA
ATOM      9  C   UNL     1      14.119   9.222  19.080  0.00  0.00    +0.005 C 
ATOM     10  C   UNL     1      11.803   9.299  20.067  0.00  0.00    +0.078 C 
ATOM     11  C   UNL     1      14.286   7.755  19.519  0.00  0.00    +0.092 C 
ATOM     12  C   UNL     1      13.205   9.948  20.087  0.00  0.00    +0.025 C 
ATOM     13  C   UNL     1      13.384   9.200  17.728  0.00  0.00    +0.020 C 
ATOM     14  C   UNL     1      12.898   7.141  19.768  0.00  0.00    +0.097 C 
ATOM     15  C   UNL     1      12.092   8.373  17.869  0.00  0.00    +0.085 C 
ENDROOT
BRANCH  11  17
ATOM      2  O   UNL     1      14.733   7.280  21.816  0.00  0.00    -0.275 OA
ATOM      6  N   UNL     1      16.471   8.030  20.462  0.00  0.00    -0.311 N 
ATOM     17  C   UNL     1      15.167   7.649  20.728  0.00  0.00    +0.218 C 
ATOM     32  H   UNL     1      16.740   8.277  19.515  0.00  0.00    +0.149 HD
BRANCH   6  25
ATOM     25  C   UNL     1      17.512   8.041  21.463  0.00  0.00    +0.139 C 
BRANCH  25  26
ATOM      1  F   UNL     1      21.385   4.080  20.517  0.00  0.00    -0.205 F 
ATOM     26  C   UNL     1      18.546   6.982  21.211  0.00  0.00    -0.030 A 
ATOM     27  C   UNL     1      18.412   6.138  20.115  0.00  0.00    +0.008 A 
ATOM     28  C   UNL     1      19.628   6.857  22.075  0.00  0.00    +0.008 A 
ATOM     29  C   UNL     1      19.374   5.155  19.880  0.00  0.00    +0.038 A 
ATOM     30  C   UNL     1      20.589   5.874  21.841  0.00  0.00    +0.038 A 
ATOM     31  C   UNL     1      20.463   5.023  20.743  0.00  0.00    +0.123 A 
ENDBRANCH  25  26
ENDBRANCH   6  25
ENDBRANCH  11  17
BRANCH  10  16
ATOM     16  C   UNL     1      11.244   9.109  21.479  0.00  0.00    +0.164 C 
BRANCH  16   5
ATOM      5  N   UNL     1      11.216  10.358  22.222  0.00  0.00    -0.250 N 
ATOM      7  N   UNL     1      11.020  11.515  21.583  0.00  0.00    -0.065 NA
ATOM      8  N   UNL     1      11.048  12.472  22.504  0.00  0.00    -0.132 NA
ATOM     21  C   UNL     1      11.265  11.881  23.717  0.00  0.00    +0.114 A 
ATOM     22  C   UNL     1      11.375  10.523  23.556  0.00  0.00    +0.136 A 
BRANCH  21  18
ATOM     18  C   UNL     1      11.352  12.701  24.987  0.00  0.00    +0.111 C 
ATOM     19  C   UNL     1      10.908  14.165  24.806  0.00  0.00    +0.041 C 
ATOM     20  C   UNL     1      12.764  12.900  25.564  0.00  0.00    +0.041 C 
ATOM     23  C   UNL     1      11.498  14.927  25.993  0.00  0.00    +0.003 C 
ATOM     24  C   UNL     1      12.619  14.057  26.549  0.00  0.00    +0.003 C 
BRANCH  18   3
ATOM      3  O   UNL     1      10.528  12.118  26.006  0.00  0.00    -0.382 OA
ATOM     33  H   UNL     1      10.993  11.338  26.355  0.00  0.00    +0.211 HD
ENDBRANCH  18   3
ENDBRANCH  21  18
ENDBRANCH  16   5
ENDBRANCH  10  16
TORSDOF 7
ENDMDL
MODEL 5
REMARK VINA RESULT:      -7.2     15.877     19.198
REMARK  Name = 11942948
REMARK  7 active torsions:
REMARK  status: ('A' for Active; 'I' for Inactive)
REMARK    1  A    between atoms: O_3  and  C_18
REMARK    2  A    between atoms: N_5  and  C_16
REMARK    3  A    between atoms: N_6  and  C_25
REMARK    4  A    between atoms: C_10  and  C_16
REMARK    5  A    between atoms: C_11  and  C_17
REMARK    6  A    between atoms: C_18  and  C_21
REMARK    7  A    between atoms: C_25  and  C_26
REMARK                            x       y       z     vdW  Elec       q    Type
REMARK                         _______ _______ _______ _____ _____    ______ ____
ROOT
ATOM      4  N   UNL     1       9.413   5.033   5.703  0.00  0.00    -0.297 NA
ATOM      9  C   UNL     1      10.218   7.224   6.853  0.00  0.00    +0.005 C 
ATOM     10  C   UNL     1      10.608   5.567   4.996  0.00  0.00    +0.078 C 
ATOM     11  C   UNL     1       8.717   7.291   6.513  0.00  0.00    +0.092 C 
ATOM     12  C   UNL     1      11.014   6.946   5.562  0.00  0.00    +0.025 C 
ATOM     13  C   UNL     1      10.410   6.010   7.780  0.00  0.00    +0.020 C 
ATOM     14  C   UNL     1       8.324   6.040   5.709  0.00  0.00    +0.097 C 
ATOM     15  C   UNL     1       9.800   4.764   7.111  0.00  0.00    +0.085 C 
ENDROOT
BRANCH  11  17
ATOM      2  O   UNL     1       8.776   9.652   6.164  0.00  0.00    -0.275 OA
ATOM      6  N   UNL     1       7.594   8.321   4.665  0.00  0.00    -0.311 N 
ATOM     17  C   UNL     1       8.385   8.554   5.777  0.00  0.00    +0.218 C 
ATOM     32  H   UNL     1       7.361   7.368   4.403  0.00  0.00    +0.149 HD
BRANCH   6  25
ATOM     25  C   UNL     1       7.118   9.373   3.798  0.00  0.00    +0.139 C 
BRANCH  25  26
ATOM      1  F   UNL     1       8.914   8.726  -1.488  0.00  0.00    -0.205 F 
ATOM     26  C   UNL     1       7.597   9.200   2.386  0.00  0.00    -0.030 A 
ATOM     27  C   UNL     1       6.820   9.669   1.333  0.00  0.00    +0.008 A 
ATOM     28  C   UNL     1       8.814   8.573   2.145  0.00  0.00    +0.008 A 
ATOM     29  C   UNL     1       7.266   9.508   0.021  0.00  0.00    +0.038 A 
ATOM     30  C   UNL     1       9.260   8.411   0.833  0.00  0.00    +0.038 A 
ATOM     31  C   UNL     1       8.486   8.880  -0.229  0.00  0.00    +0.123 A 
ENDBRANCH  25  26
ENDBRANCH   6  25
ENDBRANCH  11  17
BRANCH  10  16
ATOM     16  C   UNL     1      10.415   5.609   3.478  0.00  0.00    +0.164 C 
BRANCH  16   5
ATOM      5  N   UNL     1      11.472   4.896   2.780  0.00  0.00    -0.250 N 
ATOM      7  N   UNL     1      11.385   3.575   2.598  0.00  0.00    -0.065 NA
ATOM      8  N   UNL     1      12.481   3.204   1.944  0.00  0.00    -0.132 NA
ATOM     21  C   UNL     1      13.239   4.320   1.729  0.00  0.00    +0.114 A 
ATOM     22  C   UNL     1      12.607   5.417   2.260  0.00  0.00    +0.136 A 
BRANCH  21  18
ATOM     18  C   UNL     1      14.565   4.242   1.002  0.00  0.00    +0.111 C 
ATOM     19  C   UNL     1      15.300   5.593   0.917  0.00  0.00    +0.041 C 
ATOM     20  C   UNL     1      14.495   3.861  -0.487  0.00  0.00    +0.041 C 
ATOM     23  C   UNL     1      16.319   5.441  -0.213  0.00  0.00    +0.003 C 
ATOM     24  C   UNL     1      15.858   4.253  -1.049  0.00  0.00    +0.003 C 
BRANCH  18   3
ATOM      3  O   UNL     1      15.435   3.313   1.664  0.00  0.00    -0.382 OA
ATOM     33  H   UNL     1      16.235   3.215   1.120  0.00  0.00    +0.211 HD
ENDBRANCH  18   3
ENDBRANCH  21  18
ENDBRANCH  16   5
ENDBRANCH  10  16
TORSDOF 7
ENDMDL
MODEL 6
REMARK VINA RESULT:      -7.2      3.645      7.694
REMARK  Name = 11942948
REMARK  7 active torsions:
REMARK  status: ('A' for Active; 'I' for Inactive)
REMARK    1  A    between atoms: O_3  and  C_18
REMARK    2  A    between atoms: N_5  and  C_16
REMARK    3  A    between atoms: N_6  and  C_25
REMARK    4  A    between atoms: C_10  and  C_16
REMARK    5  A    between atoms: C_11  and  C_17
REMARK    6  A    between atoms: C_18  and  C_21
REMARK    7  A    between atoms: C_25  and  C_26
REMARK                            x       y       z     vdW  Elec       q    Type
REMARK                         _______ _______ _______ _____ _____    ______ ____
ROOT
ATOM      4  N   UNL     1      12.222   9.021  22.472  0.00  0.00    -0.297 NA
ATOM      9  C   UNL     1      11.294   8.024  20.254  0.00  0.00    +0.005 C 
ATOM     10  C   UNL     1      12.065  10.098  21.458  0.00  0.00    +0.078 C 
ATOM     11  C   UNL     1      12.536   7.250  20.737  0.00  0.00    +0.092 C 
ATOM     12  C   UNL     1      11.662   9.511  20.087  0.00  0.00    +0.025 C 
ATOM     13  C   UNL     1      10.249   7.935  21.381  0.00  0.00    +0.020 C 
ATOM     14  C   UNL     1      13.130   7.963  21.964  0.00  0.00    +0.097 C 
ATOM     15  C   UNL     1      10.887   8.412  22.700  0.00  0.00    +0.085 C 
ENDROOT
BRANCH  11  17
ATOM      2  O   UNL     1      13.234   7.229  18.455  0.00  0.00    -0.275 OA
ATOM      6  N   UNL     1      14.804   6.795  20.118  0.00  0.00    -0.311 N 
ATOM     17  C   UNL     1      13.543   7.102  19.637  0.00  0.00    +0.218 C 
ATOM     32  H   UNL     1      14.966   6.756  21.119  0.00  0.00    +0.149 HD
BRANCH   6  25
ATOM     25  C   UNL     1      15.947   6.579  19.260  0.00  0.00    +0.139 C 
BRANCH  25  26
ATOM      1  F   UNL     1      20.795   6.946  22.079  0.00  0.00    -0.205 F 
ATOM     26  C   UNL     1      17.242   6.678  20.012  0.00  0.00    -0.030 A 
ATOM     27  C   UNL     1      17.411   7.679  20.960  0.00  0.00    +0.008 A 
ATOM     28  C   UNL     1      18.258   5.765  19.755  0.00  0.00    +0.008 A 
ATOM     29  C   UNL     1      18.615   7.770  21.661  0.00  0.00    +0.038 A 
ATOM     30  C   UNL     1      19.462   5.856  20.454  0.00  0.00    +0.038 A 
ATOM     31  C   UNL     1      19.640   6.858  21.407  0.00  0.00    +0.123 A 
ENDBRANCH  25  26
ENDBRANCH   6  25
ENDBRANCH  11  17
BRANCH  10  16
ATOM     16  C   UNL     1      13.308  10.985  21.354  0.00  0.00    +0.164 C 
BRANCH  16   5
ATOM      5  N   UNL     1      13.932  10.889  20.044  0.00  0.00    -0.250 N 
ATOM      7  N   UNL     1      14.946  10.042  19.844  0.00  0.00    -0.065 NA
ATOM      8  N   UNL     1      15.311  10.173  18.573  0.00  0.00    -0.132 NA
ATOM     21  C   UNL     1      14.503  11.114  18.000  0.00  0.00    +0.114 A 
ATOM     22  C   UNL     1      13.611  11.585  18.930  0.00  0.00    +0.136 A 
BRANCH  21  18
ATOM     18  C   UNL     1      14.658  11.503  16.544  0.00  0.00    +0.111 C 
ATOM     19  C   UNL     1      14.702  10.297  15.587  0.00  0.00    +0.041 C 
ATOM     20  C   UNL     1      15.972  12.211  16.173  0.00  0.00    +0.041 C 
ATOM     23  C   UNL     1      15.326  10.818  14.292  0.00  0.00    +0.003 C 
ATOM     24  C   UNL     1      16.047  12.111  14.652  0.00  0.00    +0.003 C 
BRANCH  18   3
ATOM      3  O   UNL     1      13.566  12.340  16.140  0.00  0.00    -0.382 OA
ATOM     33  H   UNL     1      12.803  12.127  16.704  0.00  0.00    +0.211 HD
ENDBRANCH  18   3
ENDBRANCH  21  18
ENDBRANCH  16   5
ENDBRANCH  10  16
TORSDOF 7
ENDMDL
MODEL 7
REMARK VINA RESULT:      -7.2     27.982     29.529
REMARK  Name = 11942948
REMARK  7 active torsions:
REMARK  status: ('A' for Active; 'I' for Inactive)
REMARK    1  A    between atoms: O_3  and  C_18
REMARK    2  A    between atoms: N_5  and  C_16
REMARK    3  A    between atoms: N_6  and  C_25
REMARK    4  A    between atoms: C_10  and  C_16
REMARK    5  A    between atoms: C_11  and  C_17
REMARK    6  A    between atoms: C_18  and  C_21
REMARK    7  A    between atoms: C_25  and  C_26
REMARK                            x       y       z     vdW  Elec       q    Type
REMARK                         _______ _______ _______ _____ _____    ______ ____
ROOT
ATOM      4  N   UNL     1      -5.411 -12.602  17.400  0.00  0.00    -0.297 NA
ATOM      9  C   UNL     1      -6.026 -11.044  19.392  0.00  0.00    +0.005 C 
ATOM     10  C   UNL     1      -5.342 -11.179  16.971  0.00  0.00    +0.078 C 
ATOM     11  C   UNL     1      -7.103 -12.123  19.175  0.00  0.00    +0.092 C 
ATOM     12  C   UNL     1      -5.849 -10.240  18.088  0.00  0.00    +0.025 C 
ATOM     13  C   UNL     1      -4.702 -11.784  19.656  0.00  0.00    +0.020 C 
ATOM     14  C   UNL     1      -6.770 -12.923  17.904  0.00  0.00    +0.097 C 
ATOM     15  C   UNL     1      -4.450 -12.789  18.516  0.00  0.00    +0.085 C 
ENDROOT
BRANCH  11  17
ATOM      2  O   UNL     1      -8.991 -10.979  20.083  0.00  0.00    -0.275 OA
ATOM      6  N   UNL     1      -9.048 -11.658  17.857  0.00  0.00    -0.311 N 
ATOM     17  C   UNL     1      -8.472 -11.515  19.108  0.00  0.00    +0.218 C 
ATOM     32  H   UNL     1      -8.516 -12.079  17.103  0.00  0.00    +0.149 HD
BRANCH   6  25
ATOM     25  C   UNL     1     -10.373 -11.178  17.538  0.00  0.00    +0.139 C 
BRANCH  25  26
ATOM      1  F   UNL     1     -10.266  -6.029  15.288  0.00  0.00    -0.205 F 
ATOM     26  C   UNL     1     -10.343  -9.803  16.937  0.00  0.00    -0.030 A 
ATOM     27  C   UNL     1     -10.149  -9.654  15.569  0.00  0.00    +0.008 A 
ATOM     28  C   UNL     1     -10.513  -8.691  17.754  0.00  0.00    +0.008 A 
ATOM     29  C   UNL     1     -10.123  -8.375  15.010  0.00  0.00    +0.038 A 
ATOM     30  C   UNL     1     -10.486  -7.413  17.196  0.00  0.00    +0.038 A 
ATOM     31  C   UNL     1     -10.292  -7.255  15.824  0.00  0.00    +0.123 A 
ENDBRANCH  25  26
ENDBRANCH   6  25
ENDBRANCH  11  17
BRANCH  10  16
ATOM     16  C   UNL     1      -6.070 -10.934  15.648  0.00  0.00    +0.164 C 
BRANCH  16   5
ATOM      5  N   UNL     1      -5.140 -10.743  14.547  0.00  0.00    -0.250 N 
ATOM      7  N   UNL     1      -3.823 -10.757  14.771  0.00  0.00    -0.065 NA
ATOM      8  N   UNL     1      -3.232 -10.555  13.598  0.00  0.00    -0.132 NA
ATOM     21  C   UNL     1      -4.209 -10.419  12.653  0.00  0.00    +0.114 A 
ATOM     22  C   UNL     1      -5.442 -10.537  13.244  0.00  0.00    +0.136 A 
BRANCH  21  18
ATOM     18  C   UNL     1      -3.869 -10.176  11.198  0.00  0.00    +0.111 C 
ATOM     19  C   UNL     1      -4.505  -8.896  10.623  0.00  0.00    +0.041 C 
ATOM     20  C   UNL     1      -4.388 -11.226  10.200  0.00  0.00    +0.041 C 
ATOM     23  C   UNL     1      -4.467  -9.061   9.103  0.00  0.00    +0.003 C 
ATOM     24  C   UNL     1      -4.278 -10.549   8.837  0.00  0.00    +0.003 C 
BRANCH  18   3
ATOM      3  O   UNL     1      -2.448 -10.067  11.037  0.00  0.00    -0.382 OA
ATOM     33  H   UNL     1      -2.063 -10.946  11.191  0.00  0.00    +0.211 HD
ENDBRANCH  18   3
ENDBRANCH  21  18
ENDBRANCH  16   5
ENDBRANCH  10  16
TORSDOF 7
ENDMDL
MODEL 8
REMARK VINA RESULT:      -7.1      5.799      9.550
REMARK  Name = 11942948
REMARK  7 active torsions:
REMARK  status: ('A' for Active; 'I' for Inactive)
REMARK    1  A    between atoms: O_3  and  C_18
REMARK    2  A    between atoms: N_5  and  C_16
REMARK    3  A    between atoms: N_6  and  C_25
REMARK    4  A    between atoms: C_10  and  C_16
REMARK    5  A    between atoms: C_11  and  C_17
REMARK    6  A    between atoms: C_18  and  C_21
REMARK    7  A    between atoms: C_25  and  C_26
REMARK                            x       y       z     vdW  Elec       q    Type
REMARK                         _______ _______ _______ _____ _____    ______ ____
ROOT
ATOM      4  N   UNL     1      14.391  12.523  15.959  0.00  0.00    -0.297 NA
ATOM      9  C   UNL     1      16.534  11.870  14.634  0.00  0.00    +0.005 C 
ATOM     10  C   UNL     1      14.475  11.044  15.827  0.00  0.00    +0.078 C 
ATOM     11  C   UNL     1      15.701  12.916  13.868  0.00  0.00    +0.092 C 
ATOM     12  C   UNL     1      15.654  10.636  14.916  0.00  0.00    +0.025 C 
ATOM     13  C   UNL     1      16.893  12.497  15.993  0.00  0.00    +0.020 C 
ATOM     14  C   UNL     1      14.380  13.159  14.618  0.00  0.00    +0.097 C 
ATOM     15  C   UNL     1      15.603  12.986  16.679  0.00  0.00    +0.085 C 
ENDROOT
BRANCH  11  17
ATOM      2  O   UNL     1      16.335  11.921  11.793  0.00  0.00    -0.275 OA
ATOM      6  N   UNL     1      14.201  12.826  12.003  0.00  0.00    -0.311 N 
ATOM     17  C   UNL     1      15.466  12.488  12.450  0.00  0.00    +0.218 C 
ATOM     32  H   UNL     1      13.539  13.254  12.642  0.00  0.00    +0.149 HD
BRANCH   6  25
ATOM     25  C   UNL     1      13.733  12.544  10.665  0.00  0.00    +0.139 C 
BRANCH  25  26
ATOM      1  F   UNL     1       8.297  11.123  10.588  0.00  0.00    -0.205 F 
ATOM     26  C   UNL     1      12.282  12.164  10.645  0.00  0.00    -0.030 A 
ATOM     27  C   UNL     1      11.505  12.356  11.781  0.00  0.00    +0.008 A 
ATOM     28  C   UNL     1      11.728  11.625   9.489  0.00  0.00    +0.008 A 
ATOM     29  C   UNL     1      10.154  12.003  11.762  0.00  0.00    +0.038 A 
ATOM     30  C   UNL     1      10.379  11.271   9.470  0.00  0.00    +0.038 A 
ATOM     31  C   UNL     1       9.592  11.461  10.606  0.00  0.00    +0.123 A 
ENDBRANCH  25  26
ENDBRANCH   6  25
ENDBRANCH  11  17
BRANCH  10  16
ATOM     16  C   UNL     1      13.155  10.424  15.362  0.00  0.00    +0.164 C 
BRANCH  16   5
ATOM      5  N   UNL     1      12.631   9.478  16.334  0.00  0.00    -0.250 N 
ATOM      7  N   UNL     1      11.626   8.663  16.002  0.00  0.00    -0.065 NA
ATOM      8  N   UNL     1      11.360   7.925  17.075  0.00  0.00    -0.132 NA
ATOM     21  C   UNL     1      12.219   8.303  18.068  0.00  0.00    +0.114 A 
ATOM     22  C   UNL     1      13.044   9.300  17.610  0.00  0.00    +0.136 A 
BRANCH  21  18
ATOM     18  C   UNL     1      12.179   7.650  19.434  0.00  0.00    +0.111 C 
ATOM     19  C   UNL     1      11.029   8.157  20.324  0.00  0.00    +0.041 C 
ATOM     20  C   UNL     1      13.387   7.923  20.346  0.00  0.00    +0.041 C 
ATOM     23  C   UNL     1      11.415   7.781  21.755  0.00  0.00    +0.003 C 
ATOM     24  C   UNL     1      12.916   7.521  21.740  0.00  0.00    +0.003 C 
BRANCH  18   3
ATOM      3  O   UNL     1      12.031   6.231  19.296  0.00  0.00    -0.382 OA
ATOM     33  H   UNL     1      11.979   6.028  18.346  0.00  0.00    +0.211 HD
ENDBRANCH  18   3
ENDBRANCH  21  18
ENDBRANCH  16   5
ENDBRANCH  10  16
TORSDOF 7
ENDMDL
MODEL 9
REMARK VINA RESULT:      -7.0     26.661     29.673
REMARK  Name = 11942948
REMARK  7 active torsions:
REMARK  status: ('A' for Active; 'I' for Inactive)
REMARK    1  A    between atoms: O_3  and  C_18
REMARK    2  A    between atoms: N_5  and  C_16
REMARK    3  A    between atoms: N_6  and  C_25
REMARK    4  A    between atoms: C_10  and  C_16
REMARK    5  A    between atoms: C_11  and  C_17
REMARK    6  A    between atoms: C_18  and  C_21
REMARK    7  A    between atoms: C_25  and  C_26
REMARK                            x       y       z     vdW  Elec       q    Type
REMARK                         _______ _______ _______ _____ _____    ______ ____
ROOT
ATOM      4  N   UNL     1      -6.708 -10.689  10.384  0.00  0.00    -0.297 NA
ATOM      9  C   UNL     1      -5.191  -8.576  10.306  0.00  0.00    +0.005 C 
ATOM     10  C   UNL     1      -6.808  -9.945  11.668  0.00  0.00    +0.078 C 
ATOM     11  C   UNL     1      -4.403  -9.842   9.920  0.00  0.00    +0.092 C 
ATOM     12  C   UNL     1      -5.804  -8.772  11.706  0.00  0.00    +0.025 C 
ATOM     13  C   UNL     1      -6.357  -8.457   9.308  0.00  0.00    +0.020 C 
ATOM     14  C   UNL     1      -5.299 -11.076  10.122  0.00  0.00    +0.097 C 
ATOM     15  C   UNL     1      -7.146  -9.781   9.295  0.00  0.00    +0.085 C 
ENDROOT
BRANCH  11  17
ATOM      2  O   UNL     1      -2.221  -9.129  10.572  0.00  0.00    -0.275 OA
ATOM      6  N   UNL     1      -3.112 -11.051  11.535  0.00  0.00    -0.311 N 
ATOM     17  C   UNL     1      -3.128  -9.946  10.702  0.00  0.00    +0.218 C 
ATOM     32  H   UNL     1      -3.934 -11.642  11.603  0.00  0.00    +0.149 HD
BRANCH   6  25
ATOM     25  C   UNL     1      -1.989 -11.390  12.378  0.00  0.00    +0.139 C 
BRANCH  25  26
ATOM      1  F   UNL     1      -3.321 -11.188  17.835  0.00  0.00    -0.205 F 
ATOM     26  C   UNL     1      -2.344 -11.337  13.836  0.00  0.00    -0.030 A 
ATOM     27  C   UNL     1      -1.622 -10.511  14.690  0.00  0.00    +0.008 A 
ATOM     28  C   UNL     1      -3.393 -12.112  14.317  0.00  0.00    +0.008 A 
ATOM     29  C   UNL     1      -1.953 -10.461  16.045  0.00  0.00    +0.038 A 
ATOM     30  C   UNL     1      -3.723 -12.063  15.672  0.00  0.00    +0.038 A 
ATOM     31  C   UNL     1      -3.004 -11.236  16.535  0.00  0.00    +0.123 A 
ENDBRANCH  25  26
ENDBRANCH   6  25
ENDBRANCH  11  17
BRANCH  10  16
ATOM     16  C   UNL     1      -6.661 -10.861  12.885  0.00  0.00    +0.164 C 
BRANCH  16   5
ATOM      5  N   UNL     1      -7.181 -10.241  14.093  0.00  0.00    -0.250 N 
ATOM      7  N   UNL     1      -6.394 -10.085  15.160  0.00  0.00    -0.065 NA
ATOM      8  N   UNL     1      -7.131  -9.503  16.100  0.00  0.00    -0.132 NA
ATOM     21  C   UNL     1      -8.383  -9.307  15.590  0.00  0.00    +0.114 A 
ATOM     22  C   UNL     1      -8.434  -9.775  14.300  0.00  0.00    +0.136 A 
BRANCH  21  18
ATOM     18  C   UNL     1      -9.477  -8.659  16.413  0.00  0.00    +0.111 C 
ATOM     19  C   UNL     1     -10.757  -9.509  16.512  0.00  0.00    +0.041 C 
ATOM     20  C   UNL     1     -10.048  -7.344  15.857  0.00  0.00    +0.041 C 
ATOM     23  C   UNL     1     -11.865  -8.543  16.935  0.00  0.00    +0.003 C 
ATOM     24  C   UNL     1     -11.357  -7.142  16.615  0.00  0.00    +0.003 C 
BRANCH  18   3
ATOM      3  O   UNL     1      -9.009  -8.418  17.747  0.00  0.00    -0.382 OA
ATOM     33  H   UNL     1      -8.329  -7.724  17.703  0.00  0.00    +0.211 HD
ENDBRANCH  18   3
ENDBRANCH  21  18
ENDBRANCH  16   5
ENDBRANCH  10  16
TORSDOF 7
ENDMDL
MODEL 10
REMARK VINA RESULT:      -6.9     28.092     30.052
REMARK  Name = 11942948
REMARK  7 active torsions:
REMARK  status: ('A' for Active; 'I' for Inactive)
REMARK    1  A    between atoms: O_3  and  C_18
REMARK    2  A    between atoms: N_5  and  C_16
REMARK    3  A    between atoms: N_6  and  C_25
REMARK    4  A    between atoms: C_10  and  C_16
REMARK    5  A    between atoms: C_11  and  C_17
REMARK    6  A    between atoms: C_18  and  C_21
REMARK    7  A    between atoms: C_25  and  C_26
REMARK                            x       y       z     vdW  Elec       q    Type
REMARK                         _______ _______ _______ _____ _____    ______ ____
ROOT
ATOM      4  N   UNL     1      -7.005 -12.129  16.846  0.00  0.00    -0.297 NA
ATOM      9  C   UNL     1      -7.020 -10.808  19.089  0.00  0.00    +0.005 C 
ATOM     10  C   UNL     1      -6.903 -10.670  16.576  0.00  0.00    +0.078 C 
ATOM     11  C   UNL     1      -8.212 -11.780  19.006  0.00  0.00    +0.092 C 
ATOM     12  C   UNL     1      -7.063  -9.854  17.879  0.00  0.00    +0.025 C 
ATOM     13  C   UNL     1      -5.743 -11.659  18.956  0.00  0.00    +0.020 C 
ATOM     14  C   UNL     1      -8.242 -12.426  17.610  0.00  0.00    +0.097 C 
ATOM     15  C   UNL     1      -5.842 -12.520  17.682  0.00  0.00    +0.085 C 
ENDROOT
BRANCH  11  17
ATOM      2  O   UNL     1      -9.738 -10.641  20.445  0.00  0.00    -0.275 OA
ATOM      6  N   UNL     1     -10.353 -11.031  18.235  0.00  0.00    -0.311 N 
ATOM     17  C   UNL     1      -9.501 -11.083  19.325  0.00  0.00    +0.218 C 
ATOM     32  H   UNL     1     -10.043 -11.388  17.337  0.00  0.00    +0.149 HD
BRANCH   6  25
ATOM     25  C   UNL     1     -11.667 -10.433  18.286  0.00  0.00    +0.139 C 
BRANCH  25  26
ATOM      1  F   UNL     1     -11.887  -5.596  15.433  0.00  0.00    -0.205 F 
ATOM     26  C   UNL     1     -11.726  -9.140  17.525  0.00  0.00    -0.030 A 
ATOM     27  C   UNL     1     -10.601  -8.326  17.464  0.00  0.00    +0.008 A 
ATOM     28  C   UNL     1     -12.904  -8.771  16.887  0.00  0.00    +0.008 A 
ATOM     29  C   UNL     1     -10.656  -7.125  16.755  0.00  0.00    +0.038 A 
ATOM     30  C   UNL     1     -12.959  -7.570  16.179  0.00  0.00    +0.038 A 
ATOM     31  C   UNL     1     -11.835  -6.748  16.112  0.00  0.00    +0.123 A 
ENDBRANCH  25  26
ENDBRANCH   6  25
ENDBRANCH  11  17
BRANCH  10  16
ATOM     16  C   UNL     1      -7.880 -10.209  15.492  0.00  0.00    +0.164 C 
BRANCH  16   5
ATOM      5  N   UNL     1      -7.227 -10.070  14.201  0.00  0.00    -0.250 N 
ATOM      7  N   UNL     1      -7.892  -9.554  13.164  0.00  0.00    -0.065 NA
ATOM      8  N   UNL     1      -7.056  -9.555  12.131  0.00  0.00    -0.132 NA
ATOM     21  C   UNL     1      -5.868 -10.080  12.555  0.00  0.00    +0.114 A 
ATOM     22  C   UNL     1      -5.959 -10.417  13.882  0.00  0.00    +0.136 A 
BRANCH  21  18
ATOM     18  C   UNL     1      -4.690 -10.223  11.613  0.00  0.00    +0.111 C 
ATOM     19  C   UNL     1      -3.338 -10.360  12.336  0.00  0.00    +0.041 C 
ATOM     20  C   UNL     1      -4.407  -9.016  10.702  0.00  0.00    +0.041 C 
ATOM     23  C   UNL     1      -2.273 -10.014  11.295  0.00  0.00    +0.003 C 
ATOM     24  C   UNL     1      -2.988  -9.246  10.189  0.00  0.00    +0.003 C 
BRANCH  18   3
ATOM      3  O   UNL     1      -4.862 -11.381  10.785  0.00  0.00    -0.382 OA
ATOM     33  H   UNL     1      -4.762 -12.167  11.348  0.00  0.00    +0.211 HD
ENDBRANCH  18   3
ENDBRANCH  21  18
ENDBRANCH  16   5
ENDBRANCH  10  16
TORSDOF 7
ENDMDL
