MODEL 1
REMARK VINA RESULT:      -6.4      0.000      0.000
REMARK  Name = 51136672
REMARK  10 active torsions:
REMARK  status: ('A' for Active; 'I' for Inactive)
REMARK    1  A    between atoms: O_2  and  C_18
REMARK    2  A    between atoms: O_4  and  C_26
REMARK    3  A    between atoms: O_4  and  C_29
REMARK    4  A    between atoms: N_7  and  C_23
REMARK    5  A    between atoms: C_8  and  C_13
REMARK    6  A    between atoms: C_9  and  C_14
REMARK    7  A    between atoms: C_13  and  C_15
REMARK    8  A    between atoms: C_14  and  C_18
REMARK    9  A    between atoms: C_23  and  C_27
REMARK   10  A    between atoms: C_23  and  C_28
REMARK                            x       y       z     vdW  Elec       q    Type
REMARK                         _______ _______ _______ _____ _____    ______ ____
ROOT
ATOM      1  O   UNL     1      -1.835  -9.944  12.312  0.00  0.00    -0.253 OA
ATOM      5  N   UNL     1      -3.157 -11.272  13.678  0.00  0.00    -0.285 N 
ATOM      7  N   UNL     1      -4.033 -10.251  11.734  0.00  0.00    -0.297 N 
ATOM      8  C   UNL     1      -4.892 -11.458  15.439  0.00  0.00    +0.016 C 
ATOM      9  C   UNL     1      -3.763 -11.697  16.476  0.00  0.00    +0.006 C 
ATOM     10  C   UNL     1      -2.428 -11.083  16.018  0.00  0.00    +0.023 C 
ATOM     11  C   UNL     1      -4.421 -11.923  14.049  0.00  0.00    +0.113 C 
ATOM     12  C   UNL     1      -2.057 -11.537  14.607  0.00  0.00    +0.109 C 
ATOM     16  C   UNL     1      -2.932 -10.457  12.557  0.00  0.00    +0.302 C 
ATOM     30  H   UNL     1      -4.959 -10.537  12.023  0.00  0.00    +0.150 HD
ENDROOT
BRANCH   7  23
ATOM     23  C   UNL     1      -3.963  -9.429  10.547  0.00  0.00    +0.068 C 
ATOM     27  C   UNL     1      -5.030  -8.343  10.591  0.00  0.00    +0.027 C 
ATOM     28  C   UNL     1      -4.100 -10.286   9.294  0.00  0.00    +0.027 C 
ENDBRANCH   7  23
BRANCH   8  13
ATOM     13  C   UNL     1      -5.389 -10.009  15.379  0.00  0.00    +0.061 C 
BRANCH  13  15
ATOM      6  N   UNL     1      -7.168  -9.966  13.766  0.00  0.00    -0.287 NA
ATOM     15  C   UNL     1      -6.855  -9.985  15.019  0.00  0.00    +0.044 C 
ATOM     17  C   UNL     1      -7.860  -9.976  16.113  0.00  0.00    -0.001 A 
ATOM     19  C   UNL     1      -9.157  -9.569  15.775  0.00  0.00    -0.033 A 
ATOM     20  C   UNL     1      -9.438  -9.161  14.360  0.00  0.00    +0.059 C 
ATOM     21  C   UNL     1      -8.591 -10.004  13.416  0.00  0.00    +0.146 C 
ATOM     22  C   UNL     1      -7.550 -10.338  17.426  0.00  0.00    +0.013 A 
ATOM     24  C   UNL     1     -10.138  -9.500  16.767  0.00  0.00    +0.050 A 
ATOM     25  C   UNL     1      -8.541 -10.281  18.406  0.00  0.00    +0.046 A 
ATOM     26  C   UNL     1      -9.831  -9.860  18.079  0.00  0.00    +0.120 A 
BRANCH  26   4
ATOM      4  O   UNL     1     -10.791  -9.801  19.044  0.00  0.00    -0.495 OA
ATOM     29  C   UNL     1     -12.149  -9.801  18.608  0.00  0.00    +0.277 C 
ENDBRANCH  26   4
ENDBRANCH  13  15
ENDBRANCH   8  13
BRANCH   9  14
ATOM     14  C   UNL     1      -4.126 -11.211  17.879  0.00  0.00    +0.124 C 
BRANCH  14  18
ATOM      3  O   UNL     1      -3.369 -12.168  19.990  0.00  0.00    -0.251 OA
ATOM     18  C   UNL     1      -3.925 -12.290  18.909  0.00  0.00    +0.305 C 
BRANCH  18   2
ATOM      2  O   UNL     1      -4.462 -13.454  18.463  0.00  0.00    -0.481 OA
ATOM     31  H   UNL     1      -3.885 -14.223  18.661  0.00  0.00    +0.295 HD
ENDBRANCH  18   2
ENDBRANCH  14  18
ENDBRANCH   9  14
TORSDOF 7
ENDMDL
MODEL 2
REMARK VINA RESULT:      -6.2     22.996     26.835
REMARK  Name = 51136672
REMARK  10 active torsions:
REMARK  status: ('A' for Active; 'I' for Inactive)
REMARK    1  A    between atoms: O_2  and  C_18
REMARK    2  A    between atoms: O_4  and  C_26
REMARK    3  A    between atoms: O_4  and  C_29
REMARK    4  A    between atoms: N_7  and  C_23
REMARK    5  A    between atoms: C_8  and  C_13
REMARK    6  A    between atoms: C_9  and  C_14
REMARK    7  A    between atoms: C_13  and  C_15
REMARK    8  A    between atoms: C_14  and  C_18
REMARK    9  A    between atoms: C_23  and  C_27
REMARK   10  A    between atoms: C_23  and  C_28
REMARK                            x       y       z     vdW  Elec       q    Type
REMARK                         _______ _______ _______ _____ _____    ______ ____
ROOT
ATOM      1  O   UNL     1      14.466   6.971   4.088  0.00  0.00    -0.253 OA
ATOM      5  N   UNL     1      12.645   7.414   2.723  0.00  0.00    -0.285 N 
ATOM      7  N   UNL     1      12.671   8.076   4.992  0.00  0.00    -0.297 N 
ATOM      8  C   UNL     1      10.343   6.857   1.991  0.00  0.00    +0.016 C 
ATOM      9  C   UNL     1      10.948   6.121   0.767  0.00  0.00    +0.006 C 
ATOM     10  C   UNL     1      12.383   5.638   1.043  0.00  0.00    +0.023 C 
ATOM     11  C   UNL     1      11.307   7.962   2.456  0.00  0.00    +0.113 C 
ATOM     12  C   UNL     1      13.265   6.772   1.563  0.00  0.00    +0.109 C 
ATOM     16  C   UNL     1      13.339   7.456   3.943  0.00  0.00    +0.302 C 
ATOM     30  H   UNL     1      11.695   8.325   4.913  0.00  0.00    +0.150 HD
ENDROOT
BRANCH   7  23
ATOM     23  C   UNL     1      13.251   8.191   6.312  0.00  0.00    +0.068 C 
ATOM     27  C   UNL     1      13.090   6.884   7.077  0.00  0.00    +0.027 C 
ATOM     28  C   UNL     1      12.626   9.355   7.071  0.00  0.00    +0.027 C 
ENDBRANCH   7  23
BRANCH   8  13
ATOM     13  C   UNL     1       9.983   5.933   3.160  0.00  0.00    +0.061 C 
BRANCH  13  15
ATOM      6  N   UNL     1       8.725   7.815   3.963  0.00  0.00    -0.287 NA
ATOM     15  C   UNL     1       9.365   6.738   4.278  0.00  0.00    +0.044 C 
ATOM     17  C   UNL     1       9.526   6.261   5.676  0.00  0.00    -0.001 A 
ATOM     19  C   UNL     1       9.293   7.196   6.692  0.00  0.00    -0.033 A 
ATOM     20  C   UNL     1       8.918   8.596   6.310  0.00  0.00    +0.059 C 
ATOM     21  C   UNL     1       8.073   8.563   5.043  0.00  0.00    +0.146 C 
ATOM     22  C   UNL     1       9.904   4.954   5.989  0.00  0.00    +0.013 A 
ATOM     24  C   UNL     1       9.467   6.822   8.027  0.00  0.00    +0.050 A 
ATOM     25  C   UNL     1      10.060   4.584   7.326  0.00  0.00    +0.046 A 
ATOM     26  C   UNL     1       9.845   5.516   8.342  0.00  0.00    +0.120 A 
BRANCH  26   4
ATOM      4  O   UNL     1      10.007   5.150   9.644  0.00  0.00    -0.495 OA
ATOM     29  C   UNL     1       8.913   4.482  10.271  0.00  0.00    +0.277 C 
ENDBRANCH  26   4
ENDBRANCH  13  15
ENDBRANCH   8  13
BRANCH   9  14
ATOM     14  C   UNL     1      10.077   4.967   0.270  0.00  0.00    +0.124 C 
BRANCH  14  18
ATOM      3  O   UNL     1      11.048   4.477  -1.912  0.00  0.00    -0.251 OA
ATOM     18  C   UNL     1      10.107   4.854  -1.230  0.00  0.00    +0.305 C 
BRANCH  18   2
ATOM      2  O   UNL     1       8.910   5.240  -1.741  0.00  0.00    -0.481 OA
ATOM     31  H   UNL     1       8.223   5.322  -1.045  0.00  0.00    +0.295 HD
ENDBRANCH  18   2
ENDBRANCH  14  18
ENDBRANCH   9  14
TORSDOF 7
ENDMDL
MODEL 3
REMARK VINA RESULT:      -6.1      2.144      3.263
REMARK  Name = 51136672
REMARK  10 active torsions:
REMARK  status: ('A' for Active; 'I' for Inactive)
REMARK    1  A    between atoms: O_2  and  C_18
REMARK    2  A    between atoms: O_4  and  C_26
REMARK    3  A    between atoms: O_4  and  C_29
REMARK    4  A    between atoms: N_7  and  C_23
REMARK    5  A    between atoms: C_8  and  C_13
REMARK    6  A    between atoms: C_9  and  C_14
REMARK    7  A    between atoms: C_13  and  C_15
REMARK    8  A    between atoms: C_14  and  C_18
REMARK    9  A    between atoms: C_23  and  C_27
REMARK   10  A    between atoms: C_23  and  C_28
REMARK                            x       y       z     vdW  Elec       q    Type
REMARK                         _______ _______ _______ _____ _____    ______ ____
ROOT
ATOM      1  O   UNL     1      -2.514 -10.287  13.214  0.00  0.00    -0.253 OA
ATOM      5  N   UNL     1      -4.059 -11.315  14.604  0.00  0.00    -0.285 N 
ATOM      7  N   UNL     1      -4.698 -10.397  12.522  0.00  0.00    -0.297 N 
ATOM      8  C   UNL     1      -5.899 -11.129  16.256  0.00  0.00    +0.016 C 
ATOM      9  C   UNL     1      -4.866 -11.392  17.384  0.00  0.00    +0.006 C 
ATOM     10  C   UNL     1      -3.443 -10.982  16.962  0.00  0.00    +0.023 C 
ATOM     11  C   UNL     1      -5.411 -11.778  14.949  0.00  0.00    +0.113 C 
ATOM     12  C   UNL     1      -3.053 -11.612  15.625  0.00  0.00    +0.109 C 
ATOM     16  C   UNL     1      -3.677 -10.645  13.432  0.00  0.00    +0.302 C 
ATOM     30  H   UNL     1      -5.666 -10.546  12.774  0.00  0.00    +0.150 HD
ENDROOT
BRANCH   7  23
ATOM     23  C   UNL     1      -4.465  -9.709  11.272  0.00  0.00    +0.068 C 
ATOM     27  C   UNL     1      -5.589  -8.720  10.994  0.00  0.00    +0.027 C 
ATOM     28  C   UNL     1      -4.313 -10.708  10.132  0.00  0.00    +0.027 C 
ENDBRANCH   7  23
BRANCH   8  13
ATOM     13  C   UNL     1      -6.215  -9.646  16.031  0.00  0.00    +0.061 C 
BRANCH  13  15
ATOM      6  N   UNL     1      -8.148  -9.033  17.317  0.00  0.00    -0.287 NA
ATOM     15  C   UNL     1      -7.700  -9.412  16.166  0.00  0.00    +0.044 C 
ATOM     17  C   UNL     1      -8.570  -9.632  14.982  0.00  0.00    -0.001 A 
ATOM     19  C   UNL     1      -9.940  -9.785  15.226  0.00  0.00    -0.033 A 
ATOM     20  C   UNL     1     -10.430  -9.734  16.642  0.00  0.00    +0.059 C 
ATOM     21  C   UNL     1      -9.582  -8.746  17.432  0.00  0.00    +0.146 C 
ATOM     22  C   UNL     1      -8.069  -9.701  13.680  0.00  0.00    +0.013 A 
ATOM     24  C   UNL     1     -10.806 -10.036  14.158  0.00  0.00    +0.050 A 
ATOM     25  C   UNL     1      -8.944  -9.936  12.619  0.00  0.00    +0.046 A 
ATOM     26  C   UNL     1     -10.309 -10.106  12.857  0.00  0.00    +0.120 A 
BRANCH  26   4
ATOM      4  O   UNL     1     -11.155 -10.342  11.817  0.00  0.00    -0.495 OA
ATOM     29  C   UNL     1     -10.623 -10.196  10.501  0.00  0.00    +0.277 C 
ENDBRANCH  26   4
ENDBRANCH  13  15
ENDBRANCH   8  13
BRANCH   9  14
ATOM     14  C   UNL     1      -5.245 -10.733  18.709  0.00  0.00    +0.124 C 
BRANCH  14  18
ATOM      3  O   UNL     1      -6.748 -12.561  19.297  0.00  0.00    -0.251 OA
ATOM     18  C   UNL     1      -6.463 -11.373  19.319  0.00  0.00    +0.305 C 
BRANCH  18   2
ATOM      2  O   UNL     1      -7.228 -10.424  19.917  0.00  0.00    -0.481 OA
ATOM     31  H   UNL     1      -6.851 -10.138  20.776  0.00  0.00    +0.295 HD
ENDBRANCH  18   2
ENDBRANCH  14  18
ENDBRANCH   9  14
TORSDOF 7
ENDMDL
MODEL 4
REMARK VINA RESULT:      -6.1      2.338      6.502
REMARK  Name = 51136672
REMARK  10 active torsions:
REMARK  status: ('A' for Active; 'I' for Inactive)
REMARK    1  A    between atoms: O_2  and  C_18
REMARK    2  A    between atoms: O_4  and  C_26
REMARK    3  A    between atoms: O_4  and  C_29
REMARK    4  A    between atoms: N_7  and  C_23
REMARK    5  A    between atoms: C_8  and  C_13
REMARK    6  A    between atoms: C_9  and  C_14
REMARK    7  A    between atoms: C_13  and  C_15
REMARK    8  A    between atoms: C_14  and  C_18
REMARK    9  A    between atoms: C_23  and  C_27
REMARK   10  A    between atoms: C_23  and  C_28
REMARK                            x       y       z     vdW  Elec       q    Type
REMARK                         _______ _______ _______ _____ _____    ______ ____
ROOT
ATOM      1  O   UNL     1      -7.959 -11.567  19.595  0.00  0.00    -0.253 OA
ATOM      5  N   UNL     1      -6.576 -10.332  18.203  0.00  0.00    -0.285 N 
ATOM      7  N   UNL     1      -8.924 -10.322  17.928  0.00  0.00    -0.297 N 
ATOM      8  C   UNL     1      -5.429 -10.072  16.021  0.00  0.00    +0.016 C 
ATOM      9  C   UNL     1      -4.125 -10.588  16.685  0.00  0.00    +0.006 C 
ATOM     10  C   UNL     1      -4.419 -11.474  17.908  0.00  0.00    +0.023 C 
ATOM     11  C   UNL     1      -6.323  -9.412  17.085  0.00  0.00    +0.113 C 
ATOM     12  C   UNL     1      -5.363 -10.780  18.889  0.00  0.00    +0.109 C 
ATOM     16  C   UNL     1      -7.828 -10.791  18.642  0.00  0.00    +0.302 C 
ATOM     30  H   UNL     1      -8.802  -9.821  17.059  0.00  0.00    +0.150 HD
ENDROOT
BRANCH   7  23
ATOM     23  C   UNL     1     -10.278 -10.711  18.254  0.00  0.00    +0.068 C 
ATOM     27  C   UNL     1     -10.858 -11.585  17.150  0.00  0.00    +0.027 C 
ATOM     28  C   UNL     1     -11.144  -9.480  18.497  0.00  0.00    +0.027 C 
ENDBRANCH   7  23
BRANCH   8  13
ATOM     13  C   UNL     1      -6.210 -11.149  15.259  0.00  0.00    +0.061 C 
BRANCH  13  15
ATOM      6  N   UNL     1      -8.455 -10.436  14.794  0.00  0.00    -0.287 NA
ATOM     15  C   UNL     1      -7.239 -10.501  14.364  0.00  0.00    +0.044 C 
ATOM     17  C   UNL     1      -6.809  -9.978  13.041  0.00  0.00    -0.001 A 
ATOM     19  C   UNL     1      -7.817  -9.745  12.098  0.00  0.00    -0.033 A 
ATOM     20  C   UNL     1      -9.237 -10.047  12.471  0.00  0.00    +0.059 C 
ATOM     21  C   UNL     1      -9.442  -9.752  13.951  0.00  0.00    +0.146 C 
ATOM     22  C   UNL     1      -5.471  -9.736  12.724  0.00  0.00    +0.013 A 
ATOM     24  C   UNL     1      -7.475  -9.292  10.821  0.00  0.00    +0.050 A 
ATOM     25  C   UNL     1      -5.140  -9.269  11.451  0.00  0.00    +0.046 A 
ATOM     26  C   UNL     1      -6.139  -9.050  10.501  0.00  0.00    +0.120 A 
BRANCH  26   4
ATOM      4  O   UNL     1      -5.807  -8.601   9.259  0.00  0.00    -0.495 OA
ATOM     29  C   UNL     1      -5.537  -9.586   8.263  0.00  0.00    +0.277 C 
ENDBRANCH  26   4
ENDBRANCH  13  15
ENDBRANCH   8  13
BRANCH   9  14
ATOM     14  C   UNL     1      -3.199 -11.309  15.706  0.00  0.00    +0.124 C 
BRANCH  14  18
ATOM      3  O   UNL     1      -1.456  -9.924  14.710  0.00  0.00    -0.251 OA
ATOM     18  C   UNL     1      -1.854 -10.639  15.618  0.00  0.00    +0.305 C 
BRANCH  18   2
ATOM      2  O   UNL     1      -1.117 -10.945  16.716  0.00  0.00    -0.481 OA
ATOM     31  H   UNL     1      -1.672 -11.303  17.442  0.00  0.00    +0.295 HD
ENDBRANCH  18   2
ENDBRANCH  14  18
ENDBRANCH   9  14
TORSDOF 7
ENDMDL
MODEL 5
REMARK VINA RESULT:      -6.1      2.156      3.687
REMARK  Name = 51136672
REMARK  10 active torsions:
REMARK  status: ('A' for Active; 'I' for Inactive)
REMARK    1  A    between atoms: O_2  and  C_18
REMARK    2  A    between atoms: O_4  and  C_26
REMARK    3  A    between atoms: O_4  and  C_29
REMARK    4  A    between atoms: N_7  and  C_23
REMARK    5  A    between atoms: C_8  and  C_13
REMARK    6  A    between atoms: C_9  and  C_14
REMARK    7  A    between atoms: C_13  and  C_15
REMARK    8  A    between atoms: C_14  and  C_18
REMARK    9  A    between atoms: C_23  and  C_27
REMARK   10  A    between atoms: C_23  and  C_28
REMARK                            x       y       z     vdW  Elec       q    Type
REMARK                         _______ _______ _______ _____ _____    ______ ____
ROOT
ATOM      1  O   UNL     1      -2.411 -10.755  16.419  0.00  0.00    -0.253 OA
ATOM      5  N   UNL     1      -4.490 -11.686  16.849  0.00  0.00    -0.285 N 
ATOM      7  N   UNL     1      -3.719 -11.365  14.638  0.00  0.00    -0.297 N 
ATOM      8  C   UNL     1      -6.954 -11.439  16.972  0.00  0.00    +0.016 C 
ATOM      9  C   UNL     1      -6.826 -11.276  18.510  0.00  0.00    +0.006 C 
ATOM     10  C   UNL     1      -5.438 -10.746  18.914  0.00  0.00    +0.023 C 
ATOM     11  C   UNL     1      -5.774 -12.273  16.442  0.00  0.00    +0.113 C 
ATOM     12  C   UNL     1      -4.318 -11.584  18.299  0.00  0.00    +0.109 C 
ATOM     16  C   UNL     1      -3.467 -11.239  15.998  0.00  0.00    +0.302 C 
ATOM     30  H   UNL     1      -4.641 -11.609  14.300  0.00  0.00    +0.150 HD
ENDROOT
BRANCH   7  23
ATOM     23  C   UNL     1      -2.767 -10.941  13.636  0.00  0.00    +0.068 C 
ATOM     27  C   UNL     1      -3.491 -10.375  12.422  0.00  0.00    +0.027 C 
ATOM     28  C   UNL     1      -1.853 -12.097  13.244  0.00  0.00    +0.027 C 
ENDBRANCH   7  23
BRANCH   8  13
ATOM     13  C   UNL     1      -7.057 -10.113  16.210  0.00  0.00    +0.061 C 
BRANCH  13  15
ATOM      6  N   UNL     1      -8.363 -11.037  14.419  0.00  0.00    -0.287 NA
ATOM     15  C   UNL     1      -8.282 -10.122  15.328  0.00  0.00    +0.044 C 
ATOM     17  C   UNL     1      -9.324  -9.084  15.539  0.00  0.00    -0.001 A 
ATOM     19  C   UNL     1     -10.230  -8.877  14.492  0.00  0.00    -0.033 A 
ATOM     20  C   UNL     1     -10.083  -9.691  13.242  0.00  0.00    +0.059 C 
ATOM     21  C   UNL     1      -9.581 -11.083  13.603  0.00  0.00    +0.146 C 
ATOM     22  C   UNL     1      -9.408  -8.328  16.710  0.00  0.00    +0.013 A 
ATOM     24  C   UNL     1     -11.209  -7.887  14.612  0.00  0.00    +0.050 A 
ATOM     25  C   UNL     1     -10.400  -7.352  16.828  0.00  0.00    +0.046 A 
ATOM     26  C   UNL     1     -11.296  -7.130  15.781  0.00  0.00    +0.120 A 
BRANCH  26   4
ATOM      4  O   UNL     1     -12.255  -6.171  15.900  0.00  0.00    -0.495 OA
ATOM     29  C   UNL     1     -13.614  -6.604  15.854  0.00  0.00    +0.277 C 
ENDBRANCH  26   4
ENDBRANCH  13  15
ENDBRANCH   8  13
BRANCH   9  14
ATOM     14  C   UNL     1      -7.930 -10.411  19.115  0.00  0.00    +0.124 C 
BRANCH  14  18
ATOM      3  O   UNL     1      -9.189 -12.450  19.565  0.00  0.00    -0.251 OA
ATOM     18  C   UNL     1      -9.023 -11.250  19.720  0.00  0.00    +0.305 C 
BRANCH  18   2
ATOM      2  O   UNL     1      -9.828 -10.470  20.487  0.00  0.00    -0.481 OA
ATOM     31  H   UNL     1     -10.623 -10.170  19.997  0.00  0.00    +0.295 HD
ENDBRANCH  18   2
ENDBRANCH  14  18
ENDBRANCH   9  14
TORSDOF 7
ENDMDL
MODEL 6
REMARK VINA RESULT:      -6.0     19.499     21.411
REMARK  Name = 51136672
REMARK  10 active torsions:
REMARK  status: ('A' for Active; 'I' for Inactive)
REMARK    1  A    between atoms: O_2  and  C_18
REMARK    2  A    between atoms: O_4  and  C_26
REMARK    3  A    between atoms: O_4  and  C_29
REMARK    4  A    between atoms: N_7  and  C_23
REMARK    5  A    between atoms: C_8  and  C_13
REMARK    6  A    between atoms: C_9  and  C_14
REMARK    7  A    between atoms: C_13  and  C_15
REMARK    8  A    between atoms: C_14  and  C_18
REMARK    9  A    between atoms: C_23  and  C_27
REMARK   10  A    between atoms: C_23  and  C_28
REMARK                            x       y       z     vdW  Elec       q    Type
REMARK                         _______ _______ _______ _____ _____    ______ ____
ROOT
ATOM      1  O   UNL     1     -16.615   6.955  17.974  0.00  0.00    -0.253 OA
ATOM      5  N   UNL     1     -16.351   7.388  20.237  0.00  0.00    -0.285 N 
ATOM      7  N   UNL     1     -15.440   8.824  18.595  0.00  0.00    -0.297 N 
ATOM      8  C   UNL     1     -14.925   7.345  22.264  0.00  0.00    +0.016 C 
ATOM      9  C   UNL     1     -15.651   6.046  22.704  0.00  0.00    +0.006 C 
ATOM     10  C   UNL     1     -16.235   5.283  21.502  0.00  0.00    +0.023 C 
ATOM     11  C   UNL     1     -15.860   8.181  21.372  0.00  0.00    +0.113 C 
ATOM     12  C   UNL     1     -17.098   6.191  20.627  0.00  0.00    +0.109 C 
ATOM     16  C   UNL     1     -16.169   7.674  18.875  0.00  0.00    +0.302 C 
ATOM     30  H   UNL     1     -14.945   9.316  19.326  0.00  0.00    +0.150 HD
ENDROOT
BRANCH   7  23
ATOM     23  C   UNL     1     -15.161   9.248  17.241  0.00  0.00    +0.068 C 
ATOM     27  C   UNL     1     -14.155   8.309  16.589  0.00  0.00    +0.027 C 
ATOM     28  C   UNL     1     -14.664  10.689  17.224  0.00  0.00    +0.027 C 
ENDBRANCH   7  23
BRANCH   8  13
ATOM     13  C   UNL     1     -13.586   7.103  21.558  0.00  0.00    +0.061 C 
BRANCH  13  15
ATOM      6  N   UNL     1     -13.033   9.357  22.175  0.00  0.00    -0.287 NA
ATOM     15  C   UNL     1     -12.901   8.422  21.294  0.00  0.00    +0.044 C 
ATOM     17  C   UNL     1     -12.118   8.583  20.041  0.00  0.00    -0.001 A 
ATOM     19  C   UNL     1     -11.829   9.894  19.642  0.00  0.00    -0.033 A 
ATOM     20  C   UNL     1     -12.332  11.030  20.481  0.00  0.00    +0.059 C 
ATOM     21  C   UNL     1     -12.317  10.617  21.948  0.00  0.00    +0.146 C 
ATOM     22  C   UNL     1     -11.692   7.498  19.273  0.00  0.00    +0.013 A 
ATOM     24  C   UNL     1     -11.132  10.115  18.452  0.00  0.00    +0.050 A 
ATOM     25  C   UNL     1     -10.982   7.728  18.093  0.00  0.00    +0.046 A 
ATOM     26  C   UNL     1     -10.705   9.032  17.682  0.00  0.00    +0.120 A 
BRANCH  26   4
ATOM      4  O   UNL     1     -10.018   9.248  16.526  0.00  0.00    -0.495 OA
ATOM     29  C   UNL     1     -10.647   8.841  15.312  0.00  0.00    +0.277 C 
ENDBRANCH  26   4
ENDBRANCH  13  15
ENDBRANCH   8  13
BRANCH   9  14
ATOM     14  C   UNL     1     -14.773   5.126  23.552  0.00  0.00    +0.124 C 
BRANCH  14  18
ATOM      3  O   UNL     1     -16.331   4.552  25.337  0.00  0.00    -0.251 OA
ATOM     18  C   UNL     1     -15.598   4.215  24.419  0.00  0.00    +0.305 C 
BRANCH  18   2
ATOM      2  O   UNL     1     -15.415   2.926  24.034  0.00  0.00    -0.481 OA
ATOM     31  H   UNL     1     -15.738   2.767  23.122  0.00  0.00    +0.295 HD
ENDBRANCH  18   2
ENDBRANCH  14  18
ENDBRANCH   9  14
TORSDOF 7
ENDMDL
MODEL 7
REMARK VINA RESULT:      -5.7     24.910     28.801
REMARK  Name = 51136672
REMARK  10 active torsions:
REMARK  status: ('A' for Active; 'I' for Inactive)
REMARK    1  A    between atoms: O_2  and  C_18
REMARK    2  A    between atoms: O_4  and  C_26
REMARK    3  A    between atoms: O_4  and  C_29
REMARK    4  A    between atoms: N_7  and  C_23
REMARK    5  A    between atoms: C_8  and  C_13
REMARK    6  A    between atoms: C_9  and  C_14
REMARK    7  A    between atoms: C_13  and  C_15
REMARK    8  A    between atoms: C_14  and  C_18
REMARK    9  A    between atoms: C_23  and  C_27
REMARK   10  A    between atoms: C_23  and  C_28
REMARK                            x       y       z     vdW  Elec       q    Type
REMARK                         _______ _______ _______ _____ _____    ______ ____
ROOT
ATOM      1  O   UNL     1      14.951  10.407   6.251  0.00  0.00    -0.253 OA
ATOM      5  N   UNL     1      13.490   8.620   6.472  0.00  0.00    -0.285 N 
ATOM      7  N   UNL     1      15.618   8.353   5.478  0.00  0.00    -0.297 N 
ATOM      8  C   UNL     1      11.837   7.078   5.454  0.00  0.00    +0.016 C 
ATOM      9  C   UNL     1      10.704   7.945   6.064  0.00  0.00    +0.006 C 
ATOM     10  C   UNL     1      11.162   9.395   6.306  0.00  0.00    +0.023 C 
ATOM     11  C   UNL     1      13.107   7.210   6.313  0.00  0.00    +0.113 C 
ATOM     12  C   UNL     1      12.461   9.446   7.108  0.00  0.00    +0.109 C 
ATOM     16  C   UNL     1      14.703   9.208   6.082  0.00  0.00    +0.302 C 
ATOM     30  H   UNL     1      15.350   7.419   5.198  0.00  0.00    +0.150 HD
ENDROOT
BRANCH   7  23
ATOM     23  C   UNL     1      16.908   8.811   5.013  0.00  0.00    +0.068 C 
ATOM     27  C   UNL     1      17.290   8.097   3.723  0.00  0.00    +0.027 C 
ATOM     28  C   UNL     1      17.967   8.608   6.091  0.00  0.00    +0.027 C 
ENDBRANCH   7  23
BRANCH   8  13
ATOM     13  C   UNL     1      12.147   7.399   3.987  0.00  0.00    +0.061 C 
BRANCH  13  15
ATOM      6  N   UNL     1      10.717   5.669   3.133  0.00  0.00    -0.287 NA
ATOM     15  C   UNL     1      11.904   6.178   3.133  0.00  0.00    +0.044 C 
ATOM     17  C   UNL     1      13.033   5.620   2.344  0.00  0.00    -0.001 A 
ATOM     19  C   UNL     1      12.892   4.305   1.885  0.00  0.00    -0.033 A 
ATOM     20  C   UNL     1      11.641   3.553   2.225  0.00  0.00    +0.059 C 
ATOM     21  C   UNL     1      10.465   4.521   2.256  0.00  0.00    +0.146 C 
ATOM     22  C   UNL     1      14.195   6.346   2.072  0.00  0.00    +0.013 A 
ATOM     24  C   UNL     1      13.936   3.708   1.173  0.00  0.00    +0.050 A 
ATOM     25  C   UNL     1      15.225   5.746   1.346  0.00  0.00    +0.046 A 
ATOM     26  C   UNL     1      15.098   4.430   0.900  0.00  0.00    +0.120 A 
BRANCH  26   4
ATOM      4  O   UNL     1      16.110   3.850   0.198  0.00  0.00    -0.495 OA
ATOM     29  C   UNL     1      16.433   4.423  -1.069  0.00  0.00    +0.277 C 
ENDBRANCH  26   4
ENDBRANCH  13  15
ENDBRANCH   8  13
BRANCH   9  14
ATOM     14  C   UNL     1       9.417   7.916   5.241  0.00  0.00    +0.124 C 
BRANCH  14  18
ATOM      3  O   UNL     1       8.290   5.782   5.587  0.00  0.00    -0.251 OA
ATOM     18  C   UNL     1       8.402   6.974   5.830  0.00  0.00    +0.305 C 
BRANCH  18   2
ATOM      2  O   UNL     1       7.602   7.647   6.696  0.00  0.00    -0.481 OA
ATOM     31  H   UNL     1       7.491   7.164   7.543  0.00  0.00    +0.295 HD
ENDBRANCH  18   2
ENDBRANCH  14  18
ENDBRANCH   9  14
TORSDOF 7
ENDMDL
MODEL 8
REMARK VINA RESULT:      -5.7     24.610     27.427
REMARK  Name = 51136672
REMARK  10 active torsions:
REMARK  status: ('A' for Active; 'I' for Inactive)
REMARK    1  A    between atoms: O_2  and  C_18
REMARK    2  A    between atoms: O_4  and  C_26
REMARK    3  A    between atoms: O_4  and  C_29
REMARK    4  A    between atoms: N_7  and  C_23
REMARK    5  A    between atoms: C_8  and  C_13
REMARK    6  A    between atoms: C_9  and  C_14
REMARK    7  A    between atoms: C_13  and  C_15
REMARK    8  A    between atoms: C_14  and  C_18
REMARK    9  A    between atoms: C_23  and  C_27
REMARK   10  A    between atoms: C_23  and  C_28
REMARK                            x       y       z     vdW  Elec       q    Type
REMARK                         _______ _______ _______ _____ _____    ______ ____
ROOT
ATOM      1  O   UNL     1      10.437   9.862   1.306  0.00  0.00    -0.253 OA
ATOM      5  N   UNL     1      10.808   7.573   1.336  0.00  0.00    -0.285 N 
ATOM      7  N   UNL     1       9.280   8.591   2.825  0.00  0.00    -0.297 N 
ATOM      8  C   UNL     1      11.884   5.600   2.384  0.00  0.00    +0.016 C 
ATOM      9  C   UNL     1      12.978   5.657   1.286  0.00  0.00    +0.006 C 
ATOM     10  C   UNL     1      13.133   7.075   0.707  0.00  0.00    +0.023 C 
ATOM     11  C   UNL     1      10.579   6.213   1.844  0.00  0.00    +0.113 C 
ATOM     12  C   UNL     1      11.790   7.644   0.252  0.00  0.00    +0.109 C 
ATOM     16  C   UNL     1      10.190   8.750   1.787  0.00  0.00    +0.302 C 
ATOM     30  H   UNL     1       9.202   7.712   3.318  0.00  0.00    +0.150 HD
ENDROOT
BRANCH   7  23
ATOM     23  C   UNL     1       8.569   9.709   3.403  0.00  0.00    +0.068 C 
ATOM     27  C   UNL     1       9.457  10.444   4.398  0.00  0.00    +0.027 C 
ATOM     28  C   UNL     1       7.276   9.239   4.058  0.00  0.00    +0.027 C 
ENDBRANCH   7  23
BRANCH   8  13
ATOM     13  C   UNL     1      12.285   6.272   3.702  0.00  0.00    +0.061 C 
BRANCH  13  15
ATOM      6  N   UNL     1      10.550   4.934   4.684  0.00  0.00    -0.287 NA
ATOM     15  C   UNL     1      11.218   6.038   4.743  0.00  0.00    +0.044 C 
ATOM     17  C   UNL     1      10.982   7.082   5.774  0.00  0.00    -0.001 A 
ATOM     19  C   UNL     1       9.766   7.023   6.465  0.00  0.00    -0.033 A 
ATOM     20  C   UNL     1       8.791   5.939   6.116  0.00  0.00    +0.059 C 
ATOM     21  C   UNL     1       9.556   4.679   5.732  0.00  0.00    +0.146 C 
ATOM     22  C   UNL     1      11.906   8.093   6.049  0.00  0.00    +0.013 A 
ATOM     24  C   UNL     1       9.466   8.000   7.418  0.00  0.00    +0.050 A 
ATOM     25  C   UNL     1      11.605   9.055   7.014  0.00  0.00    +0.046 A 
ATOM     26  C   UNL     1      10.387   9.011   7.695  0.00  0.00    +0.120 A 
BRANCH  26   4
ATOM      4  O   UNL     1      10.098   9.958   8.630  0.00  0.00    -0.495 OA
ATOM     29  C   UNL     1       9.520  11.176   8.163  0.00  0.00    +0.277 C 
ENDBRANCH  26   4
ENDBRANCH  13  15
ENDBRANCH   8  13
BRANCH   9  14
ATOM     14  C   UNL     1      14.328   5.117   1.756  0.00  0.00    +0.124 C 
BRANCH  14  18
ATOM      3  O   UNL     1      13.513   2.874   1.258  0.00  0.00    -0.251 OA
ATOM     18  C   UNL     1      14.365   3.613   1.727  0.00  0.00    +0.305 C 
BRANCH  18   2
ATOM      2  O   UNL     1      15.509   3.172   2.310  0.00  0.00    -0.481 OA
ATOM     31  H   UNL     1      16.106   2.739   1.663  0.00  0.00    +0.295 HD
ENDBRANCH  18   2
ENDBRANCH  14  18
ENDBRANCH   9  14
TORSDOF 7
ENDMDL
MODEL 9
REMARK VINA RESULT:      -5.7     23.486     27.252
REMARK  Name = 51136672
REMARK  10 active torsions:
REMARK  status: ('A' for Active; 'I' for Inactive)
REMARK    1  A    between atoms: O_2  and  C_18
REMARK    2  A    between atoms: O_4  and  C_26
REMARK    3  A    between atoms: O_4  and  C_29
REMARK    4  A    between atoms: N_7  and  C_23
REMARK    5  A    between atoms: C_8  and  C_13
REMARK    6  A    between atoms: C_9  and  C_14
REMARK    7  A    between atoms: C_13  and  C_15
REMARK    8  A    between atoms: C_14  and  C_18
REMARK    9  A    between atoms: C_23  and  C_27
REMARK   10  A    between atoms: C_23  and  C_28
REMARK                            x       y       z     vdW  Elec       q    Type
REMARK                         _______ _______ _______ _____ _____    ______ ____
ROOT
ATOM      1  O   UNL     1       9.305  11.731   6.394  0.00  0.00    -0.253 OA
ATOM      5  N   UNL     1      10.388   9.704   6.704  0.00  0.00    -0.285 N 
ATOM      7  N   UNL     1      10.589  10.910   4.681  0.00  0.00    -0.297 N 
ATOM      8  C   UNL     1      10.502   7.262   6.294  0.00  0.00    +0.016 C 
ATOM      9  C   UNL     1       9.895   7.032   7.703  0.00  0.00    +0.006 C 
ATOM     10  C   UNL     1       9.063   8.241   8.170  0.00  0.00    +0.023 C 
ATOM     11  C   UNL     1      11.259   8.602   6.271  0.00  0.00    +0.113 C 
ATOM     12  C   UNL     1       9.855   9.543   8.058  0.00  0.00    +0.109 C 
ATOM     16  C   UNL     1      10.046  10.843   5.958  0.00  0.00    +0.302 C 
ATOM     30  H   UNL     1      11.058  10.112   4.273  0.00  0.00    +0.150 HD
ENDROOT
BRANCH   7  23
ATOM     23  C   UNL     1      10.322  12.016   3.788  0.00  0.00    +0.068 C 
ATOM     27  C   UNL     1       9.806  11.504   2.450  0.00  0.00    +0.027 C 
ATOM     28  C   UNL     1      11.571  12.870   3.607  0.00  0.00    +0.027 C 
ENDBRANCH   7  23
BRANCH   8  13
ATOM     13  C   UNL     1       9.478   7.206   5.155  0.00  0.00    +0.061 C 
BRANCH  13  15
ATOM      6  N   UNL     1      10.390   5.100   4.446  0.00  0.00    -0.287 NA
ATOM     15  C   UNL     1       9.958   6.262   4.079  0.00  0.00    +0.044 C 
ATOM     17  C   UNL     1       9.919   6.710   2.664  0.00  0.00    -0.001 A 
ATOM     19  C   UNL     1      10.708   5.996   1.753  0.00  0.00    -0.033 A 
ATOM     20  C   UNL     1      11.538   4.855   2.260  0.00  0.00    +0.059 C 
ATOM     21  C   UNL     1      10.798   4.161   3.397  0.00  0.00    +0.146 C 
ATOM     22  C   UNL     1       9.153   7.797   2.238  0.00  0.00    +0.013 A 
ATOM     24  C   UNL     1      10.747   6.393   0.414  0.00  0.00    +0.050 A 
ATOM     25  C   UNL     1       9.186   8.177   0.895  0.00  0.00    +0.046 A 
ATOM     26  C   UNL     1       9.983   7.479  -0.014  0.00  0.00    +0.120 A 
BRANCH  26   4
ATOM      4  O   UNL     1      10.015   7.860  -1.321  0.00  0.00    -0.495 OA
ATOM     29  C   UNL     1       8.871   7.550  -2.116  0.00  0.00    +0.277 C 
ENDBRANCH  26   4
ENDBRANCH  13  15
ENDBRANCH   8  13
BRANCH   9  14
ATOM     14  C   UNL     1       9.077   5.745   7.801  0.00  0.00    +0.124 C 
BRANCH  14  18
ATOM      3  O   UNL     1      10.221   4.422   9.498  0.00  0.00    -0.251 OA
ATOM     18  C   UNL     1       9.899   4.604   8.334  0.00  0.00    +0.305 C 
BRANCH  18   2
ATOM      2  O   UNL     1      10.247   3.775   7.316  0.00  0.00    -0.481 OA
ATOM     31  H   UNL     1      10.505   4.273   6.511  0.00  0.00    +0.295 HD
ENDBRANCH  18   2
ENDBRANCH  14  18
ENDBRANCH   9  14
TORSDOF 7
ENDMDL
MODEL 10
REMARK VINA RESULT:      -5.6     21.172     24.323
REMARK  Name = 51136672
REMARK  10 active torsions:
REMARK  status: ('A' for Active; 'I' for Inactive)
REMARK    1  A    between atoms: O_2  and  C_18
REMARK    2  A    between atoms: O_4  and  C_26
REMARK    3  A    between atoms: O_4  and  C_29
REMARK    4  A    between atoms: N_7  and  C_23
REMARK    5  A    between atoms: C_8  and  C_13
REMARK    6  A    between atoms: C_9  and  C_14
REMARK    7  A    between atoms: C_13  and  C_15
REMARK    8  A    between atoms: C_14  and  C_18
REMARK    9  A    between atoms: C_23  and  C_27
REMARK   10  A    between atoms: C_23  and  C_28
REMARK                            x       y       z     vdW  Elec       q    Type
REMARK                         _______ _______ _______ _____ _____    ______ ____
ROOT
ATOM      1  O   UNL     1     -12.327  13.242  26.570  0.00  0.00    -0.253 OA
ATOM      5  N   UNL     1     -13.910  12.082  25.334  0.00  0.00    -0.285 N 
ATOM      7  N   UNL     1     -12.312  10.950  26.658  0.00  0.00    -0.297 N 
ATOM      8  C   UNL     1     -14.492  10.756  23.323  0.00  0.00    +0.016 C 
ATOM      9  C   UNL     1     -15.095  12.040  22.694  0.00  0.00    +0.006 C 
ATOM     10  C   UNL     1     -14.461  13.314  23.279  0.00  0.00    +0.023 C 
ATOM     11  C   UNL     1     -14.559  10.853  24.857  0.00  0.00    +0.113 C 
ATOM     12  C   UNL     1     -14.505  13.311  24.806  0.00  0.00    +0.109 C 
ATOM     16  C   UNL     1     -12.819  12.165  26.213  0.00  0.00    +0.302 C 
ATOM     30  H   UNL     1     -12.610  10.079  26.241  0.00  0.00    +0.150 HD
ENDROOT
BRANCH   7  23
ATOM     23  C   UNL     1     -11.184  10.871  27.560  0.00  0.00    +0.068 C 
ATOM     27  C   UNL     1     -10.069  10.039  26.941  0.00  0.00    +0.027 C 
ATOM     28  C   UNL     1     -11.616  10.302  28.906  0.00  0.00    +0.027 C 
ENDBRANCH   7  23
BRANCH   8  13
ATOM     13  C   UNL     1     -13.061  10.450  22.868  0.00  0.00    +0.061 C 
BRANCH  13  15
ATOM      6  N   UNL     1     -13.751   8.207  22.360  0.00  0.00    -0.287 NA
ATOM     15  C   UNL     1     -13.054   9.227  21.983  0.00  0.00    +0.044 C 
ATOM     17  C   UNL     1     -12.249   9.251  20.734  0.00  0.00    -0.001 A 
ATOM     19  C   UNL     1     -11.952   8.013  20.151  0.00  0.00    -0.033 A 
ATOM     20  C   UNL     1     -12.444   6.765  20.820  0.00  0.00    +0.059 C 
ATOM     21  C   UNL     1     -13.794   7.042  21.470  0.00  0.00    +0.146 C 
ATOM     22  C   UNL     1     -11.786  10.436  20.158  0.00  0.00    +0.013 A 
ATOM     24  C   UNL     1     -11.163   7.966  18.998  0.00  0.00    +0.050 A 
ATOM     25  C   UNL     1     -11.012  10.379  18.998  0.00  0.00    +0.046 A 
ATOM     26  C   UNL     1     -10.699   9.147  18.421  0.00  0.00    +0.120 A 
BRANCH  26   4
ATOM      4  O   UNL     1      -9.938   9.100  17.293  0.00  0.00    -0.495 OA
ATOM     29  C   UNL     1     -10.442   8.331  16.201  0.00  0.00    +0.277 C 
ENDBRANCH  26   4
ENDBRANCH  13  15
ENDBRANCH   8  13
BRANCH   9  14
ATOM     14  C   UNL     1     -15.020  12.052  21.167  0.00  0.00    +0.124 C 
BRANCH  14  18
ATOM      3  O   UNL     1     -15.718  10.058  19.949  0.00  0.00    -0.251 OA
ATOM     18  C   UNL     1     -15.995  11.083  20.555  0.00  0.00    +0.305 C 
BRANCH  18   2
ATOM      2  O   UNL     1     -17.264  11.512  20.773  0.00  0.00    -0.481 OA
ATOM     31  H   UNL     1     -17.784  11.552  19.942  0.00  0.00    +0.295 HD
ENDBRANCH  18   2
ENDBRANCH  14  18
ENDBRANCH   9  14
TORSDOF 7
ENDMDL
