MODEL 1
REMARK VINA RESULT:      -7.3      0.000      0.000
REMARK  Name = 7143846
REMARK  7 active torsions:
REMARK  status: ('A' for Active; 'I' for Inactive)
REMARK    1  A    between atoms: S_1  and  N_6
REMARK    2  A    between atoms: S_1  and  C_17
REMARK    3  A    between atoms: S_2  and  C_27
REMARK    4  A    between atoms: S_2  and  C_28
REMARK    5  A    between atoms: C_17  and  C_20
REMARK    6  A    between atoms: C_18  and  C_21
REMARK    7  A    between atoms: C_20  and  C_22
REMARK                            x       y       z     vdW  Elec       q    Type
REMARK                         _______ _______ _______ _____ _____    ______ ____
ROOT
ATOM      5  O   UNL     1      15.461   6.116  20.559  0.00  0.00    -0.267 OA
ATOM      6  N   UNL     1      13.002   9.208  17.521  0.00  0.00    -0.180 NA
ATOM      7  N   UNL     1      14.399   8.151  20.149  0.00  0.00    -0.311 N 
ATOM      8  C   UNL     1      11.908   8.316  19.579  0.00  0.00    +0.025 C 
ATOM      9  C   UNL     1      13.267  10.358  19.709  0.00  0.00    +0.052 C 
ATOM     10  C   UNL     1      11.994   9.692  20.227  0.00  0.00    +0.017 C 
ATOM     11  C   UNL     1      11.837   8.443  18.048  0.00  0.00    +0.114 C 
ATOM     12  C   UNL     1      13.169  10.536  18.183  0.00  0.00    +0.118 C 
ATOM     13  C   UNL     1      13.100   7.472  20.042  0.00  0.00    +0.130 C 
ATOM     14  C   UNL     1      14.495   9.542  20.068  0.00  0.00    +0.026 A 
ATOM     15  C   UNL     1      15.672  10.150  20.284  0.00  0.00    +0.022 A 
ATOM     16  C   UNL     1      15.514   7.342  20.444  0.00  0.00    +0.259 A 
ATOM     18  C   UNL     1      16.828   8.049  20.646  0.00  0.00    +0.047 A 
ATOM     19  C   UNL     1      16.854   9.388  20.572  0.00  0.00    +0.015 A 
ENDROOT
BRANCH  18  21
ATOM     21  C   UNL     1      18.066   7.298  20.912  0.00  0.00    -0.013 A 
ATOM     23  C   UNL     1      18.406   6.206  20.114  0.00  0.00    +0.010 A 
ATOM     24  C   UNL     1      18.901   7.678  21.964  0.00  0.00    +0.010 A 
ATOM     25  C   UNL     1      19.580   5.494  20.366  0.00  0.00    +0.015 A 
ATOM     26  C   UNL     1      20.074   6.967  22.216  0.00  0.00    +0.015 A 
ATOM     27  C   UNL     1      20.413   5.874  21.417  0.00  0.00    +0.008 A 
BRANCH  27   2
ATOM      2  S   UNL     1      21.911   4.965  21.741  0.00  0.00    -0.129 S 
ATOM     28  C   UNL     1      21.460   3.298  21.180  0.00  0.00    +0.090 C 
ENDBRANCH  27   2
ENDBRANCH  18  21
BRANCH   6   1
ATOM      1  S   UNL     1      13.180   9.204  15.819  0.00  0.00    +0.032 S 
ATOM      3  O   UNL     1      11.867   9.224  15.213  0.00  0.00    -0.158 OA
ATOM      4  O   UNL     1      14.169   8.211  15.456  0.00  0.00    -0.158 OA
BRANCH   1  17
ATOM     17  C   UNL     1      13.909  10.806  15.604  0.00  0.00    +0.185 C 
BRANCH  17  20
ATOM     20  C   UNL     1      15.330  10.702  15.076  0.00  0.00    +0.021 C 
ATOM     22  C   UNL     1      16.161  11.912  15.470  0.00  0.00    +0.005 C 
ENDBRANCH  17  20
ENDBRANCH   1  17
ENDBRANCH   6   1
TORSDOF 5
ENDMDL
MODEL 2
REMARK VINA RESULT:      -7.0      1.838      2.335
REMARK  Name = 7143846
REMARK  7 active torsions:
REMARK  status: ('A' for Active; 'I' for Inactive)
REMARK    1  A    between atoms: S_1  and  N_6
REMARK    2  A    between atoms: S_1  and  C_17
REMARK    3  A    between atoms: S_2  and  C_27
REMARK    4  A    between atoms: S_2  and  C_28
REMARK    5  A    between atoms: C_17  and  C_20
REMARK    6  A    between atoms: C_18  and  C_21
REMARK    7  A    between atoms: C_20  and  C_22
REMARK                            x       y       z     vdW  Elec       q    Type
REMARK                         _______ _______ _______ _____ _____    ______ ____
ROOT
ATOM      5  O   UNL     1      15.534   6.895  22.175  0.00  0.00    -0.267 OA
ATOM      6  N   UNL     1      12.340   9.313  19.210  0.00  0.00    -0.180 NA
ATOM      7  N   UNL     1      14.500   8.862  21.471  0.00  0.00    -0.311 N 
ATOM      8  C   UNL     1      11.975   9.243  21.679  0.00  0.00    +0.025 C 
ATOM      9  C   UNL     1      13.397  10.994  20.707  0.00  0.00    +0.052 C 
ATOM     10  C   UNL     1      12.348  10.717  21.780  0.00  0.00    +0.017 C 
ATOM     11  C   UNL     1      11.390   8.928  20.292  0.00  0.00    +0.114 C 
ATOM     12  C   UNL     1      12.790  10.733  19.315  0.00  0.00    +0.118 C 
ATOM     13  C   UNL     1      13.210   8.394  21.999  0.00  0.00    +0.130 C 
ATOM     14  C   UNL     1      14.631  10.136  20.914  0.00  0.00    +0.026 A 
ATOM     15  C   UNL     1      15.840  10.588  20.544  0.00  0.00    +0.022 A 
ATOM     16  C   UNL     1      15.606   8.010  21.654  0.00  0.00    +0.259 A 
ATOM     18  C   UNL     1      16.943   8.529  21.197  0.00  0.00    +0.047 A 
ATOM     19  C   UNL     1      17.009   9.766  20.685  0.00  0.00    +0.015 A 
ENDROOT
BRANCH  18  21
ATOM     21  C   UNL     1      18.158   7.703  21.298  0.00  0.00    -0.013 A 
ATOM     23  C   UNL     1      19.091   7.953  22.304  0.00  0.00    +0.010 A 
ATOM     24  C   UNL     1      18.377   6.669  20.386  0.00  0.00    +0.010 A 
ATOM     25  C   UNL     1      20.242   7.170  22.400  0.00  0.00    +0.015 A 
ATOM     26  C   UNL     1      19.528   5.887  20.482  0.00  0.00    +0.015 A 
ATOM     27  C   UNL     1      20.461   6.138  21.488  0.00  0.00    +0.008 A 
BRANCH  27   2
ATOM      2  S   UNL     1      21.932   5.140  21.608  0.00  0.00    -0.129 S 
ATOM     28  C   UNL     1      21.317   3.512  21.090  0.00  0.00    +0.090 C 
ENDBRANCH  27   2
ENDBRANCH  18  21
BRANCH   6   1
ATOM      1  S   UNL     1      11.922   8.785  17.637  0.00  0.00    +0.032 S 
ATOM      3  O   UNL     1      12.449   9.727  16.674  0.00  0.00    -0.158 OA
ATOM      4  O   UNL     1      10.529   8.391  17.632  0.00  0.00    -0.158 OA
BRANCH   1  17
ATOM     17  C   UNL     1      12.907   7.312  17.560  0.00  0.00    +0.185 C 
BRANCH  17  20
ATOM     20  C   UNL     1      14.384   7.640  17.417  0.00  0.00    +0.021 C 
ATOM     22  C   UNL     1      15.219   6.908  18.454  0.00  0.00    +0.005 C 
ENDBRANCH  17  20
ENDBRANCH   1  17
ENDBRANCH   6   1
TORSDOF 5
ENDMDL
MODEL 3
REMARK VINA RESULT:      -6.8      4.361      5.764
REMARK  Name = 7143846
REMARK  7 active torsions:
REMARK  status: ('A' for Active; 'I' for Inactive)
REMARK    1  A    between atoms: S_1  and  N_6
REMARK    2  A    between atoms: S_1  and  C_17
REMARK    3  A    between atoms: S_2  and  C_27
REMARK    4  A    between atoms: S_2  and  C_28
REMARK    5  A    between atoms: C_17  and  C_20
REMARK    6  A    between atoms: C_18  and  C_21
REMARK    7  A    between atoms: C_20  and  C_22
REMARK                            x       y       z     vdW  Elec       q    Type
REMARK                         _______ _______ _______ _____ _____    ______ ____
ROOT
ATOM      5  O   UNL     1      15.208   9.626  22.689  0.00  0.00    -0.267 OA
ATOM      6  N   UNL     1      12.260   8.104  18.970  0.00  0.00    -0.180 NA
ATOM      7  N   UNL     1      13.099   9.088  21.852  0.00  0.00    -0.311 N 
ATOM      8  C   UNL     1      12.496   6.734  21.043  0.00  0.00    +0.025 C 
ATOM      9  C   UNL     1      10.816   8.524  20.950  0.00  0.00    +0.052 C 
ATOM     10  C   UNL     1      11.078   7.108  21.456  0.00  0.00    +0.017 C 
ATOM     11  C   UNL     1      12.639   6.768  19.512  0.00  0.00    +0.114 C 
ATOM     12  C   UNL     1      10.904   8.544  19.412  0.00  0.00    +0.118 C 
ATOM     13  C   UNL     1      13.483   7.673  21.744  0.00  0.00    +0.130 C 
ATOM     14  C   UNL     1      11.803   9.509  21.547  0.00  0.00    +0.026 A 
ATOM     15  C   UNL     1      11.441  10.784  21.763  0.00  0.00    +0.022 A 
ATOM     16  C   UNL     1      14.067   9.969  22.376  0.00  0.00    +0.259 A 
ATOM     18  C   UNL     1      13.643  11.399  22.572  0.00  0.00    +0.047 A 
ATOM     19  C   UNL     1      12.380  11.741  22.278  0.00  0.00    +0.015 A 
ENDROOT
BRANCH  18  21
ATOM     21  C   UNL     1      14.587  12.414  23.070  0.00  0.00    -0.013 A 
ATOM     23  C   UNL     1      14.588  12.766  24.419  0.00  0.00    +0.010 A 
ATOM     24  C   UNL     1      15.482  13.025  22.191  0.00  0.00    +0.010 A 
ATOM     25  C   UNL     1      15.482  13.727  24.891  0.00  0.00    +0.015 A 
ATOM     26  C   UNL     1      16.376  13.986  22.661  0.00  0.00    +0.015 A 
ATOM     27  C   UNL     1      16.376  14.338  24.012  0.00  0.00    +0.008 A 
BRANCH  27   2
ATOM      2  S   UNL     1      17.517  15.567  24.613  0.00  0.00    -0.129 S 
ATOM     28  C   UNL     1      18.519  14.603  25.780  0.00  0.00    +0.090 C 
ENDBRANCH  27   2
ENDBRANCH  18  21
BRANCH   6   1
ATOM      1  S   UNL     1      12.616   8.358  17.315  0.00  0.00    +0.032 S 
ATOM      3  O   UNL     1      11.377   8.380  16.570  0.00  0.00    -0.158 OA
ATOM      4  O   UNL     1      13.715   7.495  16.937  0.00  0.00    -0.158 OA
BRANCH   1  17
ATOM     17  C   UNL     1      13.232  10.019  17.407  0.00  0.00    +0.185 C 
BRANCH  17  20
ATOM     20  C   UNL     1      14.111  10.217  18.631  0.00  0.00    +0.021 C 
ATOM     22  C   UNL     1      14.252  11.688  18.982  0.00  0.00    +0.005 C 
ENDBRANCH  17  20
ENDBRANCH   1  17
ENDBRANCH   6   1
TORSDOF 5
ENDMDL
MODEL 4
REMARK VINA RESULT:      -6.5     17.162     19.947
REMARK  Name = 7143846
REMARK  7 active torsions:
REMARK  status: ('A' for Active; 'I' for Inactive)
REMARK    1  A    between atoms: S_1  and  N_6
REMARK    2  A    between atoms: S_1  and  C_17
REMARK    3  A    between atoms: S_2  and  C_27
REMARK    4  A    between atoms: S_2  and  C_28
REMARK    5  A    between atoms: C_17  and  C_20
REMARK    6  A    between atoms: C_18  and  C_21
REMARK    7  A    between atoms: C_20  and  C_22
REMARK                            x       y       z     vdW  Elec       q    Type
REMARK                         _______ _______ _______ _____ _____    ______ ____
ROOT
ATOM      5  O   UNL     1      12.150   7.841   2.272  0.00  0.00    -0.267 OA
ATOM      6  N   UNL     1      13.493   4.167  -0.816  0.00  0.00    -0.180 NA
ATOM      7  N   UNL     1      12.738   5.618   1.887  0.00  0.00    -0.311 N 
ATOM      8  C   UNL     1      15.038   4.937   0.987  0.00  0.00    +0.025 C 
ATOM      9  C   UNL     1      13.359   3.212   1.476  0.00  0.00    +0.052 C 
ATOM     10  C   UNL     1      14.797   3.641   1.752  0.00  0.00    +0.017 C 
ATOM     11  C   UNL     1      14.847   4.715  -0.523  0.00  0.00    +0.114 C 
ATOM     12  C   UNL     1      13.185   2.935  -0.030  0.00  0.00    +0.118 C 
ATOM     13  C   UNL     1      14.109   6.022   1.542  0.00  0.00    +0.130 C 
ATOM     14  C   UNL     1      12.374   4.271   1.934  0.00  0.00    +0.026 A 
ATOM     15  C   UNL     1      11.152   3.918   2.364  0.00  0.00    +0.022 A 
ATOM     16  C   UNL     1      11.852   6.645   2.267  0.00  0.00    +0.259 A 
ATOM     18  C   UNL     1      10.477   6.223   2.709  0.00  0.00    +0.047 A 
ATOM     19  C   UNL     1      10.191   4.913   2.751  0.00  0.00    +0.015 A 
ENDROOT
BRANCH  18  21
ATOM     21  C   UNL     1       9.457   7.215   3.084  0.00  0.00    -0.013 A 
ATOM     23  C   UNL     1       9.055   7.337   4.415  0.00  0.00    +0.010 A 
ATOM     24  C   UNL     1       8.889   8.037   2.109  0.00  0.00    +0.010 A 
ATOM     25  C   UNL     1       8.088   8.278   4.770  0.00  0.00    +0.015 A 
ATOM     26  C   UNL     1       7.923   8.977   2.463  0.00  0.00    +0.015 A 
ATOM     27  C   UNL     1       7.521   9.097   3.794  0.00  0.00    +0.008 A 
BRANCH  27   2
ATOM      2  S   UNL     1       6.285  10.298   4.247  0.00  0.00    -0.129 S 
ATOM     28  C   UNL     1       5.136  10.192   2.845  0.00  0.00    +0.090 C 
ENDBRANCH  27   2
ENDBRANCH  18  21
BRANCH   6   1
ATOM      1  S   UNL     1      13.059   4.114  -2.471  0.00  0.00    +0.032 S 
ATOM      3  O   UNL     1      12.462   2.828  -2.756  0.00  0.00    -0.158 OA
ATOM      4  O   UNL     1      14.158   4.634  -3.257  0.00  0.00    -0.158 OA
BRANCH   1  17
ATOM     17  C   UNL     1      11.767   5.330  -2.466  0.00  0.00    +0.185 C 
BRANCH  17  20
ATOM     20  C   UNL     1      10.426   4.712  -2.106  0.00  0.00    +0.021 C 
ATOM     22  C   UNL     1       9.837   5.348  -0.859  0.00  0.00    +0.005 C 
ENDBRANCH  17  20
ENDBRANCH   1  17
ENDBRANCH   6   1
TORSDOF 5
ENDMDL
MODEL 5
REMARK VINA RESULT:      -6.5     27.363     29.939
REMARK  Name = 7143846
REMARK  7 active torsions:
REMARK  status: ('A' for Active; 'I' for Inactive)
REMARK    1  A    between atoms: S_1  and  N_6
REMARK    2  A    between atoms: S_1  and  C_17
REMARK    3  A    between atoms: S_2  and  C_27
REMARK    4  A    between atoms: S_2  and  C_28
REMARK    5  A    between atoms: C_17  and  C_20
REMARK    6  A    between atoms: C_18  and  C_21
REMARK    7  A    between atoms: C_20  and  C_22
REMARK                            x       y       z     vdW  Elec       q    Type
REMARK                         _______ _______ _______ _____ _____    ______ ____
ROOT
ATOM      5  O   UNL     1      -6.754 -10.449  14.098  0.00  0.00    -0.267 OA
ATOM      6  N   UNL     1      -2.581 -13.064  13.328  0.00  0.00    -0.180 NA
ATOM      7  N   UNL     1      -4.433 -10.656  14.193  0.00  0.00    -0.311 N 
ATOM      8  C   UNL     1      -2.987 -10.930  12.098  0.00  0.00    +0.025 C 
ATOM      9  C   UNL     1      -1.927 -10.877  14.313  0.00  0.00    +0.052 C 
ATOM     10  C   UNL     1      -1.907 -10.244  12.924  0.00  0.00    +0.017 C 
ATOM     11  C   UNL     1      -2.701 -12.437  11.981  0.00  0.00    +0.114 C 
ATOM     12  C   UNL     1      -1.584 -12.374  14.200  0.00  0.00    +0.118 C 
ATOM     13  C   UNL     1      -4.354 -10.640  12.726  0.00  0.00    +0.130 C 
ATOM     14  C   UNL     1      -3.278 -10.693  14.978  0.00  0.00    +0.026 A 
ATOM     15  C   UNL     1      -3.368 -10.589  16.313  0.00  0.00    +0.022 A 
ATOM     16  C   UNL     1      -5.716 -10.522  14.759  0.00  0.00    +0.259 A 
ATOM     18  C   UNL     1      -5.788 -10.444  16.260  0.00  0.00    +0.047 A 
ATOM     19  C   UNL     1      -4.644 -10.469  16.960  0.00  0.00    +0.015 A 
ENDROOT
BRANCH  18  21
ATOM     21  C   UNL     1      -7.081 -10.351  16.960  0.00  0.00    -0.013 A 
ATOM     23  C   UNL     1      -7.573 -11.446  17.669  0.00  0.00    +0.010 A 
ATOM     24  C   UNL     1      -7.816  -9.165  16.913  0.00  0.00    +0.010 A 
ATOM     25  C   UNL     1      -8.797 -11.358  18.332  0.00  0.00    +0.015 A 
ATOM     26  C   UNL     1      -9.040  -9.076  17.575  0.00  0.00    +0.015 A 
ATOM     27  C   UNL     1      -9.531 -10.173  18.284  0.00  0.00    +0.008 A 
BRANCH  27   2
ATOM      2  S   UNL     1     -11.096 -10.060  19.129  0.00  0.00    -0.129 S 
ATOM     28  C   UNL     1     -11.093 -11.581  20.119  0.00  0.00    +0.090 C 
ENDBRANCH  27   2
ENDBRANCH  18  21
BRANCH   6   1
ATOM      1  S   UNL     1      -2.519 -14.774  13.344  0.00  0.00    +0.032 S 
ATOM      3  O   UNL     1      -1.154 -15.189  13.587  0.00  0.00    -0.158 OA
ATOM      4  O   UNL     1      -3.278 -15.279  12.220  0.00  0.00    -0.158 OA
BRANCH   1  17
ATOM     17  C   UNL     1      -3.456 -15.080  14.819  0.00  0.00    +0.185 C 
BRANCH  17  20
ATOM     20  C   UNL     1      -4.681 -14.184  14.893  0.00  0.00    +0.021 C 
ATOM     22  C   UNL     1      -5.219 -14.092  16.311  0.00  0.00    +0.005 C 
ENDBRANCH  17  20
ENDBRANCH   1  17
ENDBRANCH   6   1
TORSDOF 5
ENDMDL
MODEL 6
REMARK VINA RESULT:      -6.5     27.419     29.963
REMARK  Name = 7143846
REMARK  7 active torsions:
REMARK  status: ('A' for Active; 'I' for Inactive)
REMARK    1  A    between atoms: S_1  and  N_6
REMARK    2  A    between atoms: S_1  and  C_17
REMARK    3  A    between atoms: S_2  and  C_27
REMARK    4  A    between atoms: S_2  and  C_28
REMARK    5  A    between atoms: C_17  and  C_20
REMARK    6  A    between atoms: C_18  and  C_21
REMARK    7  A    between atoms: C_20  and  C_22
REMARK                            x       y       z     vdW  Elec       q    Type
REMARK                         _______ _______ _______ _____ _____    ______ ____
ROOT
ATOM      5  O   UNL     1      -5.160 -12.688   9.982  0.00  0.00    -0.267 OA
ATOM      6  N   UNL     1      -3.808 -11.648  14.665  0.00  0.00    -0.180 NA
ATOM      7  N   UNL     1      -3.542 -12.081  11.547  0.00  0.00    -0.311 N 
ATOM      8  C   UNL     1      -2.843 -13.618  13.474  0.00  0.00    +0.025 C 
ATOM      9  C   UNL     1      -1.792 -11.411  13.230  0.00  0.00    +0.052 C 
ATOM     10  C   UNL     1      -1.501 -12.903  13.371  0.00  0.00    +0.017 C 
ATOM     11  C   UNL     1      -3.623 -13.126  14.705  0.00  0.00    +0.114 C 
ATOM     12  C   UNL     1      -2.523 -10.909  14.489  0.00  0.00    +0.118 C 
ATOM     13  C   UNL     1      -3.619 -13.412  12.168  0.00  0.00    +0.130 C 
ATOM     14  C   UNL     1      -2.621 -11.130  11.991  0.00  0.00    +0.026 A 
ATOM     15  C   UNL     1      -2.487  -9.965  11.337  0.00  0.00    +0.022 A 
ATOM     16  C   UNL     1      -4.362 -11.859  10.423  0.00  0.00    +0.259 A 
ATOM     18  C   UNL     1      -4.216 -10.531   9.732  0.00  0.00    +0.047 A 
ATOM     19  C   UNL     1      -3.303  -9.664  10.194  0.00  0.00    +0.015 A 
ENDROOT
BRANCH  18  21
ATOM     21  C   UNL     1      -5.056 -10.175   8.576  0.00  0.00    -0.013 A 
ATOM     23  C   UNL     1      -6.093  -9.254   8.724  0.00  0.00    +0.010 A 
ATOM     24  C   UNL     1      -4.816 -10.758   7.331  0.00  0.00    +0.010 A 
ATOM     25  C   UNL     1      -6.889  -8.916   7.629  0.00  0.00    +0.015 A 
ATOM     26  C   UNL     1      -5.611 -10.421   6.237  0.00  0.00    +0.015 A 
ATOM     27  C   UNL     1      -6.649  -9.500   6.386  0.00  0.00    +0.008 A 
BRANCH  27   2
ATOM      2  S   UNL     1      -7.666  -9.070   4.988  0.00  0.00    -0.129 S 
ATOM     28  C   UNL     1      -8.551  -7.611   5.608  0.00  0.00    +0.090 C 
ENDBRANCH  27   2
ENDBRANCH  18  21
BRANCH   6   1
ATOM      1  S   UNL     1      -4.876 -11.005  15.838  0.00  0.00    +0.032 S 
ATOM      3  O   UNL     1      -4.106 -10.266  16.814  0.00  0.00    -0.158 OA
ATOM      4  O   UNL     1      -5.812 -12.036  16.231  0.00  0.00    -0.158 OA
BRANCH   1  17
ATOM     17  C   UNL     1      -5.743  -9.836  14.824  0.00  0.00    +0.185 C 
BRANCH  17  20
ATOM     20  C   UNL     1      -6.012 -10.398  13.438  0.00  0.00    +0.021 C 
ATOM     22  C   UNL     1      -6.329  -9.294  12.443  0.00  0.00    +0.005 C 
ENDBRANCH  17  20
ENDBRANCH   1  17
ENDBRANCH   6   1
TORSDOF 5
ENDMDL
MODEL 7
REMARK VINA RESULT:      -6.4     26.733     28.916
REMARK  Name = 7143846
REMARK  7 active torsions:
REMARK  status: ('A' for Active; 'I' for Inactive)
REMARK    1  A    between atoms: S_1  and  N_6
REMARK    2  A    between atoms: S_1  and  C_17
REMARK    3  A    between atoms: S_2  and  C_27
REMARK    4  A    between atoms: S_2  and  C_28
REMARK    5  A    between atoms: C_17  and  C_20
REMARK    6  A    between atoms: C_18  and  C_21
REMARK    7  A    between atoms: C_20  and  C_22
REMARK                            x       y       z     vdW  Elec       q    Type
REMARK                         _______ _______ _______ _____ _____    ______ ____
ROOT
ATOM      5  O   UNL     1     -12.737   9.914  20.748  0.00  0.00    -0.267 OA
ATOM      6  N   UNL     1     -12.214  11.373  16.011  0.00  0.00    -0.180 NA
ATOM      7  N   UNL     1     -11.469  10.087  18.799  0.00  0.00    -0.311 N 
ATOM      8  C   UNL     1     -10.771  12.341  17.803  0.00  0.00    +0.025 C 
ATOM      9  C   UNL     1     -10.099  10.256  16.692  0.00  0.00    +0.052 C 
ATOM     10  C   UNL     1      -9.573  11.571  17.260  0.00  0.00    +0.017 C 
ATOM     11  C   UNL     1     -11.780  12.632  16.680  0.00  0.00    +0.114 C 
ATOM     12  C   UNL     1     -11.066  10.549  15.528  0.00  0.00    +0.118 C 
ATOM     13  C   UNL     1     -11.393  11.546  18.957  0.00  0.00    +0.130 C 
ATOM     14  C   UNL     1     -10.795   9.437  17.762  0.00  0.00    +0.026 A 
ATOM     15  C   UNL     1     -10.783   8.096  17.704  0.00  0.00    +0.022 A 
ATOM     16  C   UNL     1     -12.161   9.377  19.800  0.00  0.00    +0.259 A 
ATOM     18  C   UNL     1     -12.160   7.876  19.688  0.00  0.00    +0.047 A 
ATOM     19  C   UNL     1     -11.482   7.308  18.680  0.00  0.00    +0.015 A 
ENDROOT
BRANCH  18  21
ATOM     21  C   UNL     1     -12.891   7.038  20.653  0.00  0.00    -0.013 A 
ATOM     23  C   UNL     1     -14.267   7.200  20.818  0.00  0.00    +0.010 A 
ATOM     24  C   UNL     1     -12.208   6.080  21.404  0.00  0.00    +0.010 A 
ATOM     25  C   UNL     1     -14.959   6.406  21.732  0.00  0.00    +0.015 A 
ATOM     26  C   UNL     1     -12.900   5.286  22.317  0.00  0.00    +0.015 A 
ATOM     27  C   UNL     1     -14.276   5.449  22.483  0.00  0.00    +0.008 A 
BRANCH  27   2
ATOM      2  S   UNL     1     -15.160   4.435  23.652  0.00  0.00    -0.129 S 
ATOM     28  C   UNL     1     -16.739   4.174  22.795  0.00  0.00    +0.090 C 
ENDBRANCH  27   2
ENDBRANCH  18  21
BRANCH   6   1
ATOM      1  S   UNL     1     -13.522  11.529  14.918  0.00  0.00    +0.032 S 
ATOM      3  O   UNL     1     -13.357  10.565  13.853  0.00  0.00    -0.158 OA
ATOM      4  O   UNL     1     -13.736  12.934  14.645  0.00  0.00    -0.158 OA
BRANCH   1  17
ATOM     17  C   UNL     1     -14.838  10.969  15.967  0.00  0.00    +0.185 C 
BRANCH  17  20
ATOM     20  C   UNL     1     -14.333   9.993  17.017  0.00  0.00    +0.021 C 
ATOM     22  C   UNL     1     -14.463   8.554  16.546  0.00  0.00    +0.005 C 
ENDBRANCH  17  20
ENDBRANCH   1  17
ENDBRANCH   6   1
TORSDOF 5
ENDMDL
MODEL 8
REMARK VINA RESULT:      -6.4     31.373     33.093
REMARK  Name = 7143846
REMARK  7 active torsions:
REMARK  status: ('A' for Active; 'I' for Inactive)
REMARK    1  A    between atoms: S_1  and  N_6
REMARK    2  A    between atoms: S_1  and  C_17
REMARK    3  A    between atoms: S_2  and  C_27
REMARK    4  A    between atoms: S_2  and  C_28
REMARK    5  A    between atoms: C_17  and  C_20
REMARK    6  A    between atoms: C_18  and  C_21
REMARK    7  A    between atoms: C_20  and  C_22
REMARK                            x       y       z     vdW  Elec       q    Type
REMARK                         _______ _______ _______ _____ _____    ______ ____
ROOT
ATOM      5  O   UNL     1     -11.406  -7.583   9.720  0.00  0.00    -0.267 OA
ATOM      6  N   UNL     1     -14.947  -4.298  10.947  0.00  0.00    -0.180 NA
ATOM      7  N   UNL     1     -12.068  -5.572  10.698  0.00  0.00    -0.311 N 
ATOM      8  C   UNL     1     -13.639  -5.473  12.718  0.00  0.00    +0.025 C 
ATOM      9  C   UNL     1     -12.773  -3.392  11.743  0.00  0.00    +0.052 C 
ATOM     10  C   UNL     1     -12.909  -4.176  13.045  0.00  0.00    +0.017 C 
ATOM     11  C   UNL     1     -15.036  -5.177  12.147  0.00  0.00    +0.114 C 
ATOM     12  C   UNL     1     -14.174  -3.046  11.202  0.00  0.00    +0.118 C 
ATOM     13  C   UNL     1     -12.778  -6.301  11.759  0.00  0.00    +0.130 C 
ATOM     14  C   UNL     1     -11.988  -4.178  10.710  0.00  0.00    +0.026 A 
ATOM     15  C   UNL     1     -11.238  -3.538   9.798  0.00  0.00    +0.022 A 
ATOM     16  C   UNL     1     -11.388  -6.351   9.741  0.00  0.00    +0.259 A 
ATOM     18  C   UNL     1     -10.585  -5.605   8.709  0.00  0.00    +0.047 A 
ATOM     19  C   UNL     1     -10.533  -4.267   8.781  0.00  0.00    +0.015 A 
ENDROOT
BRANCH  18  21
ATOM     21  C   UNL     1      -9.873  -6.317   7.635  0.00  0.00    -0.013 A 
ATOM     23  C   UNL     1      -8.519  -6.621   7.775  0.00  0.00    +0.010 A 
ATOM     24  C   UNL     1     -10.552  -6.688   6.473  0.00  0.00    +0.010 A 
ATOM     25  C   UNL     1      -7.845  -7.295   6.757  0.00  0.00    +0.015 A 
ATOM     26  C   UNL     1      -9.879  -7.362   5.456  0.00  0.00    +0.015 A 
ATOM     27  C   UNL     1      -8.524  -7.665   5.597  0.00  0.00    +0.008 A 
BRANCH  27   2
ATOM      2  S   UNL     1      -7.663  -8.524   4.295  0.00  0.00    -0.129 S 
ATOM     28  C   UNL     1      -8.266  -7.658   2.818  0.00  0.00    +0.090 C 
ENDBRANCH  27   2
ENDBRANCH  18  21
BRANCH   6   1
ATOM      1  S   UNL     1     -16.402  -4.100  10.067  0.00  0.00    +0.032 S 
ATOM      3  O   UNL     1     -16.873  -2.745  10.243  0.00  0.00    -0.158 OA
ATOM      4  O   UNL     1     -17.257  -5.241  10.317  0.00  0.00    -0.158 OA
BRANCH   1  17
ATOM     17  C   UNL     1     -15.761  -4.248   8.419  0.00  0.00    +0.185 C 
BRANCH  17  20
ATOM     20  C   UNL     1     -14.531  -5.141   8.382  0.00  0.00    +0.021 C 
ATOM     22  C   UNL     1     -14.900  -6.582   8.075  0.00  0.00    +0.005 C 
ENDBRANCH  17  20
ENDBRANCH   1  17
ENDBRANCH   6   1
TORSDOF 5
ENDMDL
MODEL 9
REMARK VINA RESULT:      -6.3     27.413     30.011
REMARK  Name = 7143846
REMARK  7 active torsions:
REMARK  status: ('A' for Active; 'I' for Inactive)
REMARK    1  A    between atoms: S_1  and  N_6
REMARK    2  A    between atoms: S_1  and  C_17
REMARK    3  A    between atoms: S_2  and  C_27
REMARK    4  A    between atoms: S_2  and  C_28
REMARK    5  A    between atoms: C_17  and  C_20
REMARK    6  A    between atoms: C_18  and  C_21
REMARK    7  A    between atoms: C_20  and  C_22
REMARK                            x       y       z     vdW  Elec       q    Type
REMARK                         _______ _______ _______ _____ _____    ______ ____
ROOT
ATOM      5  O   UNL     1      -5.349 -12.658  10.185  0.00  0.00    -0.267 OA
ATOM      6  N   UNL     1      -3.773 -11.713  14.819  0.00  0.00    -0.180 NA
ATOM      7  N   UNL     1      -3.642 -12.160  11.694  0.00  0.00    -0.311 N 
ATOM      8  C   UNL     1      -2.979 -13.740  13.597  0.00  0.00    +0.025 C 
ATOM      9  C   UNL     1      -1.796 -11.607  13.316  0.00  0.00    +0.052 C 
ATOM     10  C   UNL     1      -1.598 -13.114  13.448  0.00  0.00    +0.017 C 
ATOM     11  C   UNL     1      -3.684 -13.201  14.854  0.00  0.00    +0.114 C 
ATOM     12  C   UNL     1      -2.449 -11.059  14.599  0.00  0.00    +0.118 C 
ATOM     13  C   UNL     1      -3.784 -13.483  12.319  0.00  0.00    +0.130 C 
ATOM     14  C   UNL     1      -2.647 -11.271  12.106  0.00  0.00    +0.026 A 
ATOM     15  C   UNL     1      -2.460 -10.116  11.446  0.00  0.00    +0.022 A 
ATOM     16  C   UNL     1      -4.484 -11.883  10.599  0.00  0.00    +0.259 A 
ATOM     18  C   UNL     1      -4.275 -10.566   9.902  0.00  0.00    +0.047 A 
ATOM     19  C   UNL     1      -3.293  -9.761  10.331  0.00  0.00    +0.015 A 
ENDROOT
BRANCH  18  21
ATOM     21  C   UNL     1      -5.130 -10.155   8.775  0.00  0.00    -0.013 A 
ATOM     23  C   UNL     1      -6.183  -9.264   8.985  0.00  0.00    +0.010 A 
ATOM     24  C   UNL     1      -4.887 -10.655   7.495  0.00  0.00    +0.010 A 
ATOM     25  C   UNL     1      -6.992  -8.874   7.918  0.00  0.00    +0.015 A 
ATOM     26  C   UNL     1      -5.695 -10.265   6.428  0.00  0.00    +0.015 A 
ATOM     27  C   UNL     1      -6.749  -9.375   6.639  0.00  0.00    +0.008 A 
BRANCH  27   2
ATOM      2  S   UNL     1      -7.783  -8.878   5.276  0.00  0.00    -0.129 S 
ATOM     28  C   UNL     1      -8.568  -7.380   5.934  0.00  0.00    +0.090 C 
ENDBRANCH  27   2
ENDBRANCH  18  21
BRANCH   6   1
ATOM      1  S   UNL     1      -4.756 -11.004  16.027  0.00  0.00    +0.032 S 
ATOM      3  O   UNL     1      -6.071 -10.762  15.476  0.00  0.00    -0.158 OA
ATOM      4  O   UNL     1      -4.003  -9.957  16.685  0.00  0.00    -0.158 OA
BRANCH   1  17
ATOM     17  C   UNL     1      -4.873 -12.378  17.143  0.00  0.00    +0.185 C 
BRANCH  17  20
ATOM     20  C   UNL     1      -4.967 -11.912  18.587  0.00  0.00    +0.021 C 
ATOM     22  C   UNL     1      -3.678 -12.185  19.344  0.00  0.00    +0.005 C 
ENDBRANCH  17  20
ENDBRANCH   1  17
ENDBRANCH   6   1
TORSDOF 5
ENDMDL
MODEL 10
REMARK VINA RESULT:      -6.2     22.284     24.579
REMARK  Name = 7143846
REMARK  7 active torsions:
REMARK  status: ('A' for Active; 'I' for Inactive)
REMARK    1  A    between atoms: S_1  and  N_6
REMARK    2  A    between atoms: S_1  and  C_17
REMARK    3  A    between atoms: S_2  and  C_27
REMARK    4  A    between atoms: S_2  and  C_28
REMARK    5  A    between atoms: C_17  and  C_20
REMARK    6  A    between atoms: C_18  and  C_21
REMARK    7  A    between atoms: C_20  and  C_22
REMARK                            x       y       z     vdW  Elec       q    Type
REMARK                         _______ _______ _______ _____ _____    ______ ____
ROOT
ATOM      5  O   UNL     1       9.267  -9.580  33.186  0.00  0.00    -0.267 OA
ATOM      6  N   UNL     1       8.218  -5.856  36.329  0.00  0.00    -0.180 NA
ATOM      7  N   UNL     1       8.633  -7.372  33.589  0.00  0.00    -0.311 N 
ATOM      8  C   UNL     1      10.163  -5.693  34.772  0.00  0.00    +0.025 C 
ATOM      9  C   UNL     1       7.934  -4.990  34.016  0.00  0.00    +0.052 C 
ATOM     10  C   UNL     1       9.420  -4.649  33.947  0.00  0.00    +0.017 C 
ATOM     11  C   UNL     1       9.693  -5.659  36.236  0.00  0.00    +0.114 C 
ATOM     12  C   UNL     1       7.452  -4.900  35.476  0.00  0.00    +0.118 C 
ATOM     13  C   UNL     1       9.967  -7.069  34.126  0.00  0.00    +0.130 C 
ATOM     14  C   UNL     1       7.665  -6.375  33.456  0.00  0.00    +0.026 A 
ATOM     15  C   UNL     1       6.495  -6.647  32.857  0.00  0.00    +0.022 A 
ATOM     16  C   UNL     1       8.423  -8.684  33.119  0.00  0.00    +0.259 A 
ATOM     18  C   UNL     1       7.089  -8.969  32.484  0.00  0.00    +0.047 A 
ATOM     19  C   UNL     1       6.205  -7.967  32.370  0.00  0.00    +0.015 A 
ENDROOT
BRANCH  18  21
ATOM     21  C   UNL     1       6.746 -10.317  32.001  0.00  0.00    -0.013 A 
ATOM     23  C   UNL     1       6.859 -10.624  30.645  0.00  0.00    +0.010 A 
ATOM     24  C   UNL     1       6.306 -11.290  32.900  0.00  0.00    +0.010 A 
ATOM     25  C   UNL     1       6.534 -11.901  30.188  0.00  0.00    +0.015 A 
ATOM     26  C   UNL     1       5.981 -12.567  32.443  0.00  0.00    +0.015 A 
ATOM     27  C   UNL     1       6.094 -12.872  31.086  0.00  0.00    +0.008 A 
BRANCH  27   2
ATOM      2  S   UNL     1       5.677 -14.503  30.502  0.00  0.00    -0.129 S 
ATOM     28  C   UNL     1       4.345 -14.143  29.322  0.00  0.00    +0.090 C 
ENDBRANCH  27   2
ENDBRANCH  18  21
BRANCH   6   1
ATOM      1  S   UNL     1       7.603  -6.095  37.908  0.00  0.00    +0.032 S 
ATOM      3  O   UNL     1       7.069  -4.842  38.394  0.00  0.00    -0.158 OA
ATOM      4  O   UNL     1       8.565  -6.859  38.673  0.00  0.00    -0.158 OA
BRANCH   1  17
ATOM     17  C   UNL     1       6.238  -7.161  37.524  0.00  0.00    +0.185 C 
BRANCH  17  20
ATOM     20  C   UNL     1       6.642  -8.244  36.537  0.00  0.00    +0.021 C 
ATOM     22  C   UNL     1       5.431  -8.839  35.838  0.00  0.00    +0.005 C 
ENDBRANCH  17  20
ENDBRANCH   1  17
ENDBRANCH   6   1
TORSDOF 5
ENDMDL
