MODEL 1
REMARK VINA RESULT:      -7.6      0.000      0.000
REMARK  Name = 26761982
REMARK  3 active torsions:
REMARK  status: ('A' for Active; 'I' for Inactive)
REMARK    1  A    between atoms: N_10  and  C_21
REMARK    2  A    between atoms: C_12  and  C_17
REMARK    3  A    between atoms: C_20  and  C_22
REMARK                            x       y       z     vdW  Elec       q    Type
REMARK                         _______ _______ _______ _____ _____    ______ ____
ROOT
ATOM      5  O   UNL     1      -7.465  -9.811   8.113  0.00  0.00    -0.252 OA
ATOM      6  N   UNL     1      -8.208  -7.615   7.961  0.00  0.00    -0.267 N 
ATOM      7  N   UNL     1      -9.488  -4.197   8.791  0.00  0.00    -0.347 N 
ATOM      8  N   UNL     1     -11.504  -5.141   8.618  0.00  0.00    -0.240 NA
ATOM     10  N   UNL     1      -6.062  -8.100   8.821  0.00  0.00    -0.269 N 
ATOM     12  C   UNL     1      -9.467  -8.039   7.252  0.00  0.00    +0.172 C 
ATOM     13  C   UNL     1     -10.742  -7.456   7.931  0.00  0.00    +0.089 C 
ATOM     14  C   UNL     1      -7.980  -6.156   8.175  0.00  0.00    +0.165 C 
ATOM     15  C   UNL     1     -10.526  -6.048   8.321  0.00  0.00    +0.066 A 
ATOM     16  C   UNL     1      -9.275  -5.492   8.423  0.00  0.00    +0.056 A 
ATOM     18  C   UNL     1      -7.252  -8.611   8.299  0.00  0.00    +0.307 C 
ATOM     19  C   UNL     1     -10.846  -4.034   8.896  0.00  0.00    +0.197 A 
ATOM     33  H   UNL     1      -8.784  -3.489   8.956  0.00  0.00    +0.167 HD
ATOM     34  H   UNL     1      -5.783  -7.164   8.539  0.00  0.00    +0.156 HD
ENDROOT
BRANCH  10  21
ATOM      2 CL   UNL     1      -2.429 -10.692  12.722  0.00  0.00    -0.084 Cl
ATOM     21  C   UNL     1      -5.194  -8.720   9.753  0.00  0.00    +0.035 A 
ATOM     23  C   UNL     1      -3.850  -8.914   9.432  0.00  0.00    +0.025 A 
ATOM     24  C   UNL     1      -5.682  -9.135  10.992  0.00  0.00    +0.025 A 
ATOM     27  C   UNL     1      -2.995  -9.524  10.351  0.00  0.00    +0.022 A 
ATOM     28  C   UNL     1      -4.827  -9.746  11.910  0.00  0.00    +0.022 A 
ATOM     31  C   UNL     1      -3.483  -9.940  11.589  0.00  0.00    +0.041 A 
ENDBRANCH  10  21
BRANCH  12  17
ATOM      4  O   UNL     1      -8.089  -7.962   5.220  0.00  0.00    -0.336 OA
ATOM      9  N   UNL     1     -10.250  -7.488   4.872  0.00  0.00    -0.190 NA
ATOM     11  N   UNL     1      -8.215  -7.706   3.849  0.00  0.00    -0.056 NA
ATOM     17  C   UNL     1      -9.332  -7.812   5.748  0.00  0.00    +0.249 A 
ATOM     20  C   UNL     1      -9.518  -7.435   3.722  0.00  0.00    +0.202 A 
BRANCH  20  22
ATOM      1 CL   UNL     1     -10.885  -3.818   0.323  0.00  0.00    -0.081 Cl
ATOM      3  F   UNL     1     -11.851  -6.187  -1.174  0.00  0.00    -0.204 F 
ATOM     22  C   UNL     1     -10.118  -7.109   2.461  0.00  0.00    +0.024 A 
ATOM     25  C   UNL     1     -10.201  -5.779   2.051  0.00  0.00    +0.034 A 
ATOM     26  C   UNL     1     -10.619  -8.123   1.644  0.00  0.00    +0.014 A 
ATOM     29  C   UNL     1     -10.785  -5.461   0.824  0.00  0.00    +0.077 A 
ATOM     30  C   UNL     1     -11.204  -7.806   0.418  0.00  0.00    +0.040 A 
ATOM     32  C   UNL     1     -11.286  -6.475   0.008  0.00  0.00    +0.142 A 
ENDBRANCH  20  22
ENDBRANCH  12  17
TORSDOF 3
ENDMDL
MODEL 2
REMARK VINA RESULT:      -7.4      9.384     13.560
REMARK  Name = 26761982
REMARK  3 active torsions:
REMARK  status: ('A' for Active; 'I' for Inactive)
REMARK    1  A    between atoms: N_10  and  C_21
REMARK    2  A    between atoms: C_12  and  C_17
REMARK    3  A    between atoms: C_20  and  C_22
REMARK                            x       y       z     vdW  Elec       q    Type
REMARK                         _______ _______ _______ _____ _____    ______ ____
ROOT
ATOM      5  O   UNL     1     -11.474  -5.917  16.077  0.00  0.00    -0.252 OA
ATOM      6  N   UNL     1     -11.793  -8.213  15.925  0.00  0.00    -0.267 N 
ATOM      7  N   UNL     1     -13.347 -11.614  15.758  0.00  0.00    -0.347 N 
ATOM      8  N   UNL     1     -13.246 -11.537  17.988  0.00  0.00    -0.240 NA
ATOM     10  N   UNL     1     -12.301  -6.807  14.097  0.00  0.00    -0.269 N 
ATOM     12  C   UNL     1     -11.171  -8.438  17.278  0.00  0.00    +0.172 C 
ATOM     13  C   UNL     1     -12.084  -9.298  18.202  0.00  0.00    +0.089 C 
ATOM     14  C   UNL     1     -12.230  -9.408  15.146  0.00  0.00    +0.165 C 
ATOM     15  C   UNL     1     -12.685 -10.416  17.446  0.00  0.00    +0.066 A 
ATOM     16  C   UNL     1     -12.737 -10.437  16.074  0.00  0.00    +0.056 A 
ATOM     18  C   UNL     1     -11.840  -6.889  15.412  0.00  0.00    +0.307 C 
ATOM     19  C   UNL     1     -13.635 -12.241  16.944  0.00  0.00    +0.197 A 
ATOM     33  H   UNL     1     -13.550 -11.963  14.830  0.00  0.00    +0.167 HD
ATOM     34  H   UNL     1     -12.156  -7.609  13.492  0.00  0.00    +0.156 HD
ENDROOT
BRANCH  10  21
ATOM      2 CL   UNL     1     -15.243  -2.317  11.582  0.00  0.00    -0.084 Cl
ATOM     21  C   UNL     1     -13.004  -5.733  13.497  0.00  0.00    +0.035 A 
ATOM     23  C   UNL     1     -12.302  -4.698  12.877  0.00  0.00    +0.025 A 
ATOM     24  C   UNL     1     -14.399  -5.711  13.523  0.00  0.00    +0.025 A 
ATOM     27  C   UNL     1     -12.994  -3.642  12.285  0.00  0.00    +0.022 A 
ATOM     28  C   UNL     1     -15.091  -4.654  12.931  0.00  0.00    +0.022 A 
ATOM     31  C   UNL     1     -14.389  -3.619  12.312  0.00  0.00    +0.041 A 
ENDBRANCH  10  21
BRANCH  12  17
ATOM      4  O   UNL     1      -9.122  -8.638  15.939  0.00  0.00    -0.336 OA
ATOM      9  N   UNL     1      -8.960  -9.529  17.987  0.00  0.00    -0.190 NA
ATOM     11  N   UNL     1      -7.823  -9.151  16.038  0.00  0.00    -0.056 NA
ATOM     17  C   UNL     1      -9.724  -8.902  17.128  0.00  0.00    +0.249 A 
ATOM     20  C   UNL     1      -7.804  -9.660  17.274  0.00  0.00    +0.202 A 
BRANCH  20  22
ATOM      1 CL   UNL     1      -2.869 -11.025  16.735  0.00  0.00    -0.081 Cl
ATOM      3  F   UNL     1      -3.326 -12.160  19.434  0.00  0.00    -0.204 F 
ATOM     22  C   UNL     1      -6.648 -10.303  17.826  0.00  0.00    +0.024 A 
ATOM     25  C   UNL     1      -5.458 -10.347  17.099  0.00  0.00    +0.034 A 
ATOM     26  C   UNL     1      -6.712 -10.885  19.093  0.00  0.00    +0.014 A 
ATOM     29  C   UNL     1      -4.334 -10.973  17.637  0.00  0.00    +0.077 A 
ATOM     30  C   UNL     1      -5.588 -11.511  19.631  0.00  0.00    +0.040 A 
ATOM     32  C   UNL     1      -4.399 -11.555  18.903  0.00  0.00    +0.142 A 
ENDBRANCH  20  22
ENDBRANCH  12  17
TORSDOF 3
ENDMDL
MODEL 3
REMARK VINA RESULT:      -7.3      4.202      9.044
REMARK  Name = 26761982
REMARK  3 active torsions:
REMARK  status: ('A' for Active; 'I' for Inactive)
REMARK    1  A    between atoms: N_10  and  C_21
REMARK    2  A    between atoms: C_12  and  C_17
REMARK    3  A    between atoms: C_20  and  C_22
REMARK                            x       y       z     vdW  Elec       q    Type
REMARK                         _______ _______ _______ _____ _____    ______ ____
ROOT
ATOM      5  O   UNL     1     -10.060  -8.462   8.660  0.00  0.00    -0.252 OA
ATOM      6  N   UNL     1      -8.881  -8.212   6.674  0.00  0.00    -0.267 N 
ATOM      7  N   UNL     1      -7.970  -7.562   3.103  0.00  0.00    -0.347 N 
ATOM      8  N   UNL     1      -8.486  -9.714   2.801  0.00  0.00    -0.240 NA
ATOM     10  N   UNL     1      -9.667  -6.320   7.851  0.00  0.00    -0.269 N 
ATOM     12  C   UNL     1      -8.605  -9.690   6.596  0.00  0.00    +0.172 C 
ATOM     13  C   UNL     1      -9.006 -10.284   5.213  0.00  0.00    +0.089 C 
ATOM     14  C   UNL     1      -8.301  -7.332   5.618  0.00  0.00    +0.165 C 
ATOM     15  C   UNL     1      -8.603  -9.376   4.120  0.00  0.00    +0.066 A 
ATOM     16  C   UNL     1      -8.294  -8.055   4.332  0.00  0.00    +0.056 A 
ATOM     18  C   UNL     1      -9.590  -7.714   7.801  0.00  0.00    +0.307 C 
ATOM     19  C   UNL     1      -8.101  -8.599   2.214  0.00  0.00    +0.197 A 
ATOM     33  H   UNL     1      -7.686  -6.616   2.884  0.00  0.00    +0.167 HD
ATOM     34  H   UNL     1      -8.925  -5.788   7.407  0.00  0.00    +0.156 HD
ENDROOT
BRANCH  10  21
ATOM      2 CL   UNL     1     -13.994  -3.039  10.227  0.00  0.00    -0.084 Cl
ATOM     21  C   UNL     1     -10.702  -5.535   8.418  0.00  0.00    +0.035 A 
ATOM     23  C   UNL     1     -12.028  -5.960   8.328  0.00  0.00    +0.025 A 
ATOM     24  C   UNL     1     -10.394  -4.340   9.067  0.00  0.00    +0.025 A 
ATOM     27  C   UNL     1     -13.046  -5.188   8.888  0.00  0.00    +0.022 A 
ATOM     28  C   UNL     1     -11.413  -3.567   9.626  0.00  0.00    +0.022 A 
ATOM     31  C   UNL     1     -12.739  -3.992   9.537  0.00  0.00    +0.041 A 
ENDBRANCH  10  21
BRANCH  12  17
ATOM      4  O   UNL     1      -6.317 -10.465   6.154  0.00  0.00    -0.336 OA
ATOM      9  N   UNL     1      -6.677  -9.866   8.281  0.00  0.00    -0.190 NA
ATOM     11  N   UNL     1      -5.105 -10.667   6.825  0.00  0.00    -0.056 NA
ATOM     17  C   UNL     1      -7.189  -9.993   7.082  0.00  0.00    +0.249 A 
ATOM     20  C   UNL     1      -5.398 -10.291   8.074  0.00  0.00    +0.202 A 
BRANCH  20  22
ATOM      1 CL   UNL     1      -2.984 -13.019  11.712  0.00  0.00    -0.081 Cl
ATOM      3  F   UNL     1      -1.659 -10.412  12.194  0.00  0.00    -0.204 F 
ATOM     22  C   UNL     1      -4.436 -10.327   9.136  0.00  0.00    +0.024 A 
ATOM     25  C   UNL     1      -4.203 -11.515   9.828  0.00  0.00    +0.034 A 
ATOM     26  C   UNL     1      -3.730  -9.172   9.478  0.00  0.00    +0.014 A 
ATOM     29  C   UNL     1      -3.266 -11.550  10.861  0.00  0.00    +0.077 A 
ATOM     30  C   UNL     1      -2.794  -9.206  10.512  0.00  0.00    +0.040 A 
ATOM     32  C   UNL     1      -2.562 -10.395  11.203  0.00  0.00    +0.142 A 
ENDBRANCH  20  22
ENDBRANCH  12  17
TORSDOF 3
ENDMDL
MODEL 4
REMARK VINA RESULT:      -7.3      4.677      9.661
REMARK  Name = 26761982
REMARK  3 active torsions:
REMARK  status: ('A' for Active; 'I' for Inactive)
REMARK    1  A    between atoms: N_10  and  C_21
REMARK    2  A    between atoms: C_12  and  C_17
REMARK    3  A    between atoms: C_20  and  C_22
REMARK                            x       y       z     vdW  Elec       q    Type
REMARK                         _______ _______ _______ _____ _____    ______ ____
ROOT
ATOM      5  O   UNL     1     -11.447  -7.707  10.435  0.00  0.00    -0.252 OA
ATOM      6  N   UNL     1      -9.696  -7.584   8.913  0.00  0.00    -0.267 N 
ATOM      7  N   UNL     1      -7.693  -7.206   5.774  0.00  0.00    -0.347 N 
ATOM      8  N   UNL     1      -8.072  -9.392   5.520  0.00  0.00    -0.240 NA
ATOM     10  N   UNL     1     -10.828  -5.628   9.601  0.00  0.00    -0.269 N 
ATOM     12  C   UNL     1      -9.400  -9.052   9.061  0.00  0.00    +0.172 C 
ATOM     13  C   UNL     1      -9.334  -9.775   7.683  0.00  0.00    +0.089 C 
ATOM     14  C   UNL     1      -8.813  -6.776   8.021  0.00  0.00    +0.165 C 
ATOM     15  C   UNL     1      -8.608  -8.948   6.696  0.00  0.00    +0.066 A 
ATOM     16  C   UNL     1      -8.390  -7.604   6.875  0.00  0.00    +0.056 A 
ATOM     18  C   UNL     1     -10.730  -7.017   9.706  0.00  0.00    +0.307 C 
ATOM     19  C   UNL     1      -7.527  -8.318   4.987  0.00  0.00    +0.197 A 
ATOM     33  H   UNL     1      -7.360  -6.272   5.571  0.00  0.00    +0.167 HD
ATOM     34  H   UNL     1      -9.986  -5.109   9.370  0.00  0.00    +0.156 HD
ENDROOT
BRANCH  10  21
ATOM      2 CL   UNL     1     -15.705  -2.306  10.163  0.00  0.00    -0.084 Cl
ATOM     21  C   UNL     1     -11.994  -4.835   9.736  0.00  0.00    +0.035 A 
ATOM     23  C   UNL     1     -12.192  -4.075  10.889  0.00  0.00    +0.025 A 
ATOM     24  C   UNL     1     -12.944  -4.812   8.715  0.00  0.00    +0.025 A 
ATOM     27  C   UNL     1     -13.339  -3.293  11.021  0.00  0.00    +0.022 A 
ATOM     28  C   UNL     1     -14.092  -4.030   8.847  0.00  0.00    +0.022 A 
ATOM     31  C   UNL     1     -14.290  -3.270  10.001  0.00  0.00    +0.041 A 
ENDBRANCH  10  21
BRANCH  12  17
ATOM      4  O   UNL     1      -8.499  -9.402  11.319  0.00  0.00    -0.336 OA
ATOM      9  N   UNL     1      -6.935  -9.335   9.718  0.00  0.00    -0.190 NA
ATOM     11  N   UNL     1      -7.271  -9.581  11.968  0.00  0.00    -0.056 NA
ATOM     17  C   UNL     1      -8.212  -9.264   9.998  0.00  0.00    +0.249 A 
ATOM     20  C   UNL     1      -6.398  -9.530  10.957  0.00  0.00    +0.202 A 
BRANCH  20  22
ATOM      1 CL   UNL     1      -2.521 -11.240  13.881  0.00  0.00    -0.081 Cl
ATOM      3  F   UNL     1      -0.908 -10.066  11.690  0.00  0.00    -0.204 F 
ATOM     22  C   UNL     1      -4.984  -9.670  11.150  0.00  0.00    +0.024 A 
ATOM     25  C   UNL     1      -4.495 -10.312  12.287  0.00  0.00    +0.034 A 
ATOM     26  C   UNL     1      -4.097  -9.166  10.198  0.00  0.00    +0.014 A 
ATOM     29  C   UNL     1      -3.119 -10.448  12.475  0.00  0.00    +0.077 A 
ATOM     30  C   UNL     1      -2.721  -9.301  10.386  0.00  0.00    +0.040 A 
ATOM     32  C   UNL     1      -2.233  -9.943  11.524  0.00  0.00    +0.142 A 
ENDBRANCH  20  22
ENDBRANCH  12  17
TORSDOF 3
ENDMDL
MODEL 5
REMARK VINA RESULT:      -7.1      5.369      6.993
REMARK  Name = 26761982
REMARK  3 active torsions:
REMARK  status: ('A' for Active; 'I' for Inactive)
REMARK    1  A    between atoms: N_10  and  C_21
REMARK    2  A    between atoms: C_12  and  C_17
REMARK    3  A    between atoms: C_20  and  C_22
REMARK                            x       y       z     vdW  Elec       q    Type
REMARK                         _______ _______ _______ _____ _____    ______ ____
ROOT
ATOM      5  O   UNL     1      -5.252 -12.198  10.489  0.00  0.00    -0.252 OA
ATOM      6  N   UNL     1      -5.841 -10.279   9.320  0.00  0.00    -0.267 N 
ATOM      7  N   UNL     1      -7.264  -6.947   8.380  0.00  0.00    -0.347 N 
ATOM      8  N   UNL     1      -9.094  -8.114   7.854  0.00  0.00    -0.240 NA
ATOM     10  N   UNL     1      -4.173 -10.202  10.991  0.00  0.00    -0.269 N 
ATOM     12  C   UNL     1      -6.758 -11.055   8.412  0.00  0.00    +0.172 C 
ATOM     13  C   UNL     1      -8.181 -10.425   8.346  0.00  0.00    +0.089 C 
ATOM     14  C   UNL     1      -5.677  -8.817   9.069  0.00  0.00    +0.165 C 
ATOM     15  C   UNL     1      -8.095  -8.952   8.261  0.00  0.00    +0.066 A 
ATOM     16  C   UNL     1      -6.958  -8.258   8.594  0.00  0.00    +0.056 A 
ATOM     18  C   UNL     1      -5.098 -10.989  10.301  0.00  0.00    +0.307 C 
ATOM     19  C   UNL     1      -8.562  -6.912   7.936  0.00  0.00    +0.197 A 
ATOM     33  H   UNL     1      -6.656  -6.151   8.520  0.00  0.00    +0.167 HD
ATOM     34  H   UNL     1      -3.791  -9.391  10.514  0.00  0.00    +0.156 HD
ENDROOT
BRANCH  10  21
ATOM      2 CL   UNL     1      -2.289 -10.917  16.565  0.00  0.00    -0.084 Cl
ATOM     21  C   UNL     1      -3.723 -10.372  12.323  0.00  0.00    +0.035 A 
ATOM     23  C   UNL     1      -4.647 -10.476  13.364  0.00  0.00    +0.025 A 
ATOM     24  C   UNL     1      -2.356 -10.437  12.595  0.00  0.00    +0.025 A 
ATOM     27  C   UNL     1      -4.203 -10.645  14.676  0.00  0.00    +0.022 A 
ATOM     28  C   UNL     1      -1.913 -10.604  13.907  0.00  0.00    +0.022 A 
ATOM     31  C   UNL     1      -2.837 -10.709  14.948  0.00  0.00    +0.041 A 
ENDBRANCH  10  21
BRANCH  12  17
ATOM      4  O   UNL     1      -6.684 -10.836   5.968  0.00  0.00    -0.336 OA
ATOM      9  N   UNL     1      -4.969 -11.991   6.828  0.00  0.00    -0.190 NA
ATOM     11  N   UNL     1      -5.885 -11.214   4.881  0.00  0.00    -0.056 NA
ATOM     17  C   UNL     1      -6.074 -11.333   7.075  0.00  0.00    +0.249 A 
ATOM     20  C   UNL     1      -4.894 -11.890   5.470  0.00  0.00    +0.202 A 
BRANCH  20  22
ATOM      1 CL   UNL     1      -0.393 -14.390   5.522  0.00  0.00    -0.081 Cl
ATOM      3  F   UNL     1      -0.714 -14.165   2.584  0.00  0.00    -0.204 F 
ATOM     22  C   UNL     1      -3.815 -12.477   4.731  0.00  0.00    +0.024 A 
ATOM     25  C   UNL     1      -2.752 -13.079   5.404  0.00  0.00    +0.034 A 
ATOM     26  C   UNL     1      -3.828 -12.449   3.335  0.00  0.00    +0.014 A 
ATOM     29  C   UNL     1      -1.702 -13.650   4.685  0.00  0.00    +0.077 A 
ATOM     30  C   UNL     1      -2.779 -13.019   2.615  0.00  0.00    +0.040 A 
ATOM     32  C   UNL     1      -1.716 -13.620   3.290  0.00  0.00    +0.142 A 
ENDBRANCH  20  22
ENDBRANCH  12  17
TORSDOF 3
ENDMDL
MODEL 6
REMARK VINA RESULT:      -7.1     21.805     23.256
REMARK  Name = 26761982
REMARK  3 active torsions:
REMARK  status: ('A' for Active; 'I' for Inactive)
REMARK    1  A    between atoms: N_10  and  C_21
REMARK    2  A    between atoms: C_12  and  C_17
REMARK    3  A    between atoms: C_20  and  C_22
REMARK                            x       y       z     vdW  Elec       q    Type
REMARK                         _______ _______ _______ _____ _____    ______ ____
ROOT
ATOM      5  O   UNL     1      10.247   6.361  -1.900  0.00  0.00    -0.252 OA
ATOM      6  N   UNL     1       9.429   4.950  -3.554  0.00  0.00    -0.267 N 
ATOM      7  N   UNL     1       9.170   2.550  -6.415  0.00  0.00    -0.347 N 
ATOM      8  N   UNL     1       9.235   4.387  -7.684  0.00  0.00    -0.240 NA
ATOM     10  N   UNL     1      10.448   4.064  -1.615  0.00  0.00    -0.269 N 
ATOM     12  C   UNL     1       8.848   6.106  -4.321  0.00  0.00    +0.172 C 
ATOM     13  C   UNL     1       9.290   6.095  -5.815  0.00  0.00    +0.089 C 
ATOM     14  C   UNL     1       9.204   3.572  -4.081  0.00  0.00    +0.165 C 
ATOM     15  C   UNL     1       9.247   4.722  -6.360  0.00  0.00    +0.066 A 
ATOM     16  C   UNL     1       9.210   3.608  -5.557  0.00  0.00    +0.056 A 
ATOM     18  C   UNL     1      10.073   5.213  -2.314  0.00  0.00    +0.307 C 
ATOM     19  C   UNL     1       9.188   3.070  -7.685  0.00  0.00    +0.197 A 
ATOM     33  H   UNL     1       9.133   1.570  -6.168  0.00  0.00    +0.167 HD
ATOM     34  H   UNL     1       9.907   3.218  -1.767  0.00  0.00    +0.156 HD
ENDROOT
BRANCH  10  21
ATOM      2 CL   UNL     1      15.034   3.444   2.089  0.00  0.00    -0.084 Cl
ATOM     21  C   UNL     1      11.544   3.915  -0.729  0.00  0.00    +0.035 A 
ATOM     23  C   UNL     1      12.829   3.724  -1.237  0.00  0.00    +0.025 A 
ATOM     24  C   UNL     1      11.338   3.960   0.649  0.00  0.00    +0.025 A 
ATOM     27  C   UNL     1      13.909   3.578  -0.366  0.00  0.00    +0.022 A 
ATOM     28  C   UNL     1      12.418   3.814   1.521  0.00  0.00    +0.022 A 
ATOM     31  C   UNL     1      13.703   3.623   1.013  0.00  0.00    +0.041 A 
ENDBRANCH  10  21
BRANCH  12  17
ATOM      4  O   UNL     1       6.978   6.531  -2.787  0.00  0.00    -0.336 OA
ATOM      9  N   UNL     1       6.344   6.063  -4.882  0.00  0.00    -0.190 NA
ATOM     11  N   UNL     1       5.578   6.579  -2.789  0.00  0.00    -0.056 NA
ATOM     17  C   UNL     1       7.348   6.221  -4.057  0.00  0.00    +0.249 A 
ATOM     20  C   UNL     1       5.280   6.292  -4.060  0.00  0.00    +0.202 A 
BRANCH  20  22
ATOM      1 CL   UNL     1       0.826   3.721  -4.286  0.00  0.00    -0.081 Cl
ATOM      3  F   UNL     1       0.044   6.060  -5.930  0.00  0.00    -0.204 F 
ATOM     22  C   UNL     1       3.930   6.228  -4.539  0.00  0.00    +0.024 A 
ATOM     25  C   UNL     1       3.126   5.135  -4.219  0.00  0.00    +0.034 A 
ATOM     26  C   UNL     1       3.420   7.261  -5.328  0.00  0.00    +0.014 A 
ATOM     29  C   UNL     1       1.813   5.073  -4.685  0.00  0.00    +0.077 A 
ATOM     30  C   UNL     1       2.108   7.198  -5.795  0.00  0.00    +0.040 A 
ATOM     32  C   UNL     1       1.304   6.105  -5.473  0.00  0.00    +0.142 A 
ENDBRANCH  20  22
ENDBRANCH  12  17
TORSDOF 3
ENDMDL
MODEL 7
REMARK VINA RESULT:      -7.1      6.035      8.210
REMARK  Name = 26761982
REMARK  3 active torsions:
REMARK  status: ('A' for Active; 'I' for Inactive)
REMARK    1  A    between atoms: N_10  and  C_21
REMARK    2  A    between atoms: C_12  and  C_17
REMARK    3  A    between atoms: C_20  and  C_22
REMARK                            x       y       z     vdW  Elec       q    Type
REMARK                         _______ _______ _______ _____ _____    ______ ____
ROOT
ATOM      5  O   UNL     1      -4.148 -12.897   9.920  0.00  0.00    -0.252 OA
ATOM      6  N   UNL     1      -4.911 -11.242   8.480  0.00  0.00    -0.267 N 
ATOM      7  N   UNL     1      -6.804  -8.376   6.993  0.00  0.00    -0.347 N 
ATOM      8  N   UNL     1      -8.246  -9.948   6.331  0.00  0.00    -0.240 NA
ATOM     10  N   UNL     1      -3.594 -10.684  10.360  0.00  0.00    -0.269 N 
ATOM     12  C   UNL     1      -5.489 -12.263   7.536  0.00  0.00    +0.172 C 
ATOM     13  C   UNL     1      -6.979 -11.963   7.195  0.00  0.00    +0.089 C 
ATOM     14  C   UNL     1      -5.008  -9.802   8.102  0.00  0.00    +0.165 C 
ATOM     15  C   UNL     1      -7.180 -10.517   6.967  0.00  0.00    +0.066 A 
ATOM     16  C   UNL     1      -6.278  -9.570   7.387  0.00  0.00    +0.056 A 
ATOM     18  C   UNL     1      -4.213 -11.701   9.629  0.00  0.00    +0.307 C 
ATOM     19  C   UNL     1      -7.990  -8.656   6.362  0.00  0.00    +0.197 A 
ATOM     33  H   UNL     1      -6.402  -7.459   7.135  0.00  0.00    +0.167 HD
ATOM     34  H   UNL     1      -3.311  -9.847   9.861  0.00  0.00    +0.156 HD
ENDROOT
BRANCH  10  21
ATOM      2 CL   UNL     1      -2.558 -10.556  16.195  0.00  0.00    -0.084 Cl
ATOM     21  C   UNL     1      -3.347 -10.655  11.755  0.00  0.00    +0.035 A 
ATOM     23  C   UNL     1      -2.035 -10.599  12.229  0.00  0.00    +0.025 A 
ATOM     24  C   UNL     1      -4.413 -10.680  12.653  0.00  0.00    +0.025 A 
ATOM     27  C   UNL     1      -1.792 -10.568  13.602  0.00  0.00    +0.022 A 
ATOM     28  C   UNL     1      -4.169 -10.650  14.027  0.00  0.00    +0.022 A 
ATOM     31  C   UNL     1      -2.858 -10.594  14.501  0.00  0.00    +0.041 A 
ENDBRANCH  10  21
BRANCH  12  17
ATOM      4  O   UNL     1      -4.840 -11.798   5.213  0.00  0.00    -0.336 OA
ATOM      9  N   UNL     1      -3.490 -13.245   6.261  0.00  0.00    -0.190 NA
ATOM     11  N   UNL     1      -3.857 -12.158   4.282  0.00  0.00    -0.056 NA
ATOM     17  C   UNL     1      -4.550 -12.483   6.351  0.00  0.00    +0.249 A 
ATOM     20  C   UNL     1      -3.098 -13.012   4.975  0.00  0.00    +0.202 A 
BRANCH  20  22
ATOM      1 CL   UNL     1      -0.361 -14.220   0.785  0.00  0.00    -0.081 Cl
ATOM      3  F   UNL     1       1.389 -15.491   2.811  0.00  0.00    -0.204 F 
ATOM     22  C   UNL     1      -1.944 -13.650   4.413  0.00  0.00    +0.024 A 
ATOM     25  C   UNL     1      -1.736 -13.629   3.034  0.00  0.00    +0.034 A 
ATOM     26  C   UNL     1      -1.026 -14.291   5.246  0.00  0.00    +0.014 A 
ATOM     29  C   UNL     1      -0.612 -14.249   2.488  0.00  0.00    +0.077 A 
ATOM     30  C   UNL     1       0.097 -14.912   4.700  0.00  0.00    +0.040 A 
ATOM     32  C   UNL     1       0.304 -14.890   3.321  0.00  0.00    +0.142 A 
ENDBRANCH  20  22
ENDBRANCH  12  17
TORSDOF 3
ENDMDL
MODEL 8
REMARK VINA RESULT:      -7.1      2.133      2.592
REMARK  Name = 26761982
REMARK  3 active torsions:
REMARK  status: ('A' for Active; 'I' for Inactive)
REMARK    1  A    between atoms: N_10  and  C_21
REMARK    2  A    between atoms: C_12  and  C_17
REMARK    3  A    between atoms: C_20  and  C_22
REMARK                            x       y       z     vdW  Elec       q    Type
REMARK                         _______ _______ _______ _____ _____    ______ ____
ROOT
ATOM      5  O   UNL     1      -7.983  -9.745   8.389  0.00  0.00    -0.252 OA
ATOM      6  N   UNL     1      -8.632  -7.528   8.139  0.00  0.00    -0.267 N 
ATOM      7  N   UNL     1      -9.627  -3.985   8.817  0.00  0.00    -0.347 N 
ATOM      8  N   UNL     1     -11.693  -4.818   8.976  0.00  0.00    -0.240 NA
ATOM     10  N   UNL     1      -6.420  -8.068   8.767  0.00  0.00    -0.269 N 
ATOM     12  C   UNL     1      -9.990  -7.933   7.630  0.00  0.00    +0.172 C 
ATOM     13  C   UNL     1     -11.138  -7.222   8.407  0.00  0.00    +0.089 C 
ATOM     14  C   UNL     1      -8.308  -6.073   8.194  0.00  0.00    +0.165 C 
ATOM     15  C   UNL     1     -10.806  -5.802   8.642  0.00  0.00    +0.066 A 
ATOM     16  C   UNL     1      -9.526  -5.315   8.540  0.00  0.00    +0.056 A 
ATOM     18  C   UNL     1      -7.690  -8.548   8.442  0.00  0.00    +0.307 C 
ATOM     19  C   UNL     1     -10.952  -3.733   9.074  0.00  0.00    +0.197 A 
ATOM     33  H   UNL     1      -8.874  -3.309   8.831  0.00  0.00    +0.167 HD
ATOM     34  H   UNL     1      -6.134  -7.177   8.372  0.00  0.00    +0.156 HD
ENDROOT
BRANCH  10  21
ATOM      2 CL   UNL     1      -2.452 -10.556  12.400  0.00  0.00    -0.084 Cl
ATOM     21  C   UNL     1      -5.471  -8.662   9.635  0.00  0.00    +0.035 A 
ATOM     23  C   UNL     1      -5.852  -9.057  10.918  0.00  0.00    +0.025 A 
ATOM     24  C   UNL     1      -4.157  -8.853   9.208  0.00  0.00    +0.025 A 
ATOM     27  C   UNL     1      -4.918  -9.643  11.773  0.00  0.00    +0.022 A 
ATOM     28  C   UNL     1      -3.223  -9.438  10.063  0.00  0.00    +0.022 A 
ATOM     31  C   UNL     1      -3.604  -9.833  11.346  0.00  0.00    +0.041 A 
ENDBRANCH  10  21
BRANCH  12  17
ATOM      4  O   UNL     1     -10.720  -6.783   5.587  0.00  0.00    -0.336 OA
ATOM      9  N   UNL     1      -9.512  -8.629   5.207  0.00  0.00    -0.190 NA
ATOM     11  N   UNL     1     -10.627  -6.907   4.195  0.00  0.00    -0.056 NA
ATOM     17  C   UNL     1     -10.038  -7.836   6.106  0.00  0.00    +0.249 A 
ATOM     20  C   UNL     1      -9.900  -8.019   4.050  0.00  0.00    +0.202 A 
BRANCH  20  22
ATOM      1 CL   UNL     1      -7.927 -11.894   1.294  0.00  0.00    -0.081 Cl
ATOM      3  F   UNL     1      -8.522 -10.047  -0.946  0.00  0.00    -0.204 F 
ATOM     22  C   UNL     1      -9.543  -8.545   2.765  0.00  0.00    +0.024 A 
ATOM     25  C   UNL     1      -8.975  -9.815   2.663  0.00  0.00    +0.034 A 
ATOM     26  C   UNL     1      -9.765  -7.787   1.614  0.00  0.00    +0.014 A 
ATOM     29  C   UNL     1      -8.628 -10.327   1.413  0.00  0.00    +0.077 A 
ATOM     30  C   UNL     1      -9.418  -8.299   0.364  0.00  0.00    +0.040 A 
ATOM     32  C   UNL     1      -8.850  -9.569   0.263  0.00  0.00    +0.142 A 
ENDBRANCH  20  22
ENDBRANCH  12  17
TORSDOF 3
ENDMDL
MODEL 9
REMARK VINA RESULT:      -7.0     33.348     34.709
REMARK  Name = 26761982
REMARK  3 active torsions:
REMARK  status: ('A' for Active; 'I' for Inactive)
REMARK    1  A    between atoms: N_10  and  C_21
REMARK    2  A    between atoms: C_12  and  C_17
REMARK    3  A    between atoms: C_20  and  C_22
REMARK                            x       y       z     vdW  Elec       q    Type
REMARK                         _______ _______ _______ _____ _____    ______ ____
ROOT
ATOM      5  O   UNL     1      -3.988  -5.875  39.084  0.00  0.00    -0.252 OA
ATOM      6  N   UNL     1      -5.065  -7.389  40.479  0.00  0.00    -0.267 N 
ATOM      7  N   UNL     1      -5.811 -10.268  42.751  0.00  0.00    -0.347 N 
ATOM      8  N   UNL     1      -6.173 -11.394  40.857  0.00  0.00    -0.240 NA
ATOM     10  N   UNL     1      -3.563  -5.796  41.367  0.00  0.00    -0.269 N 
ATOM     12  C   UNL     1      -5.890  -7.925  39.340  0.00  0.00    +0.172 C 
ATOM     13  C   UNL     1      -5.808  -9.478  39.242  0.00  0.00    +0.089 C 
ATOM     14  C   UNL     1      -5.308  -7.942  41.844  0.00  0.00    +0.165 C 
ATOM     15  C   UNL     1      -5.878 -10.088  40.586  0.00  0.00    +0.066 A 
ATOM     16  C   UNL     1      -5.648  -9.373  41.736  0.00  0.00    +0.056 A 
ATOM     18  C   UNL     1      -4.171  -6.314  40.222  0.00  0.00    +0.307 C 
ATOM     19  C   UNL     1      -6.126 -11.472  42.171  0.00  0.00    +0.197 A 
ATOM     33  H   UNL     1      -5.718 -10.085  43.742  0.00  0.00    +0.167 HD
ATOM     34  H   UNL     1      -4.063  -5.877  42.248  0.00  0.00    +0.156 HD
ENDROOT
BRANCH  10  21
ATOM      2 CL   UNL     1       1.791  -3.287  41.784  0.00  0.00    -0.084 Cl
ATOM     21  C   UNL     1      -2.283  -5.196  41.466  0.00  0.00    +0.035 A 
ATOM     23  C   UNL     1      -2.171  -3.840  41.773  0.00  0.00    +0.025 A 
ATOM     24  C   UNL     1      -1.136  -5.961  41.257  0.00  0.00    +0.025 A 
ATOM     27  C   UNL     1      -0.911  -3.249  41.872  0.00  0.00    +0.022 A 
ATOM     28  C   UNL     1       0.124  -5.371  41.355  0.00  0.00    +0.022 A 
ATOM     31  C   UNL     1       0.237  -4.014  41.662  0.00  0.00    +0.041 A 
ENDBRANCH  10  21
BRANCH  12  17
ATOM      4  O   UNL     1      -8.298  -8.097  38.892  0.00  0.00    -0.336 OA
ATOM      9  N   UNL     1      -7.678  -6.139  39.782  0.00  0.00    -0.190 NA
ATOM     11  N   UNL     1      -9.469  -7.338  39.015  0.00  0.00    -0.056 NA
ATOM     17  C   UNL     1      -7.291  -7.318  39.366  0.00  0.00    +0.249 A 
ATOM     20  C   UNL     1      -9.021  -6.197  39.547  0.00  0.00    +0.202 A 
BRANCH  20  22
ATOM      1 CL   UNL     1     -13.700  -4.559  40.935  0.00  0.00    -0.081 Cl
ATOM      3  F   UNL     1     -12.370  -1.917  40.747  0.00  0.00    -0.204 F 
ATOM     22  C   UNL     1      -9.888  -5.098  39.857  0.00  0.00    +0.024 A 
ATOM     25  C   UNL     1     -11.217  -5.332  40.205  0.00  0.00    +0.034 A 
ATOM     26  C   UNL     1      -9.400  -3.790  39.811  0.00  0.00    +0.014 A 
ATOM     29  C   UNL     1     -12.060  -4.262  40.507  0.00  0.00    +0.077 A 
ATOM     30  C   UNL     1     -10.242  -2.720  40.112  0.00  0.00    +0.040 A 
ATOM     32  C   UNL     1     -11.572  -2.957  40.460  0.00  0.00    +0.142 A 
ENDBRANCH  20  22
ENDBRANCH  12  17
TORSDOF 3
ENDMDL
MODEL 10
REMARK VINA RESULT:      -7.0     24.122     26.411
REMARK  Name = 26761982
REMARK  3 active torsions:
REMARK  status: ('A' for Active; 'I' for Inactive)
REMARK    1  A    between atoms: N_10  and  C_21
REMARK    2  A    between atoms: C_12  and  C_17
REMARK    3  A    between atoms: C_20  and  C_22
REMARK                            x       y       z     vdW  Elec       q    Type
REMARK                         _______ _______ _______ _____ _____    ______ ____
ROOT
ATOM      5  O   UNL     1      10.348   7.732   3.288  0.00  0.00    -0.252 OA
ATOM      6  N   UNL     1      10.700   7.051   5.481  0.00  0.00    -0.267 N 
ATOM      7  N   UNL     1      10.824   5.041   8.635  0.00  0.00    -0.347 N 
ATOM      8  N   UNL     1       8.753   5.811   8.957  0.00  0.00    -0.240 NA
ATOM     10  N   UNL     1      12.065   6.231   3.735  0.00  0.00    -0.269 N 
ATOM     12  C   UNL     1       9.658   8.008   5.996  0.00  0.00    +0.172 C 
ATOM     13  C   UNL     1       8.617   7.297   6.911  0.00  0.00    +0.089 C 
ATOM     14  C   UNL     1      11.455   6.233   6.474  0.00  0.00    +0.165 C 
ATOM     15  C   UNL     1       9.287   6.342   7.818  0.00  0.00    +0.066 A 
ATOM     16  C   UNL     1      10.562   5.881   7.595  0.00  0.00    +0.056 A 
ATOM     18  C   UNL     1      10.987   7.047   4.089  0.00  0.00    +0.307 C 
ATOM     19  C   UNL     1       9.704   5.031   9.428  0.00  0.00    +0.197 A 
ATOM     33  H   UNL     1      11.678   4.522   8.796  0.00  0.00    +0.167 HD
ATOM     34  H   UNL     1      12.787   6.071   4.431  0.00  0.00    +0.156 HD
ENDROOT
BRANCH  10  21
ATOM      2 CL   UNL     1      12.875   3.363  -1.388  0.00  0.00    -0.084 Cl
ATOM     21  C   UNL     1      12.259   5.545   2.511  0.00  0.00    +0.035 A 
ATOM     23  C   UNL     1      11.776   4.245   2.356  0.00  0.00    +0.025 A 
ATOM     24  C   UNL     1      12.932   6.170   1.461  0.00  0.00    +0.025 A 
ATOM     27  C   UNL     1      11.967   3.571   1.149  0.00  0.00    +0.022 A 
ATOM     28  C   UNL     1      13.123   5.494   0.255  0.00  0.00    +0.022 A 
ATOM     31  C   UNL     1      12.640   4.195   0.099  0.00  0.00    +0.041 A 
ENDBRANCH  10  21
BRANCH  12  17
ATOM      4  O   UNL     1      10.600  10.254   5.680  0.00  0.00    -0.336 OA
ATOM      9  N   UNL     1      10.668   9.530   7.798  0.00  0.00    -0.190 NA
ATOM     11  N   UNL     1      11.195  11.281   6.423  0.00  0.00    -0.056 NA
ATOM     17  C   UNL     1      10.321   9.261   6.564  0.00  0.00    +0.249 A 
ATOM     20  C   UNL     1      11.200  10.779   7.662  0.00  0.00    +0.202 A 
BRANCH  20  22
ATOM      1 CL   UNL     1      10.811  12.036  12.639  0.00  0.00    -0.081 Cl
ATOM      3  F   UNL     1      13.260  13.580  12.007  0.00  0.00    -0.204 F 
ATOM     22  C   UNL     1      11.727  11.499   8.784  0.00  0.00    +0.024 A 
ATOM     25  C   UNL     1      11.089  11.427  10.022  0.00  0.00    +0.034 A 
ATOM     26  C   UNL     1      12.880  12.272   8.638  0.00  0.00    +0.014 A 
ATOM     29  C   UNL     1      11.602  12.128  11.114  0.00  0.00    +0.077 A 
ATOM     30  C   UNL     1      13.393  12.973   9.729  0.00  0.00    +0.040 A 
ATOM     32  C   UNL     1      12.754  12.901  10.967  0.00  0.00    +0.142 A 
ENDBRANCH  20  22
ENDBRANCH  12  17
TORSDOF 3
ENDMDL
