MODEL 1
REMARK VINA RESULT:      -7.0      0.000      0.000
REMARK  Name = 45361403
REMARK  12 active torsions:
REMARK  status: ('A' for Active; 'I' for Inactive)
REMARK    1  A    between atoms: O_1  and  C_10
REMARK    2  A    between atoms: N_4  and  C_14
REMARK    3  A    between atoms: N_5  and  C_24
REMARK    4  A    between atoms: N_5  and  C_25
REMARK    5  A    between atoms: C_7  and  C_17
REMARK    6  A    between atoms: C_9  and  C_19
REMARK    7  A    between atoms: C_12  and  C_18
REMARK    8  A    between atoms: C_18  and  C_20
REMARK    9  A    between atoms: C_18  and  C_21
REMARK   10  A    between atoms: C_22  and  C_23
REMARK   11  A    between atoms: C_24  and  C_26
REMARK   12  A    between atoms: C_26  and  C_32
REMARK                            x       y       z     vdW  Elec       q    Type
REMARK                         _______ _______ _______ _____ _____    ______ ____
ROOT
ATOM      7  C   UNL     1      -4.731 -11.557  17.680  0.00  0.00    -0.027 C 
ATOM      8  C   UNL     1      -5.554 -10.485  16.891  0.00  0.00    +0.028 C 
ATOM      9  C   UNL     1      -7.046 -10.452  17.381  0.00  0.00    +0.012 C 
ATOM     10  C   UNL     1      -5.360 -10.643  15.355  0.00  0.00    +0.122 C 
ATOM     11  C   UNL     1      -3.246 -11.484  17.253  0.00  0.00    +0.007 C 
ATOM     12  C   UNL     1      -3.869 -10.674  14.944  0.00  0.00    +0.029 C 
ATOM     13  C   UNL     1      -4.802 -11.235  19.191  0.00  0.00    +0.009 C 
ATOM     14  C   UNL     1      -7.103 -10.203  18.916  0.00  0.00    +0.076 C 
ATOM     15  C   UNL     1      -3.048 -11.678  15.755  0.00  0.00    +0.007 C 
ATOM     16  C   UNL     1      -6.227 -11.164  19.720  0.00  0.00    +0.023 C 
ATOM     17  C   UNL     1      -5.248 -12.998  17.440  0.00  0.00    +0.011 C 
ATOM     19  C   UNL     1      -7.907  -9.398  16.667  0.00  0.00    +0.010 C 
ENDROOT
BRANCH  14   4
ATOM      3  O   UNL     1      -8.707 -12.572  19.157  0.00  0.00    -0.270 OA
ATOM      4  N   UNL     1      -8.457 -10.282  19.422  0.00  0.00    -0.308 N 
ATOM     22  C   UNL     1      -9.150 -11.478  19.497  0.00  0.00    +0.244 C 
ATOM     33  H   UNL     1      -8.926  -9.403  19.613  0.00  0.00    +0.149 HD
BRANCH  22  23
ATOM     23  C   UNL     1     -10.539 -11.387  20.015  0.00  0.00    +0.037 A 
ATOM     27  C   UNL     1     -11.207 -10.162  20.008  0.00  0.00    +0.013 A 
ATOM     28  C   UNL     1     -11.177 -12.526  20.506  0.00  0.00    +0.013 A 
ATOM     29  C   UNL     1     -12.512 -10.077  20.493  0.00  0.00    +0.001 A 
ATOM     30  C   UNL     1     -12.483 -12.441  20.991  0.00  0.00    +0.001 A 
ATOM     31  C   UNL     1     -13.149 -11.216  20.984  0.00  0.00    +0.000 A 
ENDBRANCH  22  23
ENDBRANCH  14   4
BRANCH  10   1
ATOM      1  O   UNL     1      -5.944  -9.527  14.683  0.00  0.00    -0.391 OA
ATOM     34  H   UNL     1      -5.831  -9.657  13.726  0.00  0.00    +0.210 HD
ENDBRANCH  10   1
BRANCH  12  18
ATOM     18  C   UNL     1      -3.697 -10.962  13.448  0.00  0.00    +0.078 C 
ATOM     20  C   UNL     1      -3.627 -12.473  13.224  0.00  0.00    +0.017 C 
BRANCH  18  21
ATOM      2  O   UNL     1      -1.501 -10.041  13.708  0.00  0.00    -0.275 OA
ATOM      5  N   UNL     1      -2.399  -9.903  11.580  0.00  0.00    -0.303 N 
ATOM     21  C   UNL     1      -2.434 -10.270  12.929  0.00  0.00    +0.219 C 
ATOM     25  C   UNL     1      -1.218  -9.222  11.058  0.00  0.00    +0.132 C 
BRANCH   5  24
ATOM     24  C   UNL     1      -3.438 -10.168  10.588  0.00  0.00    +0.122 C 
BRANCH  24  26
ATOM     26  C   UNL     1      -4.269  -8.931  10.270  0.00  0.00    +0.137 C 
BRANCH  26  32
ATOM      6  N   UNL     1      -6.357  -8.719  11.859  0.00  0.00    -0.197 NA
ATOM     32  C   UNL     1      -5.437  -8.813  11.157  0.00  0.00    +0.064 C 
ENDBRANCH  26  32
ENDBRANCH  24  26
ENDBRANCH   5  24
ENDBRANCH  18  21
ENDBRANCH  12  18
TORSDOF 8
ENDMDL
MODEL 2
REMARK VINA RESULT:      -7.0      1.719      1.974
REMARK  Name = 45361403
REMARK  12 active torsions:
REMARK  status: ('A' for Active; 'I' for Inactive)
REMARK    1  A    between atoms: O_1  and  C_10
REMARK    2  A    between atoms: N_4  and  C_14
REMARK    3  A    between atoms: N_5  and  C_24
REMARK    4  A    between atoms: N_5  and  C_25
REMARK    5  A    between atoms: C_7  and  C_17
REMARK    6  A    between atoms: C_9  and  C_19
REMARK    7  A    between atoms: C_12  and  C_18
REMARK    8  A    between atoms: C_18  and  C_20
REMARK    9  A    between atoms: C_18  and  C_21
REMARK   10  A    between atoms: C_22  and  C_23
REMARK   11  A    between atoms: C_24  and  C_26
REMARK   12  A    between atoms: C_26  and  C_32
REMARK                            x       y       z     vdW  Elec       q    Type
REMARK                         _______ _______ _______ _____ _____    ______ ____
ROOT
ATOM      7  C   UNL     1      -5.357 -11.180  17.520  0.00  0.00    -0.027 C 
ATOM      8  C   UNL     1      -5.990 -10.353  16.352  0.00  0.00    +0.028 C 
ATOM      9  C   UNL     1      -7.558 -10.377  16.435  0.00  0.00    +0.012 C 
ATOM     10  C   UNL     1      -5.388 -10.767  14.978  0.00  0.00    +0.122 C 
ATOM     11  C   UNL     1      -3.817 -11.043  17.474  0.00  0.00    +0.007 C 
ATOM     12  C   UNL     1      -3.842 -10.728  14.970  0.00  0.00    +0.029 C 
ATOM     13  C   UNL     1      -5.842 -10.598  18.868  0.00  0.00    +0.009 C 
ATOM     14  C   UNL     1      -8.032  -9.860  17.824  0.00  0.00    +0.076 C 
ATOM     15  C   UNL     1      -3.220 -11.484  16.144  0.00  0.00    +0.007 C 
ATOM     16  C   UNL     1      -7.357 -10.570  18.998  0.00  0.00    +0.023 C 
ATOM     17  C   UNL     1      -5.726 -12.684  17.451  0.00  0.00    +0.011 C 
ATOM     19  C   UNL     1      -8.246  -9.557  15.331  0.00  0.00    +0.010 C 
ENDROOT
BRANCH  14   4
ATOM      3  O   UNL     1      -9.959  -7.747  17.574  0.00  0.00    -0.270 OA
ATOM      4  N   UNL     1      -9.466  -9.977  17.978  0.00  0.00    -0.308 N 
ATOM     22  C   UNL     1     -10.316  -8.892  17.839  0.00  0.00    +0.244 C 
ATOM     33  H   UNL     1      -9.820 -10.867  18.310  0.00  0.00    +0.149 HD
BRANCH  22  23
ATOM     23  C   UNL     1     -11.759  -9.171  18.055  0.00  0.00    +0.037 A 
ATOM     27  C   UNL     1     -12.687  -8.853  17.064  0.00  0.00    +0.013 A 
ATOM     28  C   UNL     1     -12.185  -9.753  19.248  0.00  0.00    +0.013 A 
ATOM     29  C   UNL     1     -14.042  -9.116  17.266  0.00  0.00    +0.001 A 
ATOM     30  C   UNL     1     -13.540 -10.017  19.451  0.00  0.00    +0.001 A 
ATOM     31  C   UNL     1     -14.468  -9.698  18.460  0.00  0.00    +0.000 A 
ENDBRANCH  22  23
ENDBRANCH  14   4
BRANCH  10   1
ATOM      1  O   UNL     1      -5.824  -9.853  13.971  0.00  0.00    -0.391 OA
ATOM     34  H   UNL     1      -6.796  -9.855  13.960  0.00  0.00    +0.210 HD
ENDBRANCH  10   1
BRANCH  12  18
ATOM     18  C   UNL     1      -3.266 -11.264  13.654  0.00  0.00    +0.078 C 
ATOM     20  C   UNL     1      -2.767 -12.695  13.860  0.00  0.00    +0.017 C 
BRANCH  18  21
ATOM      2  O   UNL     1      -1.331  -9.895  13.994  0.00  0.00    -0.275 OA
ATOM      5  N   UNL     1      -2.073 -10.054  11.808  0.00  0.00    -0.303 N 
ATOM     21  C   UNL     1      -2.135 -10.351  13.173  0.00  0.00    +0.219 C 
ATOM     25  C   UNL     1      -1.019  -9.168  11.320  0.00  0.00    +0.132 C 
BRANCH   5  24
ATOM     24  C   UNL     1      -2.957 -10.578  10.770  0.00  0.00    +0.122 C 
BRANCH  24  26
ATOM     26  C   UNL     1      -3.639  -9.473   9.972  0.00  0.00    +0.137 C 
BRANCH  26  32
ATOM      6  N   UNL     1      -5.669  -8.430  11.283  0.00  0.00    -0.197 NA
ATOM     32  C   UNL     1      -4.774  -8.889  10.704  0.00  0.00    +0.064 C 
ENDBRANCH  26  32
ENDBRANCH  24  26
ENDBRANCH   5  24
ENDBRANCH  18  21
ENDBRANCH  12  18
TORSDOF 8
ENDMDL
MODEL 3
REMARK VINA RESULT:      -6.7     25.478     27.867
REMARK  Name = 45361403
REMARK  12 active torsions:
REMARK  status: ('A' for Active; 'I' for Inactive)
REMARK    1  A    between atoms: O_1  and  C_10
REMARK    2  A    between atoms: N_4  and  C_14
REMARK    3  A    between atoms: N_5  and  C_24
REMARK    4  A    between atoms: N_5  and  C_25
REMARK    5  A    between atoms: C_7  and  C_17
REMARK    6  A    between atoms: C_9  and  C_19
REMARK    7  A    between atoms: C_12  and  C_18
REMARK    8  A    between atoms: C_18  and  C_20
REMARK    9  A    between atoms: C_18  and  C_21
REMARK   10  A    between atoms: C_22  and  C_23
REMARK   11  A    between atoms: C_24  and  C_26
REMARK   12  A    between atoms: C_26  and  C_32
REMARK                            x       y       z     vdW  Elec       q    Type
REMARK                         _______ _______ _______ _____ _____    ______ ____
ROOT
ATOM      7  C   UNL     1       9.489   5.930   5.962  0.00  0.00    -0.027 C 
ATOM      8  C   UNL     1      10.467   7.064   5.507  0.00  0.00    +0.028 C 
ATOM      9  C   UNL     1       9.950   8.470   5.977  0.00  0.00    +0.012 C 
ATOM     10  C   UNL     1      10.799   6.947   3.991  0.00  0.00    +0.122 C 
ATOM     11  C   UNL     1      10.083   4.553   5.582  0.00  0.00    +0.007 C 
ATOM     12  C   UNL     1      11.295   5.535   3.598  0.00  0.00    +0.029 C 
ATOM     13  C   UNL     1       9.349   5.973   7.501  0.00  0.00    +0.009 C 
ATOM     14  C   UNL     1       9.741   8.479   7.519  0.00  0.00    +0.076 C 
ATOM     15  C   UNL     1      10.373   4.421   4.093  0.00  0.00    +0.007 C 
ATOM     16  C   UNL     1       8.876   7.323   8.020  0.00  0.00    +0.023 C 
ATOM     17  C   UNL     1       8.086   6.061   5.317  0.00  0.00    +0.011 C 
ATOM     19  C   UNL     1      10.881   9.631   5.588  0.00  0.00    +0.010 C 
ENDROOT
BRANCH  14   4
ATOM      3  O   UNL     1      11.009  10.479   9.142  0.00  0.00    -0.270 OA
ATOM      4  N   UNL     1       9.155   9.722   7.973  0.00  0.00    -0.308 N 
ATOM     22  C   UNL     1       9.852  10.626   8.757  0.00  0.00    +0.244 C 
ATOM     33  H   UNL     1       8.166   9.856   7.790  0.00  0.00    +0.149 HD
BRANCH  22  23
ATOM     23  C   UNL     1       9.102  11.842   9.163  0.00  0.00    +0.037 A 
ATOM     27  C   UNL     1       8.864  12.857   8.235  0.00  0.00    +0.013 A 
ATOM     28  C   UNL     1       8.633  11.969  10.470  0.00  0.00    +0.013 A 
ATOM     29  C   UNL     1       8.159  13.998   8.616  0.00  0.00    +0.001 A 
ATOM     30  C   UNL     1       7.927  13.110  10.851  0.00  0.00    +0.001 A 
ATOM     31  C   UNL     1       7.690  14.124   9.923  0.00  0.00    +0.000 A 
ENDBRANCH  22  23
ENDBRANCH  14   4
BRANCH  10   1
ATOM      1  O   UNL     1      11.851   7.855   3.662  0.00  0.00    -0.391 OA
ATOM     34  H   UNL     1      12.671   7.528   4.069  0.00  0.00    +0.210 HD
ENDBRANCH  10   1
BRANCH  12  18
ATOM     18  C   UNL     1      11.490   5.403   2.083  0.00  0.00    +0.078 C 
ATOM     20  C   UNL     1      10.204   4.875   1.446  0.00  0.00    +0.017 C 
BRANCH  18  21
ATOM      2  O   UNL     1      12.511   3.248   1.866  0.00  0.00    -0.275 OA
ATOM      5  N   UNL     1      13.899   5.057   1.470  0.00  0.00    -0.303 N 
ATOM     21  C   UNL     1      12.670   4.472   1.792  0.00  0.00    +0.219 C 
ATOM     25  C   UNL     1      15.049   4.197   1.209  0.00  0.00    +0.132 C 
BRANCH   5  24
ATOM     24  C   UNL     1      14.161   6.487   1.327  0.00  0.00    +0.122 C 
BRANCH  24  26
ATOM     26  C   UNL     1      15.377   6.939   2.126  0.00  0.00    +0.137 C 
BRANCH  26  32
ATOM      6  N   UNL     1      14.775   7.410   4.644  0.00  0.00    -0.197 NA
ATOM     32  C   UNL     1      15.040   7.203   3.534  0.00  0.00    +0.064 C 
ENDBRANCH  26  32
ENDBRANCH  24  26
ENDBRANCH   5  24
ENDBRANCH  18  21
ENDBRANCH  12  18
TORSDOF 8
ENDMDL
MODEL 4
REMARK VINA RESULT:      -6.4     18.591     20.042
REMARK  Name = 45361403
REMARK  12 active torsions:
REMARK  status: ('A' for Active; 'I' for Inactive)
REMARK    1  A    between atoms: O_1  and  C_10
REMARK    2  A    between atoms: N_4  and  C_14
REMARK    3  A    between atoms: N_5  and  C_24
REMARK    4  A    between atoms: N_5  and  C_25
REMARK    5  A    between atoms: C_7  and  C_17
REMARK    6  A    between atoms: C_9  and  C_19
REMARK    7  A    between atoms: C_12  and  C_18
REMARK    8  A    between atoms: C_18  and  C_20
REMARK    9  A    between atoms: C_18  and  C_21
REMARK   10  A    between atoms: C_22  and  C_23
REMARK   11  A    between atoms: C_24  and  C_26
REMARK   12  A    between atoms: C_26  and  C_32
REMARK                            x       y       z     vdW  Elec       q    Type
REMARK                         _______ _______ _______ _____ _____    ______ ____
ROOT
ATOM      7  C   UNL     1     -16.894   6.031  21.046  0.00  0.00    -0.027 C 
ATOM      8  C   UNL     1     -15.399   5.779  21.435  0.00  0.00    +0.028 C 
ATOM      9  C   UNL     1     -15.276   5.366  22.945  0.00  0.00    +0.012 C 
ATOM     10  C   UNL     1     -14.493   6.963  20.991  0.00  0.00    +0.122 C 
ATOM     11  C   UNL     1     -16.991   6.325  19.530  0.00  0.00    +0.007 C 
ATOM     12  C   UNL     1     -14.671   7.320  19.495  0.00  0.00    +0.029 C 
ATOM     13  C   UNL     1     -17.712   4.750  21.330  0.00  0.00    +0.009 C 
ATOM     14  C   UNL     1     -16.162   4.121  23.237  0.00  0.00    +0.076 C 
ATOM     15  C   UNL     1     -16.135   7.508  19.098  0.00  0.00    +0.007 C 
ATOM     16  C   UNL     1     -17.610   4.285  22.775  0.00  0.00    +0.023 C 
ATOM     17  C   UNL     1     -17.518   7.218  21.823  0.00  0.00    +0.011 C 
ATOM     19  C   UNL     1     -13.833   5.073  23.388  0.00  0.00    +0.010 C 
ENDROOT
BRANCH  14   4
ATOM      3  O   UNL     1     -16.640   1.529  24.375  0.00  0.00    -0.270 OA
ATOM      4  N   UNL     1     -16.163   3.782  24.644  0.00  0.00    -0.308 N 
ATOM     22  C   UNL     1     -16.407   2.496  25.095  0.00  0.00    +0.244 C 
ATOM     33  H   UNL     1     -16.093   4.552  25.300  0.00  0.00    +0.149 HD
BRANCH  22  23
ATOM     23  C   UNL     1     -16.400   2.317  26.570  0.00  0.00    +0.037 A 
ATOM     27  C   UNL     1     -16.029   3.376  27.399  0.00  0.00    +0.013 A 
ATOM     28  C   UNL     1     -16.765   1.092  27.126  0.00  0.00    +0.013 A 
ATOM     29  C   UNL     1     -16.023   3.209  28.784  0.00  0.00    +0.001 A 
ATOM     30  C   UNL     1     -16.760   0.924  28.511  0.00  0.00    +0.001 A 
ATOM     31  C   UNL     1     -16.389   1.983  29.339  0.00  0.00    +0.000 A 
ENDBRANCH  22  23
ENDBRANCH  14   4
BRANCH  10   1
ATOM      1  O   UNL     1     -13.122   6.606  21.163  0.00  0.00    -0.391 OA
ATOM     34  H   UNL     1     -12.727   7.222  21.803  0.00  0.00    +0.210 HD
ENDBRANCH  10   1
BRANCH  12  18
ATOM     18  C   UNL     1     -13.870   8.569  19.110  0.00  0.00    +0.078 C 
ATOM     20  C   UNL     1     -14.833   9.721  18.816  0.00  0.00    +0.017 C 
BRANCH  18  21
ATOM      2  O   UNL     1     -13.519   7.987  16.814  0.00  0.00    -0.275 OA
ATOM      5  N   UNL     1     -11.602   8.298  18.072  0.00  0.00    -0.303 N 
ATOM     21  C   UNL     1     -12.989   8.266  17.895  0.00  0.00    +0.219 C 
ATOM     25  C   UNL     1     -10.734   7.992  16.939  0.00  0.00    +0.132 C 
BRANCH   5  24
ATOM     24  C   UNL     1     -10.898   8.652  19.303  0.00  0.00    +0.122 C 
BRANCH  24  26
ATOM     26  C   UNL     1     -10.185   9.995  19.200  0.00  0.00    +0.137 C 
BRANCH  26  32
ATOM      6  N   UNL     1     -11.885  11.999  19.072  0.00  0.00    -0.197 NA
ATOM     32  C   UNL     1     -11.135  11.116  19.128  0.00  0.00    +0.064 C 
ENDBRANCH  26  32
ENDBRANCH  24  26
ENDBRANCH   5  24
ENDBRANCH  18  21
ENDBRANCH  12  18
TORSDOF 8
ENDMDL
MODEL 5
REMARK VINA RESULT:      -6.1     18.038     19.996
REMARK  Name = 45361403
REMARK  12 active torsions:
REMARK  status: ('A' for Active; 'I' for Inactive)
REMARK    1  A    between atoms: O_1  and  C_10
REMARK    2  A    between atoms: N_4  and  C_14
REMARK    3  A    between atoms: N_5  and  C_24
REMARK    4  A    between atoms: N_5  and  C_25
REMARK    5  A    between atoms: C_7  and  C_17
REMARK    6  A    between atoms: C_9  and  C_19
REMARK    7  A    between atoms: C_12  and  C_18
REMARK    8  A    between atoms: C_18  and  C_20
REMARK    9  A    between atoms: C_18  and  C_21
REMARK   10  A    between atoms: C_22  and  C_23
REMARK   11  A    between atoms: C_24  and  C_26
REMARK   12  A    between atoms: C_26  and  C_32
REMARK                            x       y       z     vdW  Elec       q    Type
REMARK                         _______ _______ _______ _____ _____    ______ ____
ROOT
ATOM      7  C   UNL     1     -15.720   7.697  20.787  0.00  0.00    -0.027 C 
ATOM      8  C   UNL     1     -14.441   6.804  20.919  0.00  0.00    +0.028 C 
ATOM      9  C   UNL     1     -14.452   6.006  22.271  0.00  0.00    +0.012 C 
ATOM     10  C   UNL     1     -13.150   7.625  20.639  0.00  0.00    +0.122 C 
ATOM     11  C   UNL     1     -15.733   8.380  19.400  0.00  0.00    +0.007 C 
ATOM     12  C   UNL     1     -13.211   8.390  19.295  0.00  0.00    +0.029 C 
ATOM     13  C   UNL     1     -16.974   6.797  20.881  0.00  0.00    +0.009 C 
ATOM     14  C   UNL     1     -15.754   5.163  22.388  0.00  0.00    +0.076 C 
ATOM     15  C   UNL     1     -14.487   9.216  19.137  0.00  0.00    +0.007 C 
ATOM     16  C   UNL     1     -17.028   5.977  22.161  0.00  0.00    +0.023 C 
ATOM     17  C   UNL     1     -15.795   8.792  21.882  0.00  0.00    +0.011 C 
ATOM     19  C   UNL     1     -13.236   5.083  22.452  0.00  0.00    +0.010 C 
ENDROOT
BRANCH  14   4
ATOM      3  O   UNL     1     -16.651   2.479  22.875  0.00  0.00    -0.270 OA
ATOM      4  N   UNL     1     -15.853   4.504  23.673  0.00  0.00    -0.308 N 
ATOM     22  C   UNL     1     -16.300   3.200  23.804  0.00  0.00    +0.244 C 
ATOM     33  H   UNL     1     -15.689   5.077  24.495  0.00  0.00    +0.149 HD
BRANCH  22  23
ATOM     23  C   UNL     1     -16.368   2.678  25.193  0.00  0.00    +0.037 A 
ATOM     27  C   UNL     1     -16.827   1.382  25.430  0.00  0.00    +0.013 A 
ATOM     28  C   UNL     1     -15.972   3.483  26.261  0.00  0.00    +0.013 A 
ATOM     29  C   UNL     1     -16.890   0.892  26.735  0.00  0.00    +0.001 A 
ATOM     30  C   UNL     1     -16.034   2.993  27.566  0.00  0.00    +0.001 A 
ATOM     31  C   UNL     1     -16.494   1.697  27.801  0.00  0.00    +0.000 A 
ENDBRANCH  22  23
ENDBRANCH  14   4
BRANCH  10   1
ATOM      1  O   UNL     1     -12.032   6.741  20.553  0.00  0.00    -0.391 OA
ATOM     34  H   UNL     1     -11.348   7.058  21.167  0.00  0.00    +0.210 HD
ENDBRANCH  10   1
BRANCH  12  18
ATOM     18  C   UNL     1     -11.988   9.294  19.099  0.00  0.00    +0.078 C 
ATOM     20  C   UNL     1     -11.675  10.020  20.409  0.00  0.00    +0.017 C 
BRANCH  18  21
ATOM      2  O   UNL     1     -12.497  11.472  18.243  0.00  0.00    -0.275 OA
ATOM      5  N   UNL     1     -12.235   9.808  16.656  0.00  0.00    -0.303 N 
ATOM     21  C   UNL     1     -12.256  10.291  17.969  0.00  0.00    +0.219 C 
ATOM     25  C   UNL     1     -12.509  10.729  15.556  0.00  0.00    +0.132 C 
BRANCH   5  24
ATOM     24  C   UNL     1     -11.924   8.441  16.245  0.00  0.00    +0.122 C 
BRANCH  24  26
ATOM     26  C   UNL     1     -10.481   8.287  15.780  0.00  0.00    +0.137 C 
BRANCH  26  32
ATOM      6  N   UNL     1     -10.334   7.594  13.246  0.00  0.00    -0.197 NA
ATOM     32  C   UNL     1     -10.400   7.901  14.363  0.00  0.00    +0.064 C 
ENDBRANCH  26  32
ENDBRANCH  24  26
ENDBRANCH   5  24
ENDBRANCH  18  21
ENDBRANCH  12  18
TORSDOF 8
ENDMDL
MODEL 6
REMARK VINA RESULT:      -6.0      2.985     10.227
REMARK  Name = 45361403
REMARK  12 active torsions:
REMARK  status: ('A' for Active; 'I' for Inactive)
REMARK    1  A    between atoms: O_1  and  C_10
REMARK    2  A    between atoms: N_4  and  C_14
REMARK    3  A    between atoms: N_5  and  C_24
REMARK    4  A    between atoms: N_5  and  C_25
REMARK    5  A    between atoms: C_7  and  C_17
REMARK    6  A    between atoms: C_9  and  C_19
REMARK    7  A    between atoms: C_12  and  C_18
REMARK    8  A    between atoms: C_18  and  C_20
REMARK    9  A    between atoms: C_18  and  C_21
REMARK   10  A    between atoms: C_22  and  C_23
REMARK   11  A    between atoms: C_24  and  C_26
REMARK   12  A    between atoms: C_26  and  C_32
REMARK                            x       y       z     vdW  Elec       q    Type
REMARK                         _______ _______ _______ _____ _____    ______ ____
ROOT
ATOM      7  C   UNL     1     -10.149  -9.943  17.683  0.00  0.00    -0.027 C 
ATOM      8  C   UNL     1      -9.390 -10.985  18.568  0.00  0.00    +0.028 C 
ATOM      9  C   UNL     1      -8.103 -11.511  17.836  0.00  0.00    +0.012 C 
ATOM     10  C   UNL     1     -10.354 -12.087  19.095  0.00  0.00    +0.122 C 
ATOM     11  C   UNL     1     -11.344  -9.364  18.476  0.00  0.00    +0.007 C 
ATOM     12  C   UNL     1     -11.601 -11.499  19.799  0.00  0.00    +0.029 C 
ATOM     13  C   UNL     1      -9.194  -8.773  17.350  0.00  0.00    +0.009 C 
ATOM     14  C   UNL     1      -7.185 -10.319  17.439  0.00  0.00    +0.076 C 
ATOM     15  C   UNL     1     -12.312 -10.436  18.961  0.00  0.00    +0.007 C 
ATOM     16  C   UNL     1      -7.915  -9.224  16.661  0.00  0.00    +0.023 C 
ATOM     17  C   UNL     1     -10.680 -10.559  16.363  0.00  0.00    +0.011 C 
ATOM     19  C   UNL     1      -7.291 -12.519  18.664  0.00  0.00    +0.010 C 
ENDROOT
BRANCH  14   4
ATOM      3  O   UNL     1      -4.465 -10.508  18.337  0.00  0.00    -0.270 OA
ATOM      4  N   UNL     1      -6.047 -10.756  16.660  0.00  0.00    -0.308 N 
ATOM     22  C   UNL     1      -4.767 -10.812  17.186  0.00  0.00    +0.244 C 
ATOM     33  H   UNL     1      -6.202 -10.912  15.670  0.00  0.00    +0.149 HD
BRANCH  22  23
ATOM     23  C   UNL     1      -3.703 -11.256  16.250  0.00  0.00    +0.037 A 
ATOM     27  C   UNL     1      -3.961 -12.275  15.333  0.00  0.00    +0.013 A 
ATOM     28  C   UNL     1      -2.446 -10.654  16.287  0.00  0.00    +0.013 A 
ATOM     29  C   UNL     1      -2.963 -12.691  14.453  0.00  0.00    +0.001 A 
ATOM     30  C   UNL     1      -1.446 -11.070  15.407  0.00  0.00    +0.001 A 
ATOM     31  C   UNL     1      -1.706 -12.089  14.490  0.00  0.00    +0.000 A 
ENDBRANCH  22  23
ENDBRANCH  14   4
BRANCH  10   1
ATOM      1  O   UNL     1      -9.679 -12.888  20.066  0.00  0.00    -0.391 OA
ATOM     34  H   UNL     1      -8.800 -12.503  20.217  0.00  0.00    +0.210 HD
ENDBRANCH  10   1
BRANCH  12  18
ATOM     18  C   UNL     1     -12.600 -12.593  20.193  0.00  0.00    +0.078 C 
ATOM     20  C   UNL     1     -13.699 -12.686  19.133  0.00  0.00    +0.017 C 
BRANCH  18  21
ATOM      2  O   UNL     1     -13.794 -11.220  21.750  0.00  0.00    -0.275 OA
ATOM      5  N   UNL     1     -12.999 -13.224  22.589  0.00  0.00    -0.303 N 
ATOM     21  C   UNL     1     -13.190 -12.283  21.571  0.00  0.00    +0.219 C 
ATOM     25  C   UNL     1     -13.529 -12.949  23.920  0.00  0.00    +0.132 C 
BRANCH   5  24
ATOM     24  C   UNL     1     -12.331 -14.517  22.453  0.00  0.00    +0.122 C 
BRANCH  24  26
ATOM     26  C   UNL     1     -11.156 -14.669  23.410  0.00  0.00    +0.137 C 
BRANCH  26  32
ATOM      6  N   UNL     1      -8.902 -15.133  22.133  0.00  0.00    -0.197 NA
ATOM     32  C   UNL     1      -9.897 -14.929  22.696  0.00  0.00    +0.064 C 
ENDBRANCH  26  32
ENDBRANCH  24  26
ENDBRANCH   5  24
ENDBRANCH  18  21
ENDBRANCH  12  18
TORSDOF 8
ENDMDL
MODEL 7
REMARK VINA RESULT:      -6.0     24.716     28.402
REMARK  Name = 45361403
REMARK  12 active torsions:
REMARK  status: ('A' for Active; 'I' for Inactive)
REMARK    1  A    between atoms: O_1  and  C_10
REMARK    2  A    between atoms: N_4  and  C_14
REMARK    3  A    between atoms: N_5  and  C_24
REMARK    4  A    between atoms: N_5  and  C_25
REMARK    5  A    between atoms: C_7  and  C_17
REMARK    6  A    between atoms: C_9  and  C_19
REMARK    7  A    between atoms: C_12  and  C_18
REMARK    8  A    between atoms: C_18  and  C_20
REMARK    9  A    between atoms: C_18  and  C_21
REMARK   10  A    between atoms: C_22  and  C_23
REMARK   11  A    between atoms: C_24  and  C_26
REMARK   12  A    between atoms: C_26  and  C_32
REMARK                            x       y       z     vdW  Elec       q    Type
REMARK                         _______ _______ _______ _____ _____    ______ ____
ROOT
ATOM      7  C   UNL     1      13.452   4.934   0.640  0.00  0.00    -0.027 C 
ATOM      8  C   UNL     1      11.893   5.004   0.527  0.00  0.00    +0.028 C 
ATOM      9  C   UNL     1      11.221   4.801   1.932  0.00  0.00    +0.012 C 
ATOM     10  C   UNL     1      11.367   4.076  -0.605  0.00  0.00    +0.122 C 
ATOM     11  C   UNL     1      14.084   5.250  -0.736  0.00  0.00    +0.007 C 
ATOM     12  C   UNL     1      12.077   4.326  -1.957  0.00  0.00    +0.029 C 
ATOM     13  C   UNL     1      13.934   6.013   1.637  0.00  0.00    +0.009 C 
ATOM     14  C   UNL     1      11.770   5.844   2.948  0.00  0.00    +0.076 C 
ATOM     15  C   UNL     1      13.602   4.318  -1.840  0.00  0.00    +0.007 C 
ATOM     16  C   UNL     1      13.296   5.884   3.012  0.00  0.00    +0.023 C 
ATOM     17  C   UNL     1      13.953   3.545   1.110  0.00  0.00    +0.011 C 
ATOM     19  C   UNL     1       9.686   4.888   1.900  0.00  0.00    +0.010 C 
ENDROOT
BRANCH  14   4
ATOM      3  O   UNL     1      10.133   7.630   4.489  0.00  0.00    -0.270 OA
ATOM      4  N   UNL     1      11.258   5.613   4.282  0.00  0.00    -0.308 N 
ATOM     22  C   UNL     1      10.474   6.542   4.945  0.00  0.00    +0.244 C 
ATOM     33  H   UNL     1      11.595   4.786   4.764  0.00  0.00    +0.149 HD
BRANCH  22  23
ATOM     23  C   UNL     1      10.051   6.166   6.318  0.00  0.00    +0.037 A 
ATOM     27  C   UNL     1      10.188   4.848   6.755  0.00  0.00    +0.013 A 
ATOM     28  C   UNL     1       9.519   7.131   7.173  0.00  0.00    +0.013 A 
ATOM     29  C   UNL     1       9.792   4.495   8.045  0.00  0.00    +0.001 A 
ATOM     30  C   UNL     1       9.123   6.779   8.464  0.00  0.00    +0.001 A 
ATOM     31  C   UNL     1       9.260   5.460   8.898  0.00  0.00    +0.000 A 
ENDBRANCH  22  23
ENDBRANCH  14   4
BRANCH  10   1
ATOM      1  O   UNL     1       9.979   4.327  -0.822  0.00  0.00    -0.391 OA
ATOM     34  H   UNL     1       9.591   3.541  -1.242  0.00  0.00    +0.210 HD
ENDBRANCH  10   1
BRANCH  12  18
ATOM     18  C   UNL     1      11.640   3.315  -3.024  0.00  0.00    +0.078 C 
ATOM     20  C   UNL     1      12.614   2.136  -3.040  0.00  0.00    +0.017 C 
BRANCH  18  21
ATOM      2  O   UNL     1      12.634   4.268  -4.983  0.00  0.00    -0.275 OA
ATOM      5  N   UNL     1      10.322   4.312  -4.912  0.00  0.00    -0.303 N 
ATOM     21  C   UNL     1      11.582   3.999  -4.393  0.00  0.00    +0.219 C 
ATOM     25  C   UNL     1      10.233   4.984  -6.205  0.00  0.00    +0.132 C 
BRANCH   5  24
ATOM     24  C   UNL     1       9.034   3.997  -4.298  0.00  0.00    +0.122 C 
BRANCH  24  26
ATOM     26  C   UNL     1       8.130   5.218  -4.182  0.00  0.00    +0.137 C 
BRANCH  26  32
ATOM      6  N   UNL     1       8.927   6.848  -2.276  0.00  0.00    -0.197 NA
ATOM     32  C   UNL     1       8.576   6.131  -3.117  0.00  0.00    +0.064 C 
ENDBRANCH  26  32
ENDBRANCH  24  26
ENDBRANCH   5  24
ENDBRANCH  18  21
ENDBRANCH  12  18
TORSDOF 8
ENDMDL
MODEL 8
REMARK VINA RESULT:      -5.9     12.930     19.765
REMARK  Name = 45361403
REMARK  12 active torsions:
REMARK  status: ('A' for Active; 'I' for Inactive)
REMARK    1  A    between atoms: O_1  and  C_10
REMARK    2  A    between atoms: N_4  and  C_14
REMARK    3  A    between atoms: N_5  and  C_24
REMARK    4  A    between atoms: N_5  and  C_25
REMARK    5  A    between atoms: C_7  and  C_17
REMARK    6  A    between atoms: C_9  and  C_19
REMARK    7  A    between atoms: C_12  and  C_18
REMARK    8  A    between atoms: C_18  and  C_20
REMARK    9  A    between atoms: C_18  and  C_21
REMARK   10  A    between atoms: C_22  and  C_23
REMARK   11  A    between atoms: C_24  and  C_26
REMARK   12  A    between atoms: C_26  and  C_32
REMARK                            x       y       z     vdW  Elec       q    Type
REMARK                         _______ _______ _______ _____ _____    ______ ____
ROOT
ATOM      7  C   UNL     1       1.736 -15.242   1.055  0.00  0.00    -0.027 C 
ATOM      8  C   UNL     1       0.291 -14.833   0.618  0.00  0.00    +0.028 C 
ATOM      9  C   UNL     1       0.324 -13.990  -0.707  0.00  0.00    +0.012 C 
ATOM     10  C   UNL     1      -0.495 -14.192   1.798  0.00  0.00    +0.122 C 
ATOM     11  C   UNL     1       1.660 -16.164   2.295  0.00  0.00    +0.007 C 
ATOM     12  C   UNL     1      -0.481 -15.072   3.070  0.00  0.00    +0.029 C 
ATOM     13  C   UNL     1       2.400 -16.046  -0.088  0.00  0.00    +0.009 C 
ATOM     14  C   UNL     1       1.061 -14.777  -1.828  0.00  0.00    +0.076 C 
ATOM     15  C   UNL     1       0.925 -15.524   3.466  0.00  0.00    +0.007 C 
ATOM     16  C   UNL     1       2.438 -15.289  -1.407  0.00  0.00    +0.023 C 
ATOM     17  C   UNL     1       2.622 -14.018   1.399  0.00  0.00    +0.011 C 
ATOM     19  C   UNL     1      -1.068 -13.578  -1.211  0.00  0.00    +0.010 C 
ENDROOT
BRANCH  14   4
ATOM      3  O   UNL     1       0.389 -15.573  -4.504  0.00  0.00    -0.270 OA
ATOM      4  N   UNL     1       1.212 -13.984  -3.029  0.00  0.00    -0.308 N 
ATOM     22  C   UNL     1       0.859 -14.460  -4.280  0.00  0.00    +0.244 C 
ATOM     33  H   UNL     1       1.700 -13.099  -2.935  0.00  0.00    +0.149 HD
BRANCH  22  23
ATOM     23  C   UNL     1       1.101 -13.534  -5.416  0.00  0.00    +0.037 A 
ATOM     27  C   UNL     1       0.151 -13.409  -6.430  0.00  0.00    +0.013 A 
ATOM     28  C   UNL     1       2.277 -12.787  -5.468  0.00  0.00    +0.013 A 
ATOM     29  C   UNL     1       0.378 -12.538  -7.495  0.00  0.00    +0.001 A 
ATOM     30  C   UNL     1       2.505 -11.915  -6.533  0.00  0.00    +0.001 A 
ATOM     31  C   UNL     1       1.555 -11.792  -7.546  0.00  0.00    +0.000 A 
ENDBRANCH  22  23
ENDBRANCH  14   4
BRANCH  10   1
ATOM      1  O   UNL     1      -1.865 -14.032   1.428  0.00  0.00    -0.391 OA
ATOM     34  H   UNL     1      -1.916 -13.338   0.750  0.00  0.00    +0.210 HD
ENDBRANCH  10   1
BRANCH  12  18
ATOM     18  C   UNL     1      -1.146 -14.366   4.257  0.00  0.00    +0.078 C 
ATOM     20  C   UNL     1      -0.148 -14.262   5.413  0.00  0.00    +0.017 C 
BRANCH  18  21
ATOM      2  O   UNL     1      -2.429 -16.365   4.562  0.00  0.00    -0.275 OA
ATOM      5  N   UNL     1      -3.481 -14.397   5.174  0.00  0.00    -0.303 N 
ATOM     21  C   UNL     1      -2.400 -15.135   4.681  0.00  0.00    +0.219 C 
ATOM     25  C   UNL     1      -4.700 -15.097   5.566  0.00  0.00    +0.132 C 
BRANCH   5  24
ATOM     24  C   UNL     1      -3.515 -12.951   5.381  0.00  0.00    +0.122 C 
BRANCH  24  26
ATOM     26  C   UNL     1      -4.651 -12.280   4.618  0.00  0.00    +0.137 C 
BRANCH  26  32
ATOM      6  N   UNL     1      -4.489 -12.724   2.030  0.00  0.00    -0.197 NA
ATOM     32  C   UNL     1      -4.562 -12.529   3.171  0.00  0.00    +0.064 C 
ENDBRANCH  26  32
ENDBRANCH  24  26
ENDBRANCH   5  24
ENDBRANCH  18  21
ENDBRANCH  12  18
TORSDOF 8
ENDMDL
MODEL 9
REMARK VINA RESULT:      -5.9     25.889     27.722
REMARK  Name = 45361403
REMARK  12 active torsions:
REMARK  status: ('A' for Active; 'I' for Inactive)
REMARK    1  A    between atoms: O_1  and  C_10
REMARK    2  A    between atoms: N_4  and  C_14
REMARK    3  A    between atoms: N_5  and  C_24
REMARK    4  A    between atoms: N_5  and  C_25
REMARK    5  A    between atoms: C_7  and  C_17
REMARK    6  A    between atoms: C_9  and  C_19
REMARK    7  A    between atoms: C_12  and  C_18
REMARK    8  A    between atoms: C_18  and  C_20
REMARK    9  A    between atoms: C_18  and  C_21
REMARK   10  A    between atoms: C_22  and  C_23
REMARK   11  A    between atoms: C_24  and  C_26
REMARK   12  A    between atoms: C_26  and  C_32
REMARK                            x       y       z     vdW  Elec       q    Type
REMARK                         _______ _______ _______ _____ _____    ______ ____
ROOT
ATOM      7  C   UNL     1       9.443   7.084   4.917  0.00  0.00    -0.027 C 
ATOM      8  C   UNL     1       9.317   7.696   3.483  0.00  0.00    +0.028 C 
ATOM      9  C   UNL     1       7.917   8.380   3.286  0.00  0.00    +0.012 C 
ATOM     10  C   UNL     1       9.713   6.660   2.391  0.00  0.00    +0.122 C 
ATOM     11  C   UNL     1      10.869   6.520   5.116  0.00  0.00    +0.007 C 
ATOM     12  C   UNL     1      11.098   6.022   2.651  0.00  0.00    +0.029 C 
ATOM     13  C   UNL     1       9.230   8.203   5.963  0.00  0.00    +0.009 C 
ATOM     14  C   UNL     1       7.682   9.451   4.389  0.00  0.00    +0.076 C 
ATOM     15  C   UNL     1      11.246   5.476   4.072  0.00  0.00    +0.007 C 
ATOM     16  C   UNL     1       7.898   8.922   5.806  0.00  0.00    +0.023 C 
ATOM     17  C   UNL     1       8.419   5.948   5.170  0.00  0.00    +0.011 C 
ATOM     19  C   UNL     1       7.737   9.029   1.904  0.00  0.00    +0.010 C 
ENDROOT
BRANCH  14   4
ATOM      3  O   UNL     1       6.954  12.183   4.893  0.00  0.00    -0.270 OA
ATOM      4  N   UNL     1       6.353  10.021   4.308  0.00  0.00    -0.308 N 
ATOM     22  C   UNL     1       6.104  11.357   4.573  0.00  0.00    +0.244 C 
ATOM     33  H   UNL     1       5.586   9.374   4.161  0.00  0.00    +0.149 HD
BRANCH  22  23
ATOM     23  C   UNL     1       4.683  11.780   4.472  0.00  0.00    +0.037 A 
ATOM     27  C   UNL     1       3.964  11.538   3.302  0.00  0.00    +0.013 A 
ATOM     28  C   UNL     1       4.068  12.418   5.548  0.00  0.00    +0.013 A 
ATOM     29  C   UNL     1       2.630  11.934   3.208  0.00  0.00    +0.001 A 
ATOM     30  C   UNL     1       2.733  12.815   5.455  0.00  0.00    +0.001 A 
ATOM     31  C   UNL     1       2.016  12.572   4.284  0.00  0.00    +0.000 A 
ENDBRANCH  22  23
ENDBRANCH  14   4
BRANCH  10   1
ATOM      1  O   UNL     1       9.796   7.311   1.123  0.00  0.00    -0.391 OA
ATOM     34  H   UNL     1       8.975   7.813   0.986  0.00  0.00    +0.210 HD
ENDBRANCH  10   1
BRANCH  12  18
ATOM     18  C   UNL     1      11.412   4.912   1.641  0.00  0.00    +0.078 C 
ATOM     20  C   UNL     1      11.487   3.568   2.367  0.00  0.00    +0.017 C 
BRANCH  18  21
ATOM      2  O   UNL     1      13.678   5.682   1.564  0.00  0.00    -0.275 OA
ATOM      5  N   UNL     1      12.789   4.986  -0.455  0.00  0.00    -0.303 N 
ATOM     21  C   UNL     1      12.728   5.222   0.922  0.00  0.00    +0.219 C 
ATOM     25  C   UNL     1      14.022   5.292  -1.175  0.00  0.00    +0.132 C 
BRANCH   5  24
ATOM     24  C   UNL     1      11.727   4.413  -1.280  0.00  0.00    +0.122 C 
BRANCH  24  26
ATOM     26  C   UNL     1      12.156   3.122  -1.967  0.00  0.00    +0.137 C 
BRANCH  26  32
ATOM      6  N   UNL     1      10.091   1.743  -2.837  0.00  0.00    -0.197 NA
ATOM     32  C   UNL     1      11.002   2.350  -2.452  0.00  0.00    +0.064 C 
ENDBRANCH  26  32
ENDBRANCH  24  26
ENDBRANCH   5  24
ENDBRANCH  18  21
ENDBRANCH  12  18
TORSDOF 8
ENDMDL
MODEL 10
REMARK VINA RESULT:      -5.8     18.305     20.032
REMARK  Name = 45361403
REMARK  12 active torsions:
REMARK  status: ('A' for Active; 'I' for Inactive)
REMARK    1  A    between atoms: O_1  and  C_10
REMARK    2  A    between atoms: N_4  and  C_14
REMARK    3  A    between atoms: N_5  and  C_24
REMARK    4  A    between atoms: N_5  and  C_25
REMARK    5  A    between atoms: C_7  and  C_17
REMARK    6  A    between atoms: C_9  and  C_19
REMARK    7  A    between atoms: C_12  and  C_18
REMARK    8  A    between atoms: C_18  and  C_20
REMARK    9  A    between atoms: C_18  and  C_21
REMARK   10  A    between atoms: C_22  and  C_23
REMARK   11  A    between atoms: C_24  and  C_26
REMARK   12  A    between atoms: C_26  and  C_32
REMARK                            x       y       z     vdW  Elec       q    Type
REMARK                         _______ _______ _______ _____ _____    ______ ____
ROOT
ATOM      7  C   UNL     1     -15.267   7.788  21.979  0.00  0.00    -0.027 C 
ATOM      8  C   UNL     1     -14.292   6.566  21.914  0.00  0.00    +0.028 C 
ATOM      9  C   UNL     1     -14.339   5.741  23.249  0.00  0.00    +0.012 C 
ATOM     10  C   UNL     1     -12.873   7.001  21.447  0.00  0.00    +0.122 C 
ATOM     11  C   UNL     1     -15.281   8.511  20.612  0.00  0.00    +0.007 C 
ATOM     12  C   UNL     1     -12.903   7.815  20.131  0.00  0.00    +0.029 C 
ATOM     13  C   UNL     1     -16.700   7.275  22.254  0.00  0.00    +0.009 C 
ATOM     14  C   UNL     1     -15.797   5.294  23.556  0.00  0.00    +0.076 C 
ATOM     15  C   UNL     1     -13.899   8.974  20.170  0.00  0.00    +0.007 C 
ATOM     16  C   UNL     1     -16.803   6.445  23.525  0.00  0.00    +0.023 C 
ATOM     17  C   UNL     1     -14.870   8.807  23.077  0.00  0.00    +0.011 C 
ATOM     19  C   UNL     1     -13.424   4.505  23.242  0.00  0.00    +0.010 C 
ENDROOT
BRANCH  14   4
ATOM      3  O   UNL     1     -16.401   2.524  24.010  0.00  0.00    -0.270 OA
ATOM      4  N   UNL     1     -15.896   4.631  24.838  0.00  0.00    -0.308 N 
ATOM     22  C   UNL     1     -16.195   3.283  24.953  0.00  0.00    +0.244 C 
ATOM     33  H   UNL     1     -15.852   5.220  25.663  0.00  0.00    +0.149 HD
BRANCH  22  23
ATOM     23  C   UNL     1     -16.287   2.759  26.340  0.00  0.00    +0.037 A 
ATOM     27  C   UNL     1     -15.991   3.590  27.421  0.00  0.00    +0.013 A 
ATOM     28  C   UNL     1     -16.669   1.437  26.562  0.00  0.00    +0.013 A 
ATOM     29  C   UNL     1     -16.077   3.098  28.723  0.00  0.00    +0.001 A 
ATOM     30  C   UNL     1     -16.757   0.944  27.864  0.00  0.00    +0.001 A 
ATOM     31  C   UNL     1     -16.460   1.775  28.944  0.00  0.00    +0.000 A 
ENDBRANCH  22  23
ENDBRANCH  14   4
BRANCH  10   1
ATOM      1  O   UNL     1     -12.078   5.843  21.192  0.00  0.00    -0.391 OA
ATOM     34  H   UNL     1     -12.091   5.285  21.988  0.00  0.00    +0.210 HD
ENDBRANCH  10   1
BRANCH  12  18
ATOM     18  C   UNL     1     -11.513   8.345  19.759  0.00  0.00    +0.078 C 
ATOM     20  C   UNL     1     -11.542   9.874  19.729  0.00  0.00    +0.017 C 
BRANCH  18  21
ATOM      2  O   UNL     1     -10.893   6.562  18.286  0.00  0.00    -0.275 OA
ATOM      5  N   UNL     1     -10.915   8.676  17.345  0.00  0.00    -0.303 N 
ATOM     21  C   UNL     1     -11.088   7.777  18.403  0.00  0.00    +0.219 C 
ATOM     25  C   UNL     1     -10.488   8.169  16.044  0.00  0.00    +0.132 C 
BRANCH   5  24
ATOM     24  C   UNL     1     -11.158  10.116  17.389  0.00  0.00    +0.122 C 
BRANCH  24  26
ATOM     26  C   UNL     1     -10.532  10.848  16.209  0.00  0.00    +0.137 C 
BRANCH  26  32
ATOM      6  N   UNL     1      -8.886  12.746  16.992  0.00  0.00    -0.197 NA
ATOM     32  C   UNL     1      -9.612  11.910  16.648  0.00  0.00    +0.064 C 
ENDBRANCH  26  32
ENDBRANCH  24  26
ENDBRANCH   5  24
ENDBRANCH  18  21
ENDBRANCH  12  18
TORSDOF 8
ENDMDL
