MODEL 1
REMARK VINA RESULT:      -6.9      0.000      0.000
REMARK  Name = 45783344
REMARK  9 active torsions:
REMARK  status: ('A' for Active; 'I' for Inactive)
REMARK    1  A    between atoms: O_2  and  C_24
REMARK    2  A    between atoms: O_2  and  C_26
REMARK    3  A    between atoms: O_3  and  C_27
REMARK    4  A    between atoms: O_3  and  C_28
REMARK    5  A    between atoms: N_4  and  C_9
REMARK    6  A    between atoms: C_8  and  C_9
REMARK    7  A    between atoms: C_10  and  C_19
REMARK    8  A    between atoms: C_20  and  C_21
REMARK    9  A    between atoms: C_26  and  C_27
REMARK                            x       y       z     vdW  Elec       q    Type
REMARK                         _______ _______ _______ _____ _____    ______ ____
ROOT
ATOM      1  O   UNL     1      18.030   5.688  19.415  0.00  0.00    -0.336 OA
ATOM      5  N   UNL     1      16.712   7.112  20.533  0.00  0.00    -0.190 NA
ATOM      6  N   UNL     1      16.811   5.715  18.724  0.00  0.00    -0.056 NA
ATOM     19  C   UNL     1      17.886   6.537  20.465  0.00  0.00    +0.245 A 
ATOM     20  C   UNL     1      16.087   6.577  19.444  0.00  0.00    +0.202 A 
ENDROOT
BRANCH  20  21
ATOM      7  N   UNL     1      12.108   7.599  18.440  0.00  0.00    -0.221 NA
ATOM     21  C   UNL     1      14.737   6.923  19.104  0.00  0.00    +0.029 A 
ATOM     22  C   UNL     1      13.710   6.713  20.018  0.00  0.00    +0.079 A 
ATOM     23  C   UNL     1      14.450   7.470  17.859  0.00  0.00    +0.031 A 
ATOM     24  C   UNL     1      12.425   7.064  19.641  0.00  0.00    +0.215 A 
ATOM     25  C   UNL     1      13.131   7.787  17.578  0.00  0.00    +0.115 A 
BRANCH  24   2
ATOM      2  O   UNL     1      11.396   6.869  20.525  0.00  0.00    -0.474 OA
BRANCH   2  26
ATOM     26  C   UNL     1      11.483   7.554  21.769  0.00  0.00    +0.258 C 
BRANCH  26  27
ATOM     27  C   UNL     1      11.075   9.001  21.567  0.00  0.00    +0.200 C 
BRANCH  27   3
ATOM      3  O   UNL     1      10.467   9.482  22.759  0.00  0.00    -0.380 OA
ATOM     28  C   UNL     1      11.004  10.739  23.146  0.00  0.00    +0.194 C 
ENDBRANCH  27   3
ENDBRANCH  26  27
ENDBRANCH   2  26
ENDBRANCH  24   2
ENDBRANCH  20  21
BRANCH  19  10
ATOM      4  N   UNL     1      20.366   6.550  20.665  0.00  0.00    -0.291 NA
ATOM     10  C   UNL     1      19.083   6.688  21.381  0.00  0.00    +0.146 C 
ATOM     13  C   UNL     1      21.337   7.365  21.395  0.00  0.00    +0.085 C 
ATOM     14  C   UNL     1      19.152   8.075  22.046  0.00  0.00    +0.030 C 
ATOM     15  C   UNL     1      20.533   8.614  21.698  0.00  0.00    +0.017 C 
BRANCH   4   9
ATOM      9  C   UNL     1      20.804   5.166  20.530  0.00  0.00    +0.088 C 
BRANCH   9   8
ATOM      8  C   UNL     1      22.076   4.917  21.338  0.00  0.00    +0.003 C 
ATOM     11  C   UNL     1      21.889   3.726  22.288  0.00  0.00    +0.005 C 
ATOM     12  C   UNL     1      23.273   4.689  20.405  0.00  0.00    +0.005 C 
ATOM     16  C   UNL     1      23.165   3.422  23.069  0.00  0.00    +0.000 C 
ATOM     17  C   UNL     1      24.548   4.383  21.190  0.00  0.00    +0.000 C 
ATOM     18  C   UNL     1      24.356   3.205  22.140  0.00  0.00    +0.000 C 
ENDBRANCH   9   8
ENDBRANCH   4   9
ENDBRANCH  19  10
TORSDOF 8
ENDMDL
MODEL 2
REMARK VINA RESULT:      -6.7     30.265     33.629
REMARK  Name = 45783344
REMARK  9 active torsions:
REMARK  status: ('A' for Active; 'I' for Inactive)
REMARK    1  A    between atoms: O_2  and  C_24
REMARK    2  A    between atoms: O_2  and  C_26
REMARK    3  A    between atoms: O_3  and  C_27
REMARK    4  A    between atoms: O_3  and  C_28
REMARK    5  A    between atoms: N_4  and  C_9
REMARK    6  A    between atoms: C_8  and  C_9
REMARK    7  A    between atoms: C_10  and  C_19
REMARK    8  A    between atoms: C_20  and  C_21
REMARK    9  A    between atoms: C_26  and  C_27
REMARK                            x       y       z     vdW  Elec       q    Type
REMARK                         _______ _______ _______ _____ _____    ______ ____
ROOT
ATOM      1  O   UNL     1     -16.364   2.837  23.068  0.00  0.00    -0.336 OA
ATOM      5  N   UNL     1     -16.564   4.146  24.874  0.00  0.00    -0.190 NA
ATOM      6  N   UNL     1     -16.443   1.974  24.169  0.00  0.00    -0.056 NA
ATOM     19  C   UNL     1     -16.443   4.097  23.572  0.00  0.00    +0.245 A 
ATOM     20  C   UNL     1     -16.560   2.820  25.196  0.00  0.00    +0.202 A 
ENDROOT
BRANCH  20  21
ATOM      7  N   UNL     1     -16.894   1.504  29.201  0.00  0.00    -0.221 NA
ATOM     21  C   UNL     1     -16.673   2.374  26.554  0.00  0.00    +0.029 A 
ATOM     22  C   UNL     1     -15.829   2.891  27.532  0.00  0.00    +0.079 A 
ATOM     23  C   UNL     1     -17.626   1.423  26.899  0.00  0.00    +0.031 A 
ATOM     24  C   UNL     1     -15.979   2.428  28.828  0.00  0.00    +0.215 A 
ATOM     25  C   UNL     1     -17.694   1.024  28.225  0.00  0.00    +0.115 A 
BRANCH  24   2
ATOM      2  O   UNL     1     -15.160   2.923  29.809  0.00  0.00    -0.474 OA
BRANCH   2  26
ATOM     26  C   UNL     1     -14.084   2.091  30.226  0.00  0.00    +0.258 C 
BRANCH  26  27
ATOM     27  C   UNL     1     -14.511   1.307  31.453  0.00  0.00    +0.200 C 
BRANCH  27   3
ATOM      3  O   UNL     1     -14.402  -0.084  31.174  0.00  0.00    -0.380 OA
ATOM     28  C   UNL     1     -13.753  -0.317  29.933  0.00  0.00    +0.194 C 
ENDBRANCH  27   3
ENDBRANCH  26  27
ENDBRANCH   2  26
ENDBRANCH  24   2
ENDBRANCH  20  21
BRANCH  19  10
ATOM      4  N   UNL     1     -15.289   5.060  21.589  0.00  0.00    -0.291 NA
ATOM     10  C   UNL     1     -16.379   5.229  22.569  0.00  0.00    +0.146 C 
ATOM     13  C   UNL     1     -15.731   5.722  20.361  0.00  0.00    +0.085 C 
ATOM     14  C   UNL     1     -17.657   5.343  21.718  0.00  0.00    +0.030 C 
ATOM     15  C   UNL     1     -17.180   5.287  20.274  0.00  0.00    +0.017 C 
BRANCH   4   9
ATOM      9  C   UNL     1     -14.008   5.574  22.058  0.00  0.00    +0.088 C 
BRANCH   9   8
ATOM      8  C   UNL     1     -13.525   6.722  21.175  0.00  0.00    +0.003 C 
ATOM     11  C   UNL     1     -13.808   8.075  21.842  0.00  0.00    +0.005 C 
ATOM     12  C   UNL     1     -12.031   6.571  20.858  0.00  0.00    +0.005 C 
ATOM     16  C   UNL     1     -13.286   9.238  21.003  0.00  0.00    +0.000 C 
ATOM     17  C   UNL     1     -11.513   7.738  20.020  0.00  0.00    +0.000 C 
ATOM     18  C   UNL     1     -11.803   9.081  20.682  0.00  0.00    +0.000 C 
ENDBRANCH   9   8
ENDBRANCH   4   9
ENDBRANCH  19  10
TORSDOF 8
ENDMDL
MODEL 3
REMARK VINA RESULT:      -6.4     26.330     29.446
REMARK  Name = 45783344
REMARK  9 active torsions:
REMARK  status: ('A' for Active; 'I' for Inactive)
REMARK    1  A    between atoms: O_2  and  C_24
REMARK    2  A    between atoms: O_2  and  C_26
REMARK    3  A    between atoms: O_3  and  C_27
REMARK    4  A    between atoms: O_3  and  C_28
REMARK    5  A    between atoms: N_4  and  C_9
REMARK    6  A    between atoms: C_8  and  C_9
REMARK    7  A    between atoms: C_10  and  C_19
REMARK    8  A    between atoms: C_20  and  C_21
REMARK    9  A    between atoms: C_26  and  C_27
REMARK                            x       y       z     vdW  Elec       q    Type
REMARK                         _______ _______ _______ _____ _____    ______ ____
ROOT
ATOM      1  O   UNL     1      -4.372 -13.044  15.120  0.00  0.00    -0.336 OA
ATOM      5  N   UNL     1      -4.455 -11.284  16.503  0.00  0.00    -0.190 NA
ATOM      6  N   UNL     1      -5.587 -13.148  15.811  0.00  0.00    -0.056 NA
ATOM     19  C   UNL     1      -3.769 -11.920  15.588  0.00  0.00    +0.245 A 
ATOM     20  C   UNL     1      -5.563 -12.075  16.606  0.00  0.00    +0.202 A 
ENDROOT
BRANCH  20  21
ATOM      7  N   UNL     1      -8.701 -11.162  19.291  0.00  0.00    -0.221 NA
ATOM     21  C   UNL     1      -6.628 -11.765  17.516  0.00  0.00    +0.029 A 
ATOM     22  C   UNL     1      -7.499 -10.717  17.241  0.00  0.00    +0.079 A 
ATOM     23  C   UNL     1      -6.792 -12.512  18.677  0.00  0.00    +0.031 A 
ATOM     24  C   UNL     1      -8.509 -10.458  18.152  0.00  0.00    +0.215 A 
ATOM     25  C   UNL     1      -7.835 -12.172  19.524  0.00  0.00    +0.115 A 
BRANCH  24   2
ATOM      2  O   UNL     1      -9.381  -9.431  17.903  0.00  0.00    -0.474 OA
BRANCH   2  26
ATOM     26  C   UNL     1      -8.965  -8.454  16.956  0.00  0.00    +0.258 C 
BRANCH  26  27
ATOM     27  C   UNL     1     -10.166  -8.007  16.144  0.00  0.00    +0.200 C 
BRANCH  27   3
ATOM      3  O   UNL     1     -10.953  -7.121  16.931  0.00  0.00    -0.380 OA
ATOM     28  C   UNL     1     -11.407  -6.012  16.168  0.00  0.00    +0.194 C 
ENDBRANCH  27   3
ENDBRANCH  26  27
ENDBRANCH   2  26
ENDBRANCH  24   2
ENDBRANCH  20  21
BRANCH  19  10
ATOM      4  N   UNL     1      -2.529 -10.732  13.787  0.00  0.00    -0.291 NA
ATOM     10  C   UNL     1      -2.420 -11.580  14.990  0.00  0.00    +0.146 C 
ATOM     13  C   UNL     1      -1.307  -9.929  13.734  0.00  0.00    +0.085 C 
ATOM     14  C   UNL     1      -1.527 -10.777  15.955  0.00  0.00    +0.030 C 
ATOM     15  C   UNL     1      -1.136  -9.524  15.184  0.00  0.00    +0.017 C 
BRANCH   4   9
ATOM      9  C   UNL     1      -2.736 -11.495  12.562  0.00  0.00    +0.088 C 
BRANCH   9   8
ATOM      8  C   UNL     1      -3.722 -10.784  11.638  0.00  0.00    +0.003 C 
ATOM     11  C   UNL     1      -4.777 -10.023  12.453  0.00  0.00    +0.005 C 
ATOM     12  C   UNL     1      -2.983  -9.838  10.683  0.00  0.00    +0.005 C 
ATOM     16  C   UNL     1      -5.743  -9.259  11.551  0.00  0.00    +0.000 C 
ATOM     17  C   UNL     1      -3.954  -9.073   9.784  0.00  0.00    +0.000 C 
ATOM     18  C   UNL     1      -5.005  -8.326  10.597  0.00  0.00    +0.000 C 
ENDBRANCH   9   8
ENDBRANCH   4   9
ENDBRANCH  19  10
TORSDOF 8
ENDMDL
MODEL 4
REMARK VINA RESULT:      -6.3     29.815     32.623
REMARK  Name = 45783344
REMARK  9 active torsions:
REMARK  status: ('A' for Active; 'I' for Inactive)
REMARK    1  A    between atoms: O_2  and  C_24
REMARK    2  A    between atoms: O_2  and  C_26
REMARK    3  A    between atoms: O_3  and  C_27
REMARK    4  A    between atoms: O_3  and  C_28
REMARK    5  A    between atoms: N_4  and  C_9
REMARK    6  A    between atoms: C_8  and  C_9
REMARK    7  A    between atoms: C_10  and  C_19
REMARK    8  A    between atoms: C_20  and  C_21
REMARK    9  A    between atoms: C_26  and  C_27
REMARK                            x       y       z     vdW  Elec       q    Type
REMARK                         _______ _______ _______ _____ _____    ______ ____
ROOT
ATOM      1  O   UNL     1     -12.648   9.761  33.590  0.00  0.00    -0.336 OA
ATOM      5  N   UNL     1     -12.436   7.941  32.301  0.00  0.00    -0.190 NA
ATOM      6  N   UNL     1     -13.300   8.722  34.269  0.00  0.00    -0.056 NA
ATOM     19  C   UNL     1     -12.169   9.215  32.441  0.00  0.00    +0.245 A 
ATOM     20  C   UNL     1     -13.131   7.683  33.447  0.00  0.00    +0.202 A 
ENDROOT
BRANCH  20  21
ATOM      7  N   UNL     1     -14.644   3.829  34.308  0.00  0.00    -0.221 NA
ATOM     21  C   UNL     1     -13.644   6.376  33.738  0.00  0.00    +0.029 A 
ATOM     22  C   UNL     1     -13.880   5.472  32.708  0.00  0.00    +0.079 A 
ATOM     23  C   UNL     1     -13.907   6.008  35.053  0.00  0.00    +0.031 A 
ATOM     24  C   UNL     1     -14.377   4.223  33.043  0.00  0.00    +0.215 A 
ATOM     25  C   UNL     1     -14.403   4.734  35.282  0.00  0.00    +0.115 A 
BRANCH  24   2
ATOM      2  O   UNL     1     -14.616   3.315  32.045  0.00  0.00    -0.474 OA
BRANCH   2  26
ATOM     26  C   UNL     1     -13.478   2.698  31.455  0.00  0.00    +0.258 C 
BRANCH  26  27
ATOM     27  C   UNL     1     -13.924   1.880  30.258  0.00  0.00    +0.200 C 
BRANCH  27   3
ATOM      3  O   UNL     1     -14.150   0.538  30.672  0.00  0.00    -0.380 OA
ATOM     28  C   UNL     1     -13.568  -0.390  29.768  0.00  0.00    +0.194 C 
ENDBRANCH  27   3
ENDBRANCH  26  27
ENDBRANCH   2  26
ENDBRANCH  24   2
ENDBRANCH  20  21
BRANCH  19  10
ATOM      4  N   UNL     1     -12.305  11.060  30.778  0.00  0.00    -0.291 NA
ATOM     10  C   UNL     1     -11.413  10.146  31.517  0.00  0.00    +0.146 C 
ATOM     13  C   UNL     1     -11.531  12.275  30.522  0.00  0.00    +0.085 C 
ATOM     14  C   UNL     1     -10.439  11.071  32.270  0.00  0.00    +0.030 C 
ATOM     15  C   UNL     1     -10.823  12.481  31.846  0.00  0.00    +0.017 C 
BRANCH   4   9
ATOM      9  C   UNL     1     -12.837  10.480  29.551  0.00  0.00    +0.088 C 
BRANCH   9   8
ATOM      8  C   UNL     1     -12.056  10.971  28.334  0.00  0.00    +0.003 C 
ATOM     11  C   UNL     1     -11.165   9.854  27.776  0.00  0.00    +0.005 C 
ATOM     12  C   UNL     1     -13.012  11.499  27.255  0.00  0.00    +0.005 C 
ATOM     16  C   UNL     1     -10.414  10.303  26.525  0.00  0.00    +0.000 C 
ATOM     17  C   UNL     1     -12.256  11.945  26.004  0.00  0.00    +0.000 C 
ATOM     18  C   UNL     1     -11.365  10.835  25.457  0.00  0.00    +0.000 C 
ENDBRANCH   9   8
ENDBRANCH   4   9
ENDBRANCH  19  10
TORSDOF 8
ENDMDL
MODEL 5
REMARK VINA RESULT:      -6.3     26.298     29.930
REMARK  Name = 45783344
REMARK  9 active torsions:
REMARK  status: ('A' for Active; 'I' for Inactive)
REMARK    1  A    between atoms: O_2  and  C_24
REMARK    2  A    between atoms: O_2  and  C_26
REMARK    3  A    between atoms: O_3  and  C_27
REMARK    4  A    between atoms: O_3  and  C_28
REMARK    5  A    between atoms: N_4  and  C_9
REMARK    6  A    between atoms: C_8  and  C_9
REMARK    7  A    between atoms: C_10  and  C_19
REMARK    8  A    between atoms: C_20  and  C_21
REMARK    9  A    between atoms: C_26  and  C_27
REMARK                            x       y       z     vdW  Elec       q    Type
REMARK                         _______ _______ _______ _____ _____    ______ ____
ROOT
ATOM      1  O   UNL     1      -5.073  -9.713  15.896  0.00  0.00    -0.336 OA
ATOM      5  N   UNL     1      -5.146 -11.639  17.037  0.00  0.00    -0.190 NA
ATOM      6  N   UNL     1      -6.233  -9.659  16.680  0.00  0.00    -0.056 NA
ATOM     19  C   UNL     1      -4.492 -10.912  16.166  0.00  0.00    +0.245 A 
ATOM     20  C   UNL     1      -6.206 -10.829  17.323  0.00  0.00    +0.202 A 
ENDROOT
BRANCH  20  21
ATOM      7  N   UNL     1      -9.200 -11.984  20.078  0.00  0.00    -0.221 NA
ATOM     21  C   UNL     1      -7.222 -11.220  18.257  0.00  0.00    +0.029 A 
ATOM     22  C   UNL     1      -8.389 -10.474  18.373  0.00  0.00    +0.079 A 
ATOM     23  C   UNL     1      -7.043 -12.348  19.050  0.00  0.00    +0.031 A 
ATOM     24  C   UNL     1      -9.339 -10.894  19.290  0.00  0.00    +0.215 A 
ATOM     25  C   UNL     1      -8.053 -12.684  19.938  0.00  0.00    +0.115 A 
BRANCH  24   2
ATOM      2  O   UNL     1     -10.499 -10.176  19.422  0.00  0.00    -0.474 OA
BRANCH   2  26
ATOM     26  C   UNL     1     -10.874  -9.359  18.319  0.00  0.00    +0.258 C 
BRANCH  26  27
ATOM     27  C   UNL     1     -12.341  -9.586  18.010  0.00  0.00    +0.200 C 
BRANCH  27   3
ATOM      3  O   UNL     1     -12.624  -9.090  16.708  0.00  0.00    -0.380 OA
ATOM     28  C   UNL     1     -11.969  -7.852  16.470  0.00  0.00    +0.194 C 
ENDBRANCH  27   3
ENDBRANCH  26  27
ENDBRANCH   2  26
ENDBRANCH  24   2
ENDBRANCH  20  21
BRANCH  19  10
ATOM      4  N   UNL     1      -3.056 -10.435  14.191  0.00  0.00    -0.291 NA
ATOM     10  C   UNL     1      -3.203 -11.218  15.434  0.00  0.00    +0.146 C 
ATOM     13  C   UNL     1      -1.619 -10.259  13.981  0.00  0.00    +0.085 C 
ATOM     14  C   UNL     1      -1.952 -10.874  16.263  0.00  0.00    +0.030 C 
ATOM     15  C   UNL     1      -1.134  -9.941  15.381  0.00  0.00    +0.017 C 
BRANCH   4   9
ATOM      9  C   UNL     1      -3.706 -11.053  13.042  0.00  0.00    +0.088 C 
BRANCH   9   8
ATOM      8  C   UNL     1      -4.081 -10.002  11.999  0.00  0.00    +0.003 C 
ATOM     11  C   UNL     1      -3.247 -10.185  10.723  0.00  0.00    +0.005 C 
ATOM     12  C   UNL     1      -5.582 -10.063  11.683  0.00  0.00    +0.005 C 
ATOM     16  C   UNL     1      -3.641  -9.179   9.644  0.00  0.00    +0.000 C 
ATOM     17  C   UNL     1      -5.971  -9.057  10.601  0.00  0.00    +0.000 C 
ATOM     18  C   UNL     1      -5.134  -9.236   9.339  0.00  0.00    +0.000 C 
ENDBRANCH   9   8
ENDBRANCH   4   9
ENDBRANCH  19  10
TORSDOF 8
ENDMDL
MODEL 6
REMARK VINA RESULT:      -6.1     16.169     19.995
REMARK  Name = 45783344
REMARK  9 active torsions:
REMARK  status: ('A' for Active; 'I' for Inactive)
REMARK    1  A    between atoms: O_2  and  C_24
REMARK    2  A    between atoms: O_2  and  C_26
REMARK    3  A    between atoms: O_3  and  C_27
REMARK    4  A    between atoms: O_3  and  C_28
REMARK    5  A    between atoms: N_4  and  C_9
REMARK    6  A    between atoms: C_8  and  C_9
REMARK    7  A    between atoms: C_10  and  C_19
REMARK    8  A    between atoms: C_20  and  C_21
REMARK    9  A    between atoms: C_26  and  C_27
REMARK                            x       y       z     vdW  Elec       q    Type
REMARK                         _______ _______ _______ _____ _____    ______ ____
ROOT
ATOM      1  O   UNL     1       9.484   6.675   3.452  0.00  0.00    -0.336 OA
ATOM      5  N   UNL     1      10.849   4.937   3.820  0.00  0.00    -0.190 NA
ATOM      6  N   UNL     1       9.952   6.274   2.194  0.00  0.00    -0.056 NA
ATOM     19  C   UNL     1      10.060   5.836   4.353  0.00  0.00    +0.245 A 
ATOM     20  C   UNL     1      10.750   5.245   2.493  0.00  0.00    +0.202 A 
ENDROOT
BRANCH  20  21
ATOM      7  N   UNL     1      12.858   3.063  -0.453  0.00  0.00    -0.221 NA
ATOM     21  C   UNL     1      11.465   4.505   1.493  0.00  0.00    +0.029 A 
ATOM     22  C   UNL     1      11.031   4.518   0.172  0.00  0.00    +0.079 A 
ATOM     23  C   UNL     1      12.593   3.772   1.842  0.00  0.00    +0.031 A 
ATOM     24  C   UNL     1      11.756   3.786  -0.755  0.00  0.00    +0.215 A 
ATOM     25  C   UNL     1      13.248   3.074   0.840  0.00  0.00    +0.115 A 
BRANCH  24   2
ATOM      2  O   UNL     1      11.349   3.784  -2.063  0.00  0.00    -0.474 OA
BRANCH   2  26
ATOM     26  C   UNL     1      11.161   2.512  -2.673  0.00  0.00    +0.258 C 
BRANCH  26  27
ATOM     27  C   UNL     1      10.082   2.625  -3.732  0.00  0.00    +0.200 C 
BRANCH  27   3
ATOM      3  O   UNL     1       9.091   3.544  -3.289  0.00  0.00    -0.380 OA
ATOM     28  C   UNL     1       8.739   4.463  -4.313  0.00  0.00    +0.194 C 
ENDBRANCH  27   3
ENDBRANCH  26  27
ENDBRANCH   2  26
ENDBRANCH  24   2
ENDBRANCH  20  21
BRANCH  19  10
ATOM      4  N   UNL     1      10.509   7.141   6.423  0.00  0.00    -0.291 NA
ATOM     10  C   UNL     1       9.710   6.063   5.808  0.00  0.00    +0.146 C 
ATOM     13  C   UNL     1       9.675   7.727   7.472  0.00  0.00    +0.085 C 
ATOM     14  C   UNL     1       8.246   6.499   6.006  0.00  0.00    +0.030 C 
ATOM     15  C   UNL     1       8.322   7.800   6.793  0.00  0.00    +0.017 C 
BRANCH   4   9
ATOM      9  C   UNL     1      11.794   6.683   6.936  0.00  0.00    +0.088 C 
BRANCH   9   8
ATOM      8  C   UNL     1      12.894   7.700   6.636  0.00  0.00    +0.003 C 
ATOM     11  C   UNL     1      14.273   7.027   6.655  0.00  0.00    +0.005 C 
ATOM     12  C   UNL     1      12.640   8.390   5.289  0.00  0.00    +0.005 C 
ATOM     16  C   UNL     1      15.385   8.013   6.305  0.00  0.00    +0.000 C 
ATOM     17  C   UNL     1      13.757   9.374   4.942  0.00  0.00    +0.000 C 
ATOM     18  C   UNL     1      15.126   8.704   4.970  0.00  0.00    +0.000 C 
ENDBRANCH   9   8
ENDBRANCH   4   9
ENDBRANCH  19  10
TORSDOF 8
ENDMDL
MODEL 7
REMARK VINA RESULT:      -6.1     30.634     33.949
REMARK  Name = 45783344
REMARK  9 active torsions:
REMARK  status: ('A' for Active; 'I' for Inactive)
REMARK    1  A    between atoms: O_2  and  C_24
REMARK    2  A    between atoms: O_2  and  C_26
REMARK    3  A    between atoms: O_3  and  C_27
REMARK    4  A    between atoms: O_3  and  C_28
REMARK    5  A    between atoms: N_4  and  C_9
REMARK    6  A    between atoms: C_8  and  C_9
REMARK    7  A    between atoms: C_10  and  C_19
REMARK    8  A    between atoms: C_20  and  C_21
REMARK    9  A    between atoms: C_26  and  C_27
REMARK                            x       y       z     vdW  Elec       q    Type
REMARK                         _______ _______ _______ _____ _____    ______ ____
ROOT
ATOM      1  O   UNL     1     -16.772   3.264  22.223  0.00  0.00    -0.336 OA
ATOM      5  N   UNL     1     -17.199   4.403  24.104  0.00  0.00    -0.190 NA
ATOM      6  N   UNL     1     -16.441   2.407  23.282  0.00  0.00    -0.056 NA
ATOM     19  C   UNL     1     -17.209   4.417  22.796  0.00  0.00    +0.245 A 
ATOM     20  C   UNL     1     -16.721   3.149  24.357  0.00  0.00    +0.202 A 
ENDROOT
BRANCH  20  21
ATOM      7  N   UNL     1     -16.167   1.736  28.304  0.00  0.00    -0.221 NA
ATOM     21  C   UNL     1     -16.533   2.671  25.696  0.00  0.00    +0.029 A 
ATOM     22  C   UNL     1     -16.028   3.518  26.676  0.00  0.00    +0.079 A 
ATOM     23  C   UNL     1     -16.855   1.357  26.018  0.00  0.00    +0.031 A 
ATOM     24  C   UNL     1     -15.865   3.006  27.953  0.00  0.00    +0.215 A 
ATOM     25  C   UNL     1     -16.654   0.943  27.325  0.00  0.00    +0.115 A 
BRANCH  24   2
ATOM      2  O   UNL     1     -15.371   3.822  28.937  0.00  0.00    -0.474 OA
BRANCH   2  26
ATOM     26  C   UNL     1     -14.729   3.184  30.035  0.00  0.00    +0.258 C 
BRANCH  26  27
ATOM     27  C   UNL     1     -14.873   4.056  31.268  0.00  0.00    +0.200 C 
BRANCH  27   3
ATOM      3  O   UNL     1     -15.266   3.243  32.367  0.00  0.00    -0.380 OA
ATOM     28  C   UNL     1     -16.329   3.836  33.098  0.00  0.00    +0.194 C 
ENDBRANCH  27   3
ENDBRANCH  26  27
ENDBRANCH   2  26
ENDBRANCH  24   2
ENDBRANCH  20  21
BRANCH  19  10
ATOM      4  N   UNL     1     -16.485   6.206  21.226  0.00  0.00    -0.291 NA
ATOM     10  C   UNL     1     -17.634   5.521  21.850  0.00  0.00    +0.146 C 
ATOM     13  C   UNL     1     -16.947   6.681  19.921  0.00  0.00    +0.085 C 
ATOM     14  C   UNL     1     -18.470   5.002  20.667  0.00  0.00    +0.030 C 
ATOM     15  C   UNL     1     -17.747   5.495  19.422  0.00  0.00    +0.017 C 
BRANCH   4   9
ATOM      9  C   UNL     1     -15.947   7.287  22.043  0.00  0.00    +0.088 C 
BRANCH   9   8
ATOM      8  C   UNL     1     -14.420   7.255  22.050  0.00  0.00    +0.003 C 
ATOM     11  C   UNL     1     -13.905   5.860  21.670  0.00  0.00    +0.005 C 
ATOM     12  C   UNL     1     -13.852   8.322  21.104  0.00  0.00    +0.005 C 
ATOM     16  C   UNL     1     -12.380   5.816  21.617  0.00  0.00    +0.000 C 
ATOM     17  C   UNL     1     -12.326   8.273  21.052  0.00  0.00    +0.000 C 
ATOM     18  C   UNL     1     -11.818   6.883  20.683  0.00  0.00    +0.000 C 
ENDBRANCH   9   8
ENDBRANCH   4   9
ENDBRANCH  19  10
TORSDOF 8
ENDMDL
MODEL 8
REMARK VINA RESULT:      -6.1     26.404     30.001
REMARK  Name = 45783344
REMARK  9 active torsions:
REMARK  status: ('A' for Active; 'I' for Inactive)
REMARK    1  A    between atoms: O_2  and  C_24
REMARK    2  A    between atoms: O_2  and  C_26
REMARK    3  A    between atoms: O_3  and  C_27
REMARK    4  A    between atoms: O_3  and  C_28
REMARK    5  A    between atoms: N_4  and  C_9
REMARK    6  A    between atoms: C_8  and  C_9
REMARK    7  A    between atoms: C_10  and  C_19
REMARK    8  A    between atoms: C_20  and  C_21
REMARK    9  A    between atoms: C_26  and  C_27
REMARK                            x       y       z     vdW  Elec       q    Type
REMARK                         _______ _______ _______ _____ _____    ______ ____
ROOT
ATOM      1  O   UNL     1      -4.481 -12.922  16.179  0.00  0.00    -0.336 OA
ATOM      5  N   UNL     1      -5.016 -10.750  16.074  0.00  0.00    -0.190 NA
ATOM      6  N   UNL     1      -5.734 -12.799  16.793  0.00  0.00    -0.056 NA
ATOM     19  C   UNL     1      -4.131 -11.670  15.785  0.00  0.00    +0.245 A 
ATOM     20  C   UNL     1      -5.982 -11.490  16.692  0.00  0.00    +0.202 A 
ENDROOT
BRANCH  20  21
ATOM      7  N   UNL     1      -9.522  -9.719  18.182  0.00  0.00    -0.221 NA
ATOM     21  C   UNL     1      -7.182 -10.890  17.198  0.00  0.00    +0.029 A 
ATOM     22  C   UNL     1      -7.696 -11.285  18.429  0.00  0.00    +0.079 A 
ATOM     23  C   UNL     1      -7.837  -9.911  16.459  0.00  0.00    +0.031 A 
ATOM     24  C   UNL     1      -8.858 -10.675  18.872  0.00  0.00    +0.215 A 
ATOM     25  C   UNL     1      -8.993  -9.363  16.991  0.00  0.00    +0.115 A 
BRANCH  24   2
ATOM      2  O   UNL     1      -9.382 -11.045  20.082  0.00  0.00    -0.474 OA
BRANCH   2  26
ATOM     26  C   UNL     1     -10.734 -11.488  20.085  0.00  0.00    +0.258 C 
BRANCH  26  27
ATOM     27  C   UNL     1     -10.805 -12.860  20.728  0.00  0.00    +0.200 C 
BRANCH  27   3
ATOM      3  O   UNL     1     -10.318 -13.829  19.807  0.00  0.00    -0.380 OA
ATOM     28  C   UNL     1      -9.199 -14.528  20.331  0.00  0.00    +0.194 C 
ENDBRANCH  27   3
ENDBRANCH  26  27
ENDBRANCH   2  26
ENDBRANCH  24   2
ENDBRANCH  20  21
BRANCH  19  10
ATOM      4  N   UNL     1      -2.823 -10.524  14.005  0.00  0.00    -0.291 NA
ATOM     10  C   UNL     1      -2.796 -11.531  15.083  0.00  0.00    +0.146 C 
ATOM     13  C   UNL     1      -1.466  -9.985  13.909  0.00  0.00    +0.085 C 
ATOM     14  C   UNL     1      -1.673 -11.064  16.028  0.00  0.00    +0.030 C 
ATOM     15  C   UNL     1      -1.089  -9.823  15.368  0.00  0.00    +0.017 C 
BRANCH   4   9
ATOM      9  C   UNL     1      -3.293 -11.056  12.732  0.00  0.00    +0.088 C 
BRANCH   9   8
ATOM      8  C   UNL     1      -3.781  -9.932  11.819  0.00  0.00    +0.003 C 
ATOM     11  C   UNL     1      -3.297 -10.155  10.380  0.00  0.00    +0.005 C 
ATOM     12  C   UNL     1      -5.311  -9.820  11.870  0.00  0.00    +0.005 C 
ATOM     16  C   UNL     1      -3.818  -9.073   9.437  0.00  0.00    +0.000 C 
ATOM     17  C   UNL     1      -5.827  -8.737  10.923  0.00  0.00    +0.000 C 
ATOM     18  C   UNL     1      -5.338  -8.957   9.496  0.00  0.00    +0.000 C 
ENDBRANCH   9   8
ENDBRANCH   4   9
ENDBRANCH  19  10
TORSDOF 8
ENDMDL
MODEL 9
REMARK VINA RESULT:      -6.0     15.889     20.328
REMARK  Name = 45783344
REMARK  9 active torsions:
REMARK  status: ('A' for Active; 'I' for Inactive)
REMARK    1  A    between atoms: O_2  and  C_24
REMARK    2  A    between atoms: O_2  and  C_26
REMARK    3  A    between atoms: O_3  and  C_27
REMARK    4  A    between atoms: O_3  and  C_28
REMARK    5  A    between atoms: N_4  and  C_9
REMARK    6  A    between atoms: C_8  and  C_9
REMARK    7  A    between atoms: C_10  and  C_19
REMARK    8  A    between atoms: C_20  and  C_21
REMARK    9  A    between atoms: C_26  and  C_27
REMARK                            x       y       z     vdW  Elec       q    Type
REMARK                         _______ _______ _______ _____ _____    ______ ____
ROOT
ATOM      1  O   UNL     1      12.623   7.303   5.044  0.00  0.00    -0.336 OA
ATOM      5  N   UNL     1      10.966   5.887   4.530  0.00  0.00    -0.190 NA
ATOM      6  N   UNL     1      12.913   6.811   3.764  0.00  0.00    -0.056 NA
ATOM     19  C   UNL     1      11.461   6.708   5.421  0.00  0.00    +0.245 A 
ATOM     20  C   UNL     1      11.891   5.984   3.531  0.00  0.00    +0.202 A 
ENDROOT
BRANCH  20  21
ATOM      7  N   UNL     1      11.518   3.782  -0.061  0.00  0.00    -0.221 NA
ATOM     21  C   UNL     1      11.764   5.238   2.313  0.00  0.00    +0.029 A 
ATOM     22  C   UNL     1      10.639   5.396   1.510  0.00  0.00    +0.079 A 
ATOM     23  C   UNL     1      12.765   4.353   1.929  0.00  0.00    +0.031 A 
ATOM     24  C   UNL     1      10.564   4.651   0.345  0.00  0.00    +0.215 A 
ATOM     25  C   UNL     1      12.595   3.655   0.745  0.00  0.00    +0.115 A 
BRANCH  24   2
ATOM      2  O   UNL     1       9.466   4.791  -0.463  0.00  0.00    -0.474 OA
BRANCH   2  26
ATOM     26  C   UNL     1       9.550   5.770  -1.492  0.00  0.00    +0.258 C 
BRANCH  26  27
ATOM     27  C   UNL     1       9.075   5.160  -2.797  0.00  0.00    +0.200 C 
BRANCH  27   3
ATOM      3  O   UNL     1       9.415   3.779  -2.814  0.00  0.00    -0.380 OA
ATOM     28  C   UNL     1      10.549   3.534  -3.634  0.00  0.00    +0.194 C 
ENDBRANCH  27   3
ENDBRANCH  26  27
ENDBRANCH   2  26
ENDBRANCH  24   2
ENDBRANCH  20  21
BRANCH  19  10
ATOM      4  N   UNL     1       9.563   7.642   6.731  0.00  0.00    -0.291 NA
ATOM     10  C   UNL     1      10.926   7.079   6.788  0.00  0.00    +0.146 C 
ATOM     13  C   UNL     1       8.921   7.301   8.000  0.00  0.00    +0.085 C 
ATOM     14  C   UNL     1      10.809   5.866   7.730  0.00  0.00    +0.030 C 
ATOM     15  C   UNL     1       9.361   5.865   8.198  0.00  0.00    +0.017 C 
BRANCH   4   9
ATOM      9  C   UNL     1       9.544   9.077   6.475  0.00  0.00    +0.088 C 
BRANCH   9   8
ATOM      8  C   UNL     1       9.027   9.373   5.069  0.00  0.00    +0.003 C 
ATOM     11  C   UNL     1      10.190   9.687   4.118  0.00  0.00    +0.005 C 
ATOM     12  C   UNL     1       8.192   8.198   4.541  0.00  0.00    +0.005 C 
ATOM     16  C   UNL     1       9.703   9.934   2.693  0.00  0.00    +0.000 C 
ATOM     17  C   UNL     1       7.709   8.448   3.113  0.00  0.00    +0.000 C 
ATOM     18  C   UNL     1       8.867   8.768   2.174  0.00  0.00    +0.000 C 
ENDBRANCH   9   8
ENDBRANCH   4   9
ENDBRANCH  19  10
TORSDOF 8
ENDMDL
MODEL 10
REMARK VINA RESULT:      -6.0     31.416     33.752
REMARK  Name = 45783344
REMARK  9 active torsions:
REMARK  status: ('A' for Active; 'I' for Inactive)
REMARK    1  A    between atoms: O_2  and  C_24
REMARK    2  A    between atoms: O_2  and  C_26
REMARK    3  A    between atoms: O_3  and  C_27
REMARK    4  A    between atoms: O_3  and  C_28
REMARK    5  A    between atoms: N_4  and  C_9
REMARK    6  A    between atoms: C_8  and  C_9
REMARK    7  A    between atoms: C_10  and  C_19
REMARK    8  A    between atoms: C_20  and  C_21
REMARK    9  A    between atoms: C_26  and  C_27
REMARK                            x       y       z     vdW  Elec       q    Type
REMARK                         _______ _______ _______ _____ _____    ______ ____
ROOT
ATOM      1  O   UNL     1     -15.051   7.477  31.843  0.00  0.00    -0.336 OA
ATOM      5  N   UNL     1     -13.446   6.184  32.718  0.00  0.00    -0.190 NA
ATOM      6  N   UNL     1     -15.487   6.155  31.687  0.00  0.00    -0.056 NA
ATOM     19  C   UNL     1     -13.842   7.404  32.458  0.00  0.00    +0.245 A 
ATOM     20  C   UNL     1     -14.488   5.452  32.227  0.00  0.00    +0.202 A 
ENDROOT
BRANCH  20  21
ATOM      7  N   UNL     1     -14.518   1.227  32.417  0.00  0.00    -0.221 NA
ATOM     21  C   UNL     1     -14.498   4.019  32.291  0.00  0.00    +0.029 A 
ATOM     22  C   UNL     1     -14.124   3.267  31.182  0.00  0.00    +0.079 A 
ATOM     23  C   UNL     1     -14.882   3.376  33.462  0.00  0.00    +0.031 A 
ATOM     24  C   UNL     1     -14.151   1.887  31.296  0.00  0.00    +0.215 A 
ATOM     25  C   UNL     1     -14.876   1.991  33.473  0.00  0.00    +0.115 A 
BRANCH  24   2
ATOM      2  O   UNL     1     -13.785   1.125  30.218  0.00  0.00    -0.474 OA
BRANCH   2  26
ATOM     26  C   UNL     1     -14.761   0.220  29.713  0.00  0.00    +0.258 C 
BRANCH  26  27
ATOM     27  C   UNL     1     -15.753   0.987  28.860  0.00  0.00    +0.200 C 
BRANCH  27   3
ATOM      3  O   UNL     1     -16.978   0.266  28.811  0.00  0.00    -0.380 OA
ATOM     28  C   UNL     1     -17.909   0.882  27.934  0.00  0.00    +0.194 C 
ENDBRANCH  27   3
ENDBRANCH  26  27
ENDBRANCH   2  26
ENDBRANCH  24   2
ENDBRANCH  20  21
BRANCH  19  10
ATOM      4  N   UNL     1     -12.164   8.617  33.837  0.00  0.00    -0.291 NA
ATOM     10  C   UNL     1     -13.150   8.720  32.744  0.00  0.00    +0.146 C 
ATOM     13  C   UNL     1     -11.134   9.620  33.561  0.00  0.00    +0.085 C 
ATOM     14  C   UNL     1     -12.346   9.244  31.540  0.00  0.00    +0.030 C 
ATOM     15  C   UNL     1     -10.935   9.461  32.067  0.00  0.00    +0.017 C 
BRANCH   4   9
ATOM      9  C   UNL     1     -12.752   8.784  35.160  0.00  0.00    +0.088 C 
BRANCH   9   8
ATOM      8  C   UNL     1     -11.667   8.987  36.216  0.00  0.00    +0.003 C 
ATOM     11  C   UNL     1     -12.078  10.080  37.212  0.00  0.00    +0.005 C 
ATOM     12  C   UNL     1     -11.367   7.669  36.944  0.00  0.00    +0.005 C 
ATOM     16  C   UNL     1     -11.033  10.264  38.310  0.00  0.00    +0.000 C 
ATOM     17  C   UNL     1     -10.322   7.859  38.043  0.00  0.00    +0.000 C 
ATOM     18  C   UNL     1     -10.730   8.951  39.026  0.00  0.00    +0.000 C 
ENDBRANCH   9   8
ENDBRANCH   4   9
ENDBRANCH  19  10
TORSDOF 8
ENDMDL
