MODEL 1
REMARK VINA RESULT:      -6.9      0.000      0.000
REMARK  Name = 11912407
REMARK  10 active torsions:
REMARK  status: ('A' for Active; 'I' for Inactive)
REMARK    1  A    between atoms: O_3  and  C_30
REMARK    2  A    between atoms: O_3  and  C_31
REMARK    3  A    between atoms: N_6  and  C_18
REMARK    4  A    between atoms: N_7  and  C_19
REMARK    5  A    between atoms: C_8  and  C_14
REMARK    6  A    between atoms: C_9  and  C_13
REMARK    7  A    between atoms: C_13  and  C_15
REMARK    8  A    between atoms: C_14  and  C_17
REMARK    9  A    between atoms: C_24  and  C_30
REMARK   10  A    between atoms: C_31  and  C_32
REMARK                            x       y       z     vdW  Elec       q    Type
REMARK                         _______ _______ _______ _____ _____    ______ ____
ROOT
ATOM      1  O   UNL     1      -2.598 -11.005  15.582  0.00  0.00    -0.252 OA
ATOM      5  N   UNL     1      -4.674 -11.747  16.276  0.00  0.00    -0.285 N 
ATOM      6  N   UNL     1      -4.327 -11.091  14.037  0.00  0.00    -0.269 N 
ATOM      8  C   UNL     1      -6.576 -11.434  18.434  0.00  0.00    +0.004 C 
ATOM      9  C   UNL     1      -7.014 -11.285  16.953  0.00  0.00    +0.010 C 
ATOM     10  C   UNL     1      -5.078 -11.132  18.621  0.00  0.00    +0.023 C 
ATOM     11  C   UNL     1      -6.081 -12.116  16.056  0.00  0.00    +0.113 C 
ATOM     12  C   UNL     1      -4.218 -11.943  17.653  0.00  0.00    +0.109 C 
ATOM     16  C   UNL     1      -3.771 -11.267  15.303  0.00  0.00    +0.306 C 
ATOM     33  H   UNL     1      -5.286 -11.354  13.871  0.00  0.00    +0.156 HD
ENDROOT
BRANCH   6  18
ATOM     18  C   UNL     1      -3.703 -10.530  12.895  0.00  0.00    +0.036 A 
ATOM     20  C   UNL     1      -4.479  -9.955  11.893  0.00  0.00    +0.038 A 
ATOM     21  C   UNL     1      -2.315 -10.556  12.784  0.00  0.00    +0.023 A 
ATOM     24  C   UNL     1      -3.864  -9.403  10.770  0.00  0.00    +0.061 A 
ATOM     25  C   UNL     1      -1.700 -10.003  11.660  0.00  0.00    +0.003 A 
ATOM     28  C   UNL     1      -2.474  -9.426  10.654  0.00  0.00    +0.015 A 
BRANCH  24  30
ATOM      4  O   UNL     1      -5.557  -7.958   9.912  0.00  0.00    -0.245 OA
ATOM     30  C   UNL     1      -4.671  -8.802   9.719  0.00  0.00    +0.339 C 
BRANCH  30   3
ATOM      3  O   UNL     1      -4.329  -9.284   8.485  0.00  0.00    -0.461 OA
BRANCH   3  31
ATOM     31  C   UNL     1      -5.378  -9.872   7.708  0.00  0.00    +0.229 C 
ATOM     32  C   UNL     1      -4.915 -11.219   7.195  0.00  0.00    +0.048 C 
ENDBRANCH   3  31
ENDBRANCH  30   3
ENDBRANCH  24  30
ENDBRANCH   6  18
BRANCH   9  13
ATOM     13  C   UNL     1      -7.077  -9.834  16.462  0.00  0.00    +0.002 C 
ATOM     15  C   UNL     1      -8.430  -9.517  15.861  0.00  0.00    +0.004 C 
ENDBRANCH   9  13
BRANCH   8  14
ATOM     14  C   UNL     1      -7.419 -10.596  19.395  0.00  0.00    +0.100 C 
BRANCH  14  17
ATOM      2  O   UNL     1      -9.230 -12.179  19.506  0.00  0.00    -0.275 OA
ATOM      7  N   UNL     1      -9.695  -9.891  19.256  0.00  0.00    -0.285 N 
ATOM     17  C   UNL     1      -8.879 -11.009  19.395  0.00  0.00    +0.217 C 
ATOM     34  H   UNL     1      -9.243  -8.982  19.183  0.00  0.00    +0.155 HD
BRANCH   7  19
ATOM     19  C   UNL     1     -11.109  -9.855  19.212  0.00  0.00    +0.033 A 
ATOM     22  C   UNL     1     -11.744  -9.684  17.993  0.00  0.00    +0.023 A 
ATOM     23  C   UNL     1     -11.828  -9.992  20.388  0.00  0.00    +0.023 A 
ATOM     26  C   UNL     1     -13.138  -9.647  17.949  0.00  0.00    +0.002 A 
ATOM     27  C   UNL     1     -13.221  -9.956  20.344  0.00  0.00    +0.002 A 
ATOM     29  C   UNL     1     -13.876  -9.784  19.124  0.00  0.00    +0.000 A 
ENDBRANCH   7  19
ENDBRANCH  14  17
ENDBRANCH   8  14
TORSDOF 8
ENDMDL
MODEL 2
REMARK VINA RESULT:      -6.7      2.298      9.085
REMARK  Name = 11912407
REMARK  10 active torsions:
REMARK  status: ('A' for Active; 'I' for Inactive)
REMARK    1  A    between atoms: O_3  and  C_30
REMARK    2  A    between atoms: O_3  and  C_31
REMARK    3  A    between atoms: N_6  and  C_18
REMARK    4  A    between atoms: N_7  and  C_19
REMARK    5  A    between atoms: C_8  and  C_14
REMARK    6  A    between atoms: C_9  and  C_13
REMARK    7  A    between atoms: C_13  and  C_15
REMARK    8  A    between atoms: C_14  and  C_17
REMARK    9  A    between atoms: C_24  and  C_30
REMARK   10  A    between atoms: C_31  and  C_32
REMARK                            x       y       z     vdW  Elec       q    Type
REMARK                         _______ _______ _______ _____ _____    ______ ____
ROOT
ATOM      1  O   UNL     1      -3.372 -13.229  15.156  0.00  0.00    -0.252 OA
ATOM      5  N   UNL     1      -3.202 -11.655  13.472  0.00  0.00    -0.285 N 
ATOM      6  N   UNL     1      -4.110 -11.068  15.569  0.00  0.00    -0.269 N 
ATOM      8  C   UNL     1      -3.697 -11.319  10.641  0.00  0.00    +0.004 C 
ATOM      9  C   UNL     1      -4.240 -10.298  11.676  0.00  0.00    +0.010 C 
ATOM     10  C   UNL     1      -3.478 -12.707  11.268  0.00  0.00    +0.023 C 
ATOM     11  C   UNL     1      -3.336 -10.299  12.921  0.00  0.00    +0.113 C 
ATOM     12  C   UNL     1      -2.628 -12.623  12.535  0.00  0.00    +0.109 C 
ATOM     16  C   UNL     1      -3.543 -12.067  14.778  0.00  0.00    +0.306 C 
ATOM     33  H   UNL     1      -4.193 -10.131  15.206  0.00  0.00    +0.156 HD
ENDROOT
BRANCH   6  18
ATOM     18  C   UNL     1      -4.644 -11.205  16.873  0.00  0.00    +0.036 A 
ATOM     20  C   UNL     1      -5.987 -10.921  17.106  0.00  0.00    +0.038 A 
ATOM     21  C   UNL     1      -3.823 -11.624  17.916  0.00  0.00    +0.023 A 
ATOM     24  C   UNL     1      -6.513 -11.056  18.391  0.00  0.00    +0.061 A 
ATOM     25  C   UNL     1      -4.349 -11.760  19.201  0.00  0.00    +0.003 A 
ATOM     28  C   UNL     1      -5.693 -11.477  19.438  0.00  0.00    +0.015 A 
BRANCH  24  30
ATOM      4  O   UNL     1      -8.464 -10.847  19.745  0.00  0.00    -0.245 OA
ATOM     30  C   UNL     1      -7.915 -10.760  18.638  0.00  0.00    +0.339 C 
BRANCH  30   3
ATOM      3  O   UNL     1      -8.556 -10.368  17.495  0.00  0.00    -0.461 OA
BRANCH   3  31
ATOM     31  C   UNL     1      -9.786  -9.654  17.656  0.00  0.00    +0.229 C 
ATOM     32  C   UNL     1      -9.565  -8.202  17.289  0.00  0.00    +0.048 C 
ENDBRANCH   3  31
ENDBRANCH  30   3
ENDBRANCH  24  30
ENDBRANCH   6  18
BRANCH   9  13
ATOM     13  C   UNL     1      -5.702 -10.529  12.076  0.00  0.00    +0.002 C 
ATOM     15  C   UNL     1      -6.441  -9.217  12.233  0.00  0.00    +0.004 C 
ENDBRANCH   9  13
BRANCH   8  14
ATOM     14  C   UNL     1      -4.568 -11.423   9.390  0.00  0.00    +0.100 C 
BRANCH  14  17
ATOM      2  O   UNL     1      -4.129  -9.156   8.706  0.00  0.00    -0.275 OA
ATOM      7  N   UNL     1      -6.298 -10.035   8.507  0.00  0.00    -0.285 N 
ATOM     17  C   UNL     1      -4.944 -10.064   8.831  0.00  0.00    +0.217 C 
ATOM     34  H   UNL     1      -6.840 -10.881   8.666  0.00  0.00    +0.155 HD
BRANCH   7  19
ATOM     19  C   UNL     1      -7.031  -8.955   7.962  0.00  0.00    +0.033 A 
ATOM     22  C   UNL     1      -7.256  -8.910   6.595  0.00  0.00    +0.023 A 
ATOM     23  C   UNL     1      -7.509  -7.965   8.804  0.00  0.00    +0.023 A 
ATOM     26  C   UNL     1      -7.978  -7.845   6.057  0.00  0.00    +0.002 A 
ATOM     27  C   UNL     1      -8.231  -6.900   8.266  0.00  0.00    +0.002 A 
ATOM     29  C   UNL     1      -8.466  -6.841   6.892  0.00  0.00    +0.000 A 
ENDBRANCH   7  19
ENDBRANCH  14  17
ENDBRANCH   8  14
TORSDOF 8
ENDMDL
MODEL 3
REMARK VINA RESULT:      -6.7     28.403     32.043
REMARK  Name = 11912407
REMARK  10 active torsions:
REMARK  status: ('A' for Active; 'I' for Inactive)
REMARK    1  A    between atoms: O_3  and  C_30
REMARK    2  A    between atoms: O_3  and  C_31
REMARK    3  A    between atoms: N_6  and  C_18
REMARK    4  A    between atoms: N_7  and  C_19
REMARK    5  A    between atoms: C_8  and  C_14
REMARK    6  A    between atoms: C_9  and  C_13
REMARK    7  A    between atoms: C_13  and  C_15
REMARK    8  A    between atoms: C_14  and  C_17
REMARK    9  A    between atoms: C_24  and  C_30
REMARK   10  A    between atoms: C_31  and  C_32
REMARK                            x       y       z     vdW  Elec       q    Type
REMARK                         _______ _______ _______ _____ _____    ______ ____
ROOT
ATOM      1  O   UNL     1      17.175   6.150  18.895  0.00  0.00    -0.252 OA
ATOM      5  N   UNL     1      18.545   6.150  20.757  0.00  0.00    -0.285 N 
ATOM      6  N   UNL     1      16.727   7.646  20.611  0.00  0.00    -0.269 N 
ATOM      8  C   UNL     1      21.341   6.086  21.499  0.00  0.00    +0.004 C 
ATOM      9  C   UNL     1      20.382   7.158  22.082  0.00  0.00    +0.010 C 
ATOM     10  C   UNL     1      20.849   5.556  20.140  0.00  0.00    +0.023 C 
ATOM     11  C   UNL     1      18.945   6.608  22.095  0.00  0.00    +0.113 C 
ATOM     12  C   UNL     1      19.396   5.090  20.213  0.00  0.00    +0.109 C 
ATOM     16  C   UNL     1      17.444   6.614  20.006  0.00  0.00    +0.306 C 
ATOM     33  H   UNL     1      16.983   7.957  21.535  0.00  0.00    +0.156 HD
ENDROOT
BRANCH   6  18
ATOM     18  C   UNL     1      15.647   8.379  20.061  0.00  0.00    +0.036 A 
ATOM     20  C   UNL     1      14.468   7.724  19.716  0.00  0.00    +0.038 A 
ATOM     21  C   UNL     1      15.770   9.753  19.871  0.00  0.00    +0.023 A 
ATOM     24  C   UNL     1      13.405   8.447  19.176  0.00  0.00    +0.061 A 
ATOM     25  C   UNL     1      14.707  10.476  19.330  0.00  0.00    +0.003 A 
ATOM     28  C   UNL     1      13.524   9.824  18.983  0.00  0.00    +0.015 A 
BRANCH  24  30
ATOM      4  O   UNL     1      12.054   6.998  17.848  0.00  0.00    -0.245 OA
ATOM     30  C   UNL     1      12.172   7.767  18.812  0.00  0.00    +0.339 C 
BRANCH  30   3
ATOM      3  O   UNL     1      11.153   8.079  19.671  0.00  0.00    -0.461 OA
BRANCH   3  31
ATOM     31  C   UNL     1      11.147   7.410  20.937  0.00  0.00    +0.229 C 
ATOM     32  C   UNL     1      10.847   8.418  22.025  0.00  0.00    +0.048 C 
ENDBRANCH   3  31
ENDBRANCH  30   3
ENDBRANCH  24  30
ENDBRANCH   6  18
BRANCH   9  13
ATOM     13  C   UNL     1      20.433   8.505  21.353  0.00  0.00    +0.002 C 
ATOM     15  C   UNL     1      19.485   9.505  21.983  0.00  0.00    +0.004 C 
ENDBRANCH   9  13
BRANCH   8  14
ATOM     14  C   UNL     1      22.788   6.569  21.399  0.00  0.00    +0.100 C 
BRANCH  14  17
ATOM      2  O   UNL     1      24.946   5.546  21.090  0.00  0.00    -0.275 OA
ATOM      7  N   UNL     1      23.181   4.293  22.001  0.00  0.00    -0.285 N 
ATOM     17  C   UNL     1      23.785   5.427  21.467  0.00  0.00    +0.217 C 
ATOM     34  H   UNL     1      22.203   4.362  22.273  0.00  0.00    +0.155 HD
BRANCH   7  19
ATOM     19  C   UNL     1      23.772   3.027  22.228  0.00  0.00    +0.033 A 
ATOM     22  C   UNL     1      24.247   2.719  23.492  0.00  0.00    +0.023 A 
ATOM     23  C   UNL     1      23.862   2.123  21.183  0.00  0.00    +0.023 A 
ATOM     26  C   UNL     1      24.830   1.472  23.717  0.00  0.00    +0.002 A 
ATOM     27  C   UNL     1      24.445   0.876  21.407  0.00  0.00    +0.002 A 
ATOM     29  C   UNL     1      24.929   0.551  22.675  0.00  0.00    +0.000 A 
ENDBRANCH   7  19
ENDBRANCH  14  17
ENDBRANCH   8  14
TORSDOF 8
ENDMDL
MODEL 4
REMARK VINA RESULT:      -6.6      3.416      6.811
REMARK  Name = 11912407
REMARK  10 active torsions:
REMARK  status: ('A' for Active; 'I' for Inactive)
REMARK    1  A    between atoms: O_3  and  C_30
REMARK    2  A    between atoms: O_3  and  C_31
REMARK    3  A    between atoms: N_6  and  C_18
REMARK    4  A    between atoms: N_7  and  C_19
REMARK    5  A    between atoms: C_8  and  C_14
REMARK    6  A    between atoms: C_9  and  C_13
REMARK    7  A    between atoms: C_13  and  C_15
REMARK    8  A    between atoms: C_14  and  C_17
REMARK    9  A    between atoms: C_24  and  C_30
REMARK   10  A    between atoms: C_31  and  C_32
REMARK                            x       y       z     vdW  Elec       q    Type
REMARK                         _______ _______ _______ _____ _____    ______ ____
ROOT
ATOM      1  O   UNL     1      -4.547  -9.531   8.057  0.00  0.00    -0.252 OA
ATOM      5  N   UNL     1      -4.871 -10.761   9.987  0.00  0.00    -0.285 N 
ATOM      6  N   UNL     1      -6.686  -9.674   8.944  0.00  0.00    -0.269 N 
ATOM      8  C   UNL     1      -3.722 -11.191  12.607  0.00  0.00    +0.004 C 
ATOM      9  C   UNL     1      -5.231 -10.874  12.437  0.00  0.00    +0.010 C 
ATOM     10  C   UNL     1      -2.887 -10.649  11.433  0.00  0.00    +0.023 C 
ATOM     11  C   UNL     1      -5.701 -11.346  11.050  0.00  0.00    +0.113 C 
ATOM     12  C   UNL     1      -3.451 -11.102  10.088  0.00  0.00    +0.109 C 
ATOM     16  C   UNL     1      -5.322  -9.958   8.917  0.00  0.00    +0.306 C 
ATOM     33  H   UNL     1      -7.268 -10.082   9.660  0.00  0.00    +0.156 HD
ENDROOT
BRANCH   6  18
ATOM     18  C   UNL     1      -7.403  -8.817   8.072  0.00  0.00    +0.036 A 
ATOM     20  C   UNL     1      -7.981  -7.652   8.567  0.00  0.00    +0.038 A 
ATOM     21  C   UNL     1      -7.522  -9.145   6.724  0.00  0.00    +0.023 A 
ATOM     24  C   UNL     1      -8.685  -6.808   7.708  0.00  0.00    +0.061 A 
ATOM     25  C   UNL     1      -8.226  -8.301   5.866  0.00  0.00    +0.003 A 
ATOM     28  C   UNL     1      -8.807  -7.132   6.357  0.00  0.00    +0.015 A 
BRANCH  24  30
ATOM      4  O   UNL     1      -8.657  -4.621   8.660  0.00  0.00    -0.245 OA
ATOM     30  C   UNL     1      -9.292  -5.590   8.221  0.00  0.00    +0.339 C 
BRANCH  30   3
ATOM      3  O   UNL     1     -10.658  -5.643   8.157  0.00  0.00    -0.461 OA
BRANCH   3  31
ATOM     31  C   UNL     1     -11.371  -5.431   9.380  0.00  0.00    +0.229 C 
ATOM     32  C   UNL     1     -11.713  -6.773   9.991  0.00  0.00    +0.048 C 
ENDBRANCH   3  31
ENDBRANCH  30   3
ENDBRANCH  24  30
ENDBRANCH   6  18
BRANCH   9  13
ATOM     13  C   UNL     1      -5.589  -9.399  12.651  0.00  0.00    +0.002 C 
ATOM     15  C   UNL     1      -7.069  -9.157  12.439  0.00  0.00    +0.004 C 
ENDBRANCH   9  13
BRANCH   8  14
ATOM     14  C   UNL     1      -3.155 -10.707  13.942  0.00  0.00    +0.100 C 
BRANCH  14  17
ATOM      2  O   UNL     1      -3.918 -12.628  15.177  0.00  0.00    -0.275 OA
ATOM      7  N   UNL     1      -4.169 -10.480  16.090  0.00  0.00    -0.285 N 
ATOM     17  C   UNL     1      -3.788 -11.410  15.128  0.00  0.00    +0.217 C 
ATOM     34  H   UNL     1      -3.983  -9.498  15.898  0.00  0.00    +0.155 HD
BRANCH   7  19
ATOM     19  C   UNL     1      -4.790 -10.733  17.337  0.00  0.00    +0.033 A 
ATOM     22  C   UNL     1      -6.049 -10.211  17.584  0.00  0.00    +0.023 A 
ATOM     23  C   UNL     1      -4.127 -11.497  18.282  0.00  0.00    +0.023 A 
ATOM     26  C   UNL     1      -6.661 -10.459  18.813  0.00  0.00    +0.002 A 
ATOM     27  C   UNL     1      -4.738 -11.745  19.510  0.00  0.00    +0.002 A 
ATOM     29  C   UNL     1      -6.006 -11.227  19.776  0.00  0.00    +0.000 A 
ENDBRANCH   7  19
ENDBRANCH  14  17
ENDBRANCH   8  14
TORSDOF 8
ENDMDL
MODEL 5
REMARK VINA RESULT:      -6.5      2.150      9.361
REMARK  Name = 11912407
REMARK  10 active torsions:
REMARK  status: ('A' for Active; 'I' for Inactive)
REMARK    1  A    between atoms: O_3  and  C_30
REMARK    2  A    between atoms: O_3  and  C_31
REMARK    3  A    between atoms: N_6  and  C_18
REMARK    4  A    between atoms: N_7  and  C_19
REMARK    5  A    between atoms: C_8  and  C_14
REMARK    6  A    between atoms: C_9  and  C_13
REMARK    7  A    between atoms: C_13  and  C_15
REMARK    8  A    between atoms: C_14  and  C_17
REMARK    9  A    between atoms: C_24  and  C_30
REMARK   10  A    between atoms: C_31  and  C_32
REMARK                            x       y       z     vdW  Elec       q    Type
REMARK                         _______ _______ _______ _____ _____    ______ ____
ROOT
ATOM      1  O   UNL     1      -8.948 -11.882  20.105  0.00  0.00    -0.252 OA
ATOM      5  N   UNL     1      -7.231 -10.875  18.930  0.00  0.00    -0.285 N 
ATOM      6  N   UNL     1      -9.415  -9.986  18.852  0.00  0.00    -0.269 N 
ATOM      8  C   UNL     1      -5.009 -11.516  17.191  0.00  0.00    +0.004 C 
ATOM      9  C   UNL     1      -6.048 -10.433  16.797  0.00  0.00    +0.010 C 
ATOM     10  C   UNL     1      -5.601 -12.549  18.167  0.00  0.00    +0.023 C 
ATOM     11  C   UNL     1      -6.665  -9.826  18.069  0.00  0.00    +0.113 C 
ATOM     12  C   UNL     1      -6.255 -11.872  19.371  0.00  0.00    +0.109 C 
ATOM     16  C   UNL     1      -8.572 -10.972  19.362  0.00  0.00    +0.306 C 
ATOM     33  H   UNL     1      -9.034  -9.254  18.273  0.00  0.00    +0.156 HD
ENDROOT
BRANCH   6  18
ATOM     18  C   UNL     1     -10.818  -9.884  19.020  0.00  0.00    +0.036 A 
ATOM     20  C   UNL     1     -11.635  -9.670  17.914  0.00  0.00    +0.038 A 
ATOM     21  C   UNL     1     -11.372 -10.002  20.292  0.00  0.00    +0.023 A 
ATOM     24  C   UNL     1     -13.016  -9.571  18.080  0.00  0.00    +0.061 A 
ATOM     25  C   UNL     1     -12.753  -9.903  20.458  0.00  0.00    +0.003 A 
ATOM     28  C   UNL     1     -13.576  -9.688  19.352  0.00  0.00    +0.015 A 
BRANCH  24  30
ATOM      4  O   UNL     1     -15.110  -9.408  16.951  0.00  0.00    -0.245 OA
ATOM     30  C   UNL     1     -13.874  -9.346  16.927  0.00  0.00    +0.339 C 
BRANCH  30   3
ATOM      3  O   UNL     1     -13.144  -9.055  15.807  0.00  0.00    -0.461 OA
BRANCH   3  31
ATOM     31  C   UNL     1     -13.523  -7.884  15.075  0.00  0.00    +0.229 C 
ATOM     32  C   UNL     1     -13.028  -6.659  15.814  0.00  0.00    +0.048 C 
ENDBRANCH   3  31
ENDBRANCH  30   3
ENDBRANCH  24  30
ENDBRANCH   6  18
BRANCH   9  13
ATOM     13  C   UNL     1      -7.148 -10.935  15.855  0.00  0.00    +0.002 C 
ATOM     15  C   UNL     1      -8.108  -9.821  15.491  0.00  0.00    +0.004 C 
ENDBRANCH   9  13
BRANCH   8  14
ATOM     14  C   UNL     1      -4.382 -12.212  15.984  0.00  0.00    +0.100 C 
BRANCH  14  17
ATOM      2  O   UNL     1      -2.797 -10.484  15.436  0.00  0.00    -0.275 OA
ATOM      7  N   UNL     1      -4.201 -11.350  13.765  0.00  0.00    -0.285 N 
ATOM     17  C   UNL     1      -3.684 -11.239  15.053  0.00  0.00    +0.217 C 
ATOM     34  H   UNL     1      -4.936 -12.036  13.609  0.00  0.00    +0.155 HD
BRANCH   7  19
ATOM     19  C   UNL     1      -3.817 -10.620  12.616  0.00  0.00    +0.033 A 
ATOM     22  C   UNL     1      -2.483 -10.597  12.241  0.00  0.00    +0.023 A 
ATOM     23  C   UNL     1      -4.782  -9.944  11.888  0.00  0.00    +0.023 A 
ATOM     26  C   UNL     1      -2.105  -9.877  11.109  0.00  0.00    +0.002 A 
ATOM     27  C   UNL     1      -4.403  -9.224  10.755  0.00  0.00    +0.002 A 
ATOM     29  C   UNL     1      -3.064  -9.191  10.365  0.00  0.00    +0.000 A 
ENDBRANCH   7  19
ENDBRANCH  14  17
ENDBRANCH   8  14
TORSDOF 8
ENDMDL
MODEL 6
REMARK VINA RESULT:      -6.5     22.928     27.448
REMARK  Name = 11912407
REMARK  10 active torsions:
REMARK  status: ('A' for Active; 'I' for Inactive)
REMARK    1  A    between atoms: O_3  and  C_30
REMARK    2  A    between atoms: O_3  and  C_31
REMARK    3  A    between atoms: N_6  and  C_18
REMARK    4  A    between atoms: N_7  and  C_19
REMARK    5  A    between atoms: C_8  and  C_14
REMARK    6  A    between atoms: C_9  and  C_13
REMARK    7  A    between atoms: C_13  and  C_15
REMARK    8  A    between atoms: C_14  and  C_17
REMARK    9  A    between atoms: C_24  and  C_30
REMARK   10  A    between atoms: C_31  and  C_32
REMARK                            x       y       z     vdW  Elec       q    Type
REMARK                         _______ _______ _______ _____ _____    ______ ____
ROOT
ATOM      1  O   UNL     1     -13.432   6.278  35.461  0.00  0.00    -0.252 OA
ATOM      5  N   UNL     1     -12.979   8.447  34.804  0.00  0.00    -0.285 N 
ATOM      6  N   UNL     1     -14.381   7.071  33.498  0.00  0.00    -0.269 N 
ATOM      8  C   UNL     1     -10.782  10.309  34.532  0.00  0.00    +0.004 C 
ATOM      9  C   UNL     1     -11.765  10.054  33.359  0.00  0.00    +0.010 C 
ATOM     10  C   UNL     1     -10.716   9.110  35.495  0.00  0.00    +0.023 C 
ATOM     11  C   UNL     1     -13.128   9.612  33.919  0.00  0.00    +0.113 C 
ATOM     12  C   UNL     1     -12.109   8.685  35.957  0.00  0.00    +0.109 C 
ATOM     16  C   UNL     1     -13.602   7.190  34.649  0.00  0.00    +0.306 C 
ATOM     33  H   UNL     1     -14.502   7.868  32.892  0.00  0.00    +0.156 HD
ENDROOT
BRANCH   6  18
ATOM     18  C   UNL     1     -15.038   5.910  33.022  0.00  0.00    +0.036 A 
ATOM     20  C   UNL     1     -14.507   5.206  31.944  0.00  0.00    +0.038 A 
ATOM     21  C   UNL     1     -16.210   5.477  33.636  0.00  0.00    +0.023 A 
ATOM     24  C   UNL     1     -15.153   4.062  31.476  0.00  0.00    +0.061 A 
ATOM     25  C   UNL     1     -16.856   4.333  33.168  0.00  0.00    +0.003 A 
ATOM     28  C   UNL     1     -16.328   3.625  32.089  0.00  0.00    +0.015 A 
BRANCH  24  30
ATOM      4  O   UNL     1     -14.930   3.503  29.169  0.00  0.00    -0.245 OA
ATOM     30  C   UNL     1     -14.603   3.325  30.350  0.00  0.00    +0.339 C 
BRANCH  30   3
ATOM      3  O   UNL     1     -13.673   2.407  30.755  0.00  0.00    -0.461 OA
BRANCH   3  31
ATOM     31  C   UNL     1     -13.782   1.090  30.206  0.00  0.00    +0.229 C 
ATOM     32  C   UNL     1     -14.737   0.279  31.055  0.00  0.00    +0.048 C 
ENDBRANCH   3  31
ENDBRANCH  30   3
ENDBRANCH  24  30
ENDBRANCH   6  18
BRANCH   9  13
ATOM     13  C   UNL     1     -11.257   9.042  32.325  0.00  0.00    +0.002 C 
ATOM     15  C   UNL     1     -11.637   9.457  30.919  0.00  0.00    +0.004 C 
ENDBRANCH   9  13
BRANCH   8  14
ATOM     14  C   UNL     1      -9.381  10.703  34.063  0.00  0.00    +0.100 C 
BRANCH  14  17
ATOM      2  O   UNL     1      -8.542  11.751  36.063  0.00  0.00    -0.275 OA
ATOM      7  N   UNL     1      -7.408   9.910  35.147  0.00  0.00    -0.285 N 
ATOM     17  C   UNL     1      -8.411  10.872  35.218  0.00  0.00    +0.217 C 
ATOM     34  H   UNL     1      -7.447   9.242  34.380  0.00  0.00    +0.155 HD
BRANCH   7  19
ATOM     19  C   UNL     1      -6.320   9.732  36.034  0.00  0.00    +0.033 A 
ATOM     22  C   UNL     1      -6.547   9.168  37.279  0.00  0.00    +0.023 A 
ATOM     23  C   UNL     1      -5.052  10.124  35.640  0.00  0.00    +0.023 A 
ATOM     26  C   UNL     1      -5.475   8.993  38.155  0.00  0.00    +0.002 A 
ATOM     27  C   UNL     1      -3.980   9.949  36.515  0.00  0.00    +0.002 A 
ATOM     29  C   UNL     1      -4.192   9.383  37.773  0.00  0.00    +0.000 A 
ENDBRANCH   7  19
ENDBRANCH  14  17
ENDBRANCH   8  14
TORSDOF 8
ENDMDL
MODEL 7
REMARK VINA RESULT:      -6.4      2.080      3.385
REMARK  Name = 11912407
REMARK  10 active torsions:
REMARK  status: ('A' for Active; 'I' for Inactive)
REMARK    1  A    between atoms: O_3  and  C_30
REMARK    2  A    between atoms: O_3  and  C_31
REMARK    3  A    between atoms: N_6  and  C_18
REMARK    4  A    between atoms: N_7  and  C_19
REMARK    5  A    between atoms: C_8  and  C_14
REMARK    6  A    between atoms: C_9  and  C_13
REMARK    7  A    between atoms: C_13  and  C_15
REMARK    8  A    between atoms: C_14  and  C_17
REMARK    9  A    between atoms: C_24  and  C_30
REMARK   10  A    between atoms: C_31  and  C_32
REMARK                            x       y       z     vdW  Elec       q    Type
REMARK                         _______ _______ _______ _____ _____    ______ ____
ROOT
ATOM      1  O   UNL     1      -6.839 -11.288  14.472  0.00  0.00    -0.252 OA
ATOM      5  N   UNL     1      -7.494 -10.455  16.526  0.00  0.00    -0.285 N 
ATOM      6  N   UNL     1      -5.227 -10.391  15.878  0.00  0.00    -0.269 N 
ATOM      8  C   UNL     1      -9.157 -11.111  18.800  0.00  0.00    +0.004 C 
ATOM      9  C   UNL     1      -7.677 -10.685  18.987  0.00  0.00    +0.010 C 
ATOM     10  C   UNL     1      -9.406 -11.721  17.409  0.00  0.00    +0.023 C 
ATOM     11  C   UNL     1      -7.250  -9.788  17.813  0.00  0.00    +0.113 C 
ATOM     12  C   UNL     1      -8.896 -10.806  16.297  0.00  0.00    +0.109 C 
ATOM     16  C   UNL     1      -6.531 -10.743  15.535  0.00  0.00    +0.306 C 
ATOM     33  H   UNL     1      -5.050  -9.920  16.752  0.00  0.00    +0.156 HD
ENDROOT
BRANCH   6  18
ATOM     18  C   UNL     1      -4.045 -10.648  15.140  0.00  0.00    +0.036 A 
ATOM     20  C   UNL     1      -4.083 -10.649  13.749  0.00  0.00    +0.038 A 
ATOM     21  C   UNL     1      -2.851 -10.897  15.812  0.00  0.00    +0.023 A 
ATOM     24  C   UNL     1      -2.919 -10.901  13.023  0.00  0.00    +0.061 A 
ATOM     25  C   UNL     1      -1.687 -11.150  15.086  0.00  0.00    +0.003 A 
ATOM     28  C   UNL     1      -1.720 -11.151  13.692  0.00  0.00    +0.015 A 
BRANCH  24  30
ATOM      4  O   UNL     1      -3.243 -11.890  10.877  0.00  0.00    -0.245 OA
ATOM     30  C   UNL     1      -2.954 -10.904  11.569  0.00  0.00    +0.339 C 
BRANCH  30   3
ATOM      3  O   UNL     1      -2.628  -9.679  11.056  0.00  0.00    -0.461 OA
BRANCH   3  31
ATOM     31  C   UNL     1      -3.429  -9.198   9.971  0.00  0.00    +0.229 C 
ATOM     32  C   UNL     1      -4.741  -8.678  10.521  0.00  0.00    +0.048 C 
ENDBRANCH   3  31
ENDBRANCH  30   3
ENDBRANCH  24  30
ENDBRANCH   6  18
BRANCH   9  13
ATOM     13  C   UNL     1      -6.704 -11.858  19.148  0.00  0.00    +0.002 C 
ATOM     15  C   UNL     1      -5.283 -11.369  19.339  0.00  0.00    +0.004 C 
ENDBRANCH   9  13
BRANCH   8  14
ATOM     14  C   UNL     1      -9.653 -12.052  19.898  0.00  0.00    +0.100 C 
BRANCH  14  17
ATOM      2  O   UNL     1     -11.797 -13.029  19.401  0.00  0.00    -0.275 OA
ATOM      7  N   UNL     1     -11.678 -11.072  20.694  0.00  0.00    -0.285 N 
ATOM     17  C   UNL     1     -11.167 -12.133  19.952  0.00  0.00    +0.217 C 
ATOM     34  H   UNL     1     -11.015 -10.412  21.095  0.00  0.00    +0.155 HD
BRANCH   7  19
ATOM     19  C   UNL     1     -13.037 -10.793  20.977  0.00  0.00    +0.033 A 
ATOM     22  C   UNL     1     -13.751 -11.660  21.788  0.00  0.00    +0.023 A 
ATOM     23  C   UNL     1     -13.623  -9.660  20.439  0.00  0.00    +0.023 A 
ATOM     26  C   UNL     1     -15.090 -11.387  22.066  0.00  0.00    +0.002 A 
ATOM     27  C   UNL     1     -14.962  -9.387  20.717  0.00  0.00    +0.002 A 
ATOM     29  C   UNL     1     -15.695 -10.250  21.532  0.00  0.00    +0.000 A 
ENDBRANCH   7  19
ENDBRANCH  14  17
ENDBRANCH   8  14
TORSDOF 8
ENDMDL
MODEL 8
REMARK VINA RESULT:      -6.4     27.945     31.408
REMARK  Name = 11912407
REMARK  10 active torsions:
REMARK  status: ('A' for Active; 'I' for Inactive)
REMARK    1  A    between atoms: O_3  and  C_30
REMARK    2  A    between atoms: O_3  and  C_31
REMARK    3  A    between atoms: N_6  and  C_18
REMARK    4  A    between atoms: N_7  and  C_19
REMARK    5  A    between atoms: C_8  and  C_14
REMARK    6  A    between atoms: C_9  and  C_13
REMARK    7  A    between atoms: C_13  and  C_15
REMARK    8  A    between atoms: C_14  and  C_17
REMARK    9  A    between atoms: C_24  and  C_30
REMARK   10  A    between atoms: C_31  and  C_32
REMARK                            x       y       z     vdW  Elec       q    Type
REMARK                         _______ _______ _______ _____ _____    ______ ____
ROOT
ATOM      1  O   UNL     1      16.246   5.984  17.901  0.00  0.00    -0.252 OA
ATOM      5  N   UNL     1      17.116   6.075  20.040  0.00  0.00    -0.285 N 
ATOM      6  N   UNL     1      15.245   7.386  19.454  0.00  0.00    -0.269 N 
ATOM      8  C   UNL     1      19.640   6.270  21.442  0.00  0.00    +0.004 C 
ATOM      9  C   UNL     1      18.463   7.227  21.772  0.00  0.00    +0.010 C 
ATOM     10  C   UNL     1      19.549   5.727  20.005  0.00  0.00    +0.023 C 
ATOM     11  C   UNL     1      17.131   6.537  21.435  0.00  0.00    +0.113 C 
ATOM     12  C   UNL     1      18.177   5.118  19.721  0.00  0.00    +0.109 C 
ATOM     16  C   UNL     1      16.188   6.445  19.043  0.00  0.00    +0.306 C 
ATOM     33  H   UNL     1      15.236   7.699  20.413  0.00  0.00    +0.156 HD
ENDROOT
BRANCH   6  18
ATOM     18  C   UNL     1      14.261   8.021  18.657  0.00  0.00    +0.036 A 
ATOM     20  C   UNL     1      14.567   9.205  17.991  0.00  0.00    +0.038 A 
ATOM     21  C   UNL     1      12.994   7.457  18.542  0.00  0.00    +0.023 A 
ATOM     24  C   UNL     1      13.599   9.830  17.206  0.00  0.00    +0.061 A 
ATOM     25  C   UNL     1      12.026   8.082  17.756  0.00  0.00    +0.003 A 
ATOM     28  C   UNL     1      12.328   9.267  17.088  0.00  0.00    +0.015 A 
BRANCH  24  30
ATOM      4  O   UNL     1      14.022  12.172  17.059  0.00  0.00    -0.245 OA
ATOM     30  C   UNL     1      13.914  11.067  16.510  0.00  0.00    +0.339 C 
BRANCH  30   3
ATOM      3  O   UNL     1      14.079  10.862  15.167  0.00  0.00    -0.461 OA
BRANCH   3  31
ATOM     31  C   UNL     1      13.880  11.992  14.311  0.00  0.00    +0.229 C 
ATOM     32  C   UNL     1      15.204  12.373  13.683  0.00  0.00    +0.048 C 
ENDBRANCH   3  31
ENDBRANCH  30   3
ENDBRANCH  24  30
ENDBRANCH   6  18
BRANCH   9  13
ATOM     13  C   UNL     1      18.552   8.591  21.077  0.00  0.00    +0.002 C 
ATOM     15  C   UNL     1      17.391   9.481  21.468  0.00  0.00    +0.004 C 
ENDBRANCH   9  13
BRANCH   8  14
ATOM     14  C   UNL     1      21.010   6.896  21.697  0.00  0.00    +0.100 C 
BRANCH  14  17
ATOM      2  O   UNL     1      23.179   6.183  20.931  0.00  0.00    -0.275 OA
ATOM      7  N   UNL     1      21.812   4.688  22.119  0.00  0.00    -0.285 N 
ATOM     17  C   UNL     1      22.143   5.901  21.523  0.00  0.00    +0.217 C 
ATOM     34  H   UNL     1      20.907   4.619  22.581  0.00  0.00    +0.155 HD
BRANCH   7  19
ATOM     19  C   UNL     1      22.598   3.513  22.176  0.00  0.00    +0.033 A 
ATOM     22  C   UNL     1      22.878   2.944  23.408  0.00  0.00    +0.023 A 
ATOM     23  C   UNL     1      23.069   2.954  21.000  0.00  0.00    +0.023 A 
ATOM     26  C   UNL     1      23.653   1.786  23.464  0.00  0.00    +0.002 A 
ATOM     27  C   UNL     1      23.844   1.796  21.056  0.00  0.00    +0.002 A 
ATOM     29  C   UNL     1      24.136   1.212  22.289  0.00  0.00    +0.000 A 
ENDBRANCH   7  19
ENDBRANCH  14  17
ENDBRANCH   8  14
TORSDOF 8
ENDMDL
MODEL 9
REMARK VINA RESULT:      -6.4      1.681      2.227
REMARK  Name = 11912407
REMARK  10 active torsions:
REMARK  status: ('A' for Active; 'I' for Inactive)
REMARK    1  A    between atoms: O_3  and  C_30
REMARK    2  A    between atoms: O_3  and  C_31
REMARK    3  A    between atoms: N_6  and  C_18
REMARK    4  A    between atoms: N_7  and  C_19
REMARK    5  A    between atoms: C_8  and  C_14
REMARK    6  A    between atoms: C_9  and  C_13
REMARK    7  A    between atoms: C_13  and  C_15
REMARK    8  A    between atoms: C_14  and  C_17
REMARK    9  A    between atoms: C_24  and  C_30
REMARK   10  A    between atoms: C_31  and  C_32
REMARK                            x       y       z     vdW  Elec       q    Type
REMARK                         _______ _______ _______ _____ _____    ______ ____
ROOT
ATOM      1  O   UNL     1      -4.087  -9.774  16.586  0.00  0.00    -0.252 OA
ATOM      5  N   UNL     1      -4.994 -11.678  17.532  0.00  0.00    -0.285 N 
ATOM      6  N   UNL     1      -4.201 -11.708  15.310  0.00  0.00    -0.269 N 
ATOM      8  C   UNL     1      -7.249 -12.553  19.118  0.00  0.00    +0.004 C 
ATOM      9  C   UNL     1      -6.877 -13.268  17.792  0.00  0.00    +0.010 C 
ATOM     10  C   UNL     1      -6.760 -11.094  19.138  0.00  0.00    +0.023 C 
ATOM     11  C   UNL     1      -5.372 -13.098  17.523  0.00  0.00    +0.113 C 
ATOM     12  C   UNL     1      -5.273 -10.997  18.797  0.00  0.00    +0.109 C 
ATOM     16  C   UNL     1      -4.388 -10.964  16.475  0.00  0.00    +0.306 C 
ATOM     33  H   UNL     1      -4.443 -12.687  15.298  0.00  0.00    +0.156 HD
ENDROOT
BRANCH   6  18
ATOM     18  C   UNL     1      -3.719 -11.243  14.062  0.00  0.00    +0.036 A 
ATOM     20  C   UNL     1      -4.584 -10.601  13.181  0.00  0.00    +0.038 A 
ATOM     21  C   UNL     1      -2.381 -11.428  13.725  0.00  0.00    +0.023 A 
ATOM     24  C   UNL     1      -4.109 -10.142  11.952  0.00  0.00    +0.061 A 
ATOM     25  C   UNL     1      -1.905 -10.969  12.497  0.00  0.00    +0.003 A 
ATOM     28  C   UNL     1      -2.768 -10.326  11.610  0.00  0.00    +0.015 A 
BRANCH  24  30
ATOM      4  O   UNL     1      -5.070  -8.244  10.874  0.00  0.00    -0.245 OA
ATOM     30  C   UNL     1      -5.009  -9.472  11.027  0.00  0.00    +0.339 C 
BRANCH  30   3
ATOM      3  O   UNL     1      -5.784 -10.367  10.342  0.00  0.00    -0.461 OA
BRANCH   3  31
ATOM     31  C   UNL     1      -5.773 -10.271   8.914  0.00  0.00    +0.229 C 
ATOM     32  C   UNL     1      -4.579 -11.031   8.378  0.00  0.00    +0.048 C 
ENDBRANCH   3  31
ENDBRANCH  30   3
ENDBRANCH  24  30
ENDBRANCH   6  18
BRANCH   9  13
ATOM     13  C   UNL     1      -7.694 -12.805  16.581  0.00  0.00    +0.002 C 
ATOM     15  C   UNL     1      -7.314 -13.578  15.335  0.00  0.00    +0.004 C 
ENDBRANCH   9  13
BRANCH   8  14
ATOM     14  C   UNL     1      -8.742 -12.625  19.439  0.00  0.00    +0.100 C 
BRANCH  14  17
ATOM      2  O   UNL     1      -9.638 -10.600  20.386  0.00  0.00    -0.275 OA
ATOM      7  N   UNL     1      -9.711 -10.933  18.062  0.00  0.00    -0.285 N 
ATOM     17  C   UNL     1      -9.414 -11.266  19.381  0.00  0.00    +0.217 C 
ATOM     34  H   UNL     1      -9.450 -11.598  17.337  0.00  0.00    +0.155 HD
BRANCH   7  19
ATOM     19  C   UNL     1     -10.335  -9.754  17.590  0.00  0.00    +0.033 A 
ATOM     22  C   UNL     1     -11.711  -9.733  17.434  0.00  0.00    +0.023 A 
ATOM     23  C   UNL     1      -9.558  -8.647  17.295  0.00  0.00    +0.023 A 
ATOM     26  C   UNL     1     -12.327  -8.572  16.967  0.00  0.00    +0.002 A 
ATOM     27  C   UNL     1     -10.174  -7.485  16.829  0.00  0.00    +0.002 A 
ATOM     29  C   UNL     1     -11.559  -7.448  16.666  0.00  0.00    +0.000 A 
ENDBRANCH   7  19
ENDBRANCH  14  17
ENDBRANCH   8  14
TORSDOF 8
ENDMDL
MODEL 10
REMARK VINA RESULT:      -6.4     25.511     27.695
REMARK  Name = 11912407
REMARK  10 active torsions:
REMARK  status: ('A' for Active; 'I' for Inactive)
REMARK    1  A    between atoms: O_3  and  C_30
REMARK    2  A    between atoms: O_3  and  C_31
REMARK    3  A    between atoms: N_6  and  C_18
REMARK    4  A    between atoms: N_7  and  C_19
REMARK    5  A    between atoms: C_8  and  C_14
REMARK    6  A    between atoms: C_9  and  C_13
REMARK    7  A    between atoms: C_13  and  C_15
REMARK    8  A    between atoms: C_14  and  C_17
REMARK    9  A    between atoms: C_24  and  C_30
REMARK   10  A    between atoms: C_31  and  C_32
REMARK                            x       y       z     vdW  Elec       q    Type
REMARK                         _______ _______ _______ _____ _____    ______ ____
ROOT
ATOM      1  O   UNL     1      13.316   7.674   2.596  0.00  0.00    -0.252 OA
ATOM      5  N   UNL     1      12.317   7.420   4.665  0.00  0.00    -0.285 N 
ATOM      6  N   UNL     1      12.378   5.622   3.139  0.00  0.00    -0.269 N 
ATOM      8  C   UNL     1      10.502   8.764   6.473  0.00  0.00    +0.004 C 
ATOM      9  C   UNL     1      10.283   7.280   6.074  0.00  0.00    +0.010 C 
ATOM     10  C   UNL     1      11.300   9.532   5.405  0.00  0.00    +0.023 C 
ATOM     11  C   UNL     1      11.633   6.642   5.709  0.00  0.00    +0.113 C 
ATOM     12  C   UNL     1      12.596   8.806   5.044  0.00  0.00    +0.109 C 
ATOM     16  C   UNL     1      12.726   6.947   3.400  0.00  0.00    +0.306 C 
ATOM     33  H   UNL     1      11.922   5.075   3.853  0.00  0.00    +0.156 HD
ENDROOT
BRANCH   6  18
ATOM     18  C   UNL     1      12.558   4.909   1.928  0.00  0.00    +0.036 A 
ATOM     20  C   UNL     1      11.520   4.839   1.004  0.00  0.00    +0.038 A 
ATOM     21  C   UNL     1      13.775   4.283   1.669  0.00  0.00    +0.023 A 
ATOM     24  C   UNL     1      11.698   4.137  -0.189  0.00  0.00    +0.061 A 
ATOM     25  C   UNL     1      13.953   3.582   0.477  0.00  0.00    +0.003 A 
ATOM     28  C   UNL     1      12.916   3.509  -0.452  0.00  0.00    +0.015 A 
BRANCH  24  30
ATOM      4  O   UNL     1       9.669   4.857  -1.214  0.00  0.00    -0.245 OA
ATOM     30  C   UNL     1      10.615   4.060  -1.157  0.00  0.00    +0.339 C 
BRANCH  30   3
ATOM      3  O   UNL     1      10.772   2.996  -2.002  0.00  0.00    -0.461 OA
BRANCH   3  31
ATOM     31  C   UNL     1      10.504   3.228  -3.389  0.00  0.00    +0.229 C 
ATOM     32  C   UNL     1       9.391   2.305  -3.838  0.00  0.00    +0.048 C 
ENDBRANCH   3  31
ENDBRANCH  30   3
ENDBRANCH  24  30
ENDBRANCH   6  18
BRANCH   9  13
ATOM     13  C   UNL     1       9.271   7.080   4.940  0.00  0.00    +0.002 C 
ATOM     15  C   UNL     1       8.104   6.227   5.390  0.00  0.00    +0.004 C 
ENDBRANCH   9  13
BRANCH   8  14
ATOM     14  C   UNL     1       9.200   9.494   6.802  0.00  0.00    +0.100 C 
BRANCH  14  17
ATOM      2  O   UNL     1       9.505  11.862   7.117  0.00  0.00    -0.275 OA
ATOM      7  N   UNL     1       9.539  10.425   8.974  0.00  0.00    -0.285 N 
ATOM     17  C   UNL     1       9.431  10.748   7.624  0.00  0.00    +0.217 C 
ATOM     34  H   UNL     1       9.447   9.445   9.234  0.00  0.00    +0.155 HD
BRANCH   7  19
ATOM     19  C   UNL     1       9.755  11.309  10.058  0.00  0.00    +0.033 A 
ATOM     22  C   UNL     1      11.048  11.697  10.367  0.00  0.00    +0.023 A 
ATOM     23  C   UNL     1       8.670  11.767  10.786  0.00  0.00    +0.023 A 
ATOM     26  C   UNL     1      11.262  12.567  11.436  0.00  0.00    +0.002 A 
ATOM     27  C   UNL     1       8.884  12.637  11.855  0.00  0.00    +0.002 A 
ATOM     29  C   UNL     1      10.180  13.038  12.179  0.00  0.00    +0.000 A 
ENDBRANCH   7  19
ENDBRANCH  14  17
ENDBRANCH   8  14
TORSDOF 8
ENDMDL
