MODEL 1
REMARK VINA RESULT:      -7.2      0.000      0.000
REMARK  Name = 75536635
REMARK  6 active torsions:
REMARK  status: ('A' for Active; 'I' for Inactive)
REMARK    1  A    between atoms: O_3  and  C_9
REMARK    2  A    between atoms: N_6  and  C_8
REMARK    3  A    between atoms: N_6  and  C_11
REMARK    4  A    between atoms: N_7  and  C_15
REMARK    5  A    between atoms: C_10  and  C_15
REMARK    6  A    between atoms: C_18  and  C_19
REMARK                            x       y       z     vdW  Elec       q    Type
REMARK                         _______ _______ _______ _____ _____    ______ ____
ROOT
ATOM      2  O   UNL     1      10.589   7.670  20.863  0.00  0.00    -0.371 OA
ATOM      8  C   UNL     1      11.617   9.503  21.968  0.00  0.00    +0.111 C 
ATOM      9  C   UNL     1      12.618   8.875  21.016  0.00  0.00    +0.164 C 
ATOM     10  C   UNL     1      11.691   8.132  20.064  0.00  0.00    +0.165 C 
ATOM     12  C   UNL     1      10.595   8.387  22.109  0.00  0.00    +0.181 C 
ENDROOT
BRANCH   9   3
ATOM      3  O   UNL     1      13.407   9.836  20.342  0.00  0.00    -0.388 OA
ATOM     26  H   UNL     1      14.187   9.387  19.975  0.00  0.00    +0.210 HD
ENDBRANCH   9   3
BRANCH   8   6
ATOM      6  N   UNL     1      12.195   9.906  23.240  0.00  0.00    -0.306 NA
ATOM     25  H   UNL     1      13.203   9.758  23.229  0.00  0.00    +0.123 HD
BRANCH   6  11
ATOM      4  O   UNL     1       9.954  13.392  23.913  0.00  0.00    -0.380 OA
ATOM     11  C   UNL     1      11.903  11.307  23.531  0.00  0.00    +0.058 C 
ATOM     13  C   UNL     1      11.088  11.444  24.822  0.00  0.00    +0.047 C 
ATOM     14  C   UNL     1      11.148  11.947  22.364  0.00  0.00    +0.047 C 
ATOM     16  C   UNL     1      10.679  12.896  25.038  0.00  0.00    +0.161 C 
ATOM     17  C   UNL     1      10.735  13.372  22.717  0.00  0.00    +0.161 C 
ENDBRANCH   6  11
ENDBRANCH   8   6
BRANCH  10  15
ATOM     15  C   UNL     1      12.355   6.954  19.375  0.00  0.00    +0.138 C 
BRANCH  15   7
ATOM      5  O   UNL     1      14.718   7.292  17.780  0.00  0.00    -0.270 OA
ATOM      7  N   UNL     1      13.713   6.792  19.810  0.00  0.00    -0.309 N 
ATOM     18  C   UNL     1      14.802   6.976  18.963  0.00  0.00    +0.244 C 
ATOM     27  H   UNL     1      13.850   6.463  20.759  0.00  0.00    +0.149 HD
BRANCH  18  19
ATOM      1  F   UNL     1      19.867   6.100  21.221  0.00  0.00    -0.205 F 
ATOM     19  C   UNL     1      16.143   6.744  19.560  0.00  0.00    +0.037 A 
ATOM     20  C   UNL     1      16.518   7.428  20.716  0.00  0.00    +0.016 A 
ATOM     21  C   UNL     1      17.026   5.843  18.965  0.00  0.00    +0.016 A 
ATOM     22  C   UNL     1      17.776   7.211  21.277  0.00  0.00    +0.039 A 
ATOM     23  C   UNL     1      18.284   5.626  19.526  0.00  0.00    +0.039 A 
ATOM     24  C   UNL     1      18.659   6.310  20.682  0.00  0.00    +0.123 A 
ENDBRANCH  18  19
ENDBRANCH  15   7
ENDBRANCH  10  15
TORSDOF 6
ENDMDL
MODEL 2
REMARK VINA RESULT:      -6.5     26.089     27.760
REMARK  Name = 75536635
REMARK  6 active torsions:
REMARK  status: ('A' for Active; 'I' for Inactive)
REMARK    1  A    between atoms: O_3  and  C_9
REMARK    2  A    between atoms: N_6  and  C_8
REMARK    3  A    between atoms: N_6  and  C_11
REMARK    4  A    between atoms: N_7  and  C_15
REMARK    5  A    between atoms: C_10  and  C_15
REMARK    6  A    between atoms: C_18  and  C_19
REMARK                            x       y       z     vdW  Elec       q    Type
REMARK                         _______ _______ _______ _____ _____    ______ ____
ROOT
ATOM      2  O   UNL     1      -1.250 -11.432  15.185  0.00  0.00    -0.371 OA
ATOM      8  C   UNL     1      -3.341 -11.177  16.281  0.00  0.00    +0.111 C 
ATOM      9  C   UNL     1      -3.574 -11.768  14.904  0.00  0.00    +0.164 C 
ATOM     10  C   UNL     1      -2.196 -12.337  14.592  0.00  0.00    +0.165 C 
ATOM     12  C   UNL     1      -1.945 -10.598  16.128  0.00  0.00    +0.181 C 
ENDROOT
BRANCH   9   3
ATOM      3  O   UNL     1      -4.572 -12.771  14.901  0.00  0.00    -0.388 OA
ATOM     26  H   UNL     1      -4.252 -13.520  14.371  0.00  0.00    +0.210 HD
ENDBRANCH   9   3
BRANCH   8   6
ATOM      6  N   UNL     1      -4.329 -10.180  16.663  0.00  0.00    -0.306 NA
ATOM     25  H   UNL     1      -4.706  -9.725  15.833  0.00  0.00    +0.123 HD
BRANCH   6  11
ATOM      4  O   UNL     1      -7.176 -10.677  19.709  0.00  0.00    -0.380 OA
ATOM     11  C   UNL     1      -5.414 -10.782  17.433  0.00  0.00    +0.058 C 
ATOM     13  C   UNL     1      -6.632  -9.853  17.488  0.00  0.00    +0.047 C 
ATOM     14  C   UNL     1      -4.942 -11.110  18.852  0.00  0.00    +0.047 C 
ATOM     16  C   UNL     1      -7.702 -10.436  18.404  0.00  0.00    +0.161 C 
ATOM     17  C   UNL     1      -6.106 -11.623  19.693  0.00  0.00    +0.161 C 
ENDBRANCH   6  11
ENDBRANCH   8   6
BRANCH  10  15
ATOM     15  C   UNL     1      -1.922 -12.465  13.105  0.00  0.00    +0.138 C 
BRANCH  15   7
ATOM      5  O   UNL     1      -1.441  -9.903  11.902  0.00  0.00    -0.270 OA
ATOM      7  N   UNL     1      -2.852 -11.692  12.333  0.00  0.00    -0.309 N 
ATOM     18  C   UNL     1      -2.532 -10.453  11.786  0.00  0.00    +0.244 C 
ATOM     27  H   UNL     1      -3.795 -12.058  12.259  0.00  0.00    +0.149 HD
BRANCH  18  19
ATOM      1  F   UNL     1      -6.625  -7.863   8.947  0.00  0.00    -0.205 F 
ATOM     19  C   UNL     1      -3.615  -9.768  11.036  0.00  0.00    +0.037 A 
ATOM     20  C   UNL     1      -3.387  -9.326   9.732  0.00  0.00    +0.016 A 
ATOM     21  C   UNL     1      -4.859  -9.566  11.633  0.00  0.00    +0.016 A 
ATOM     22  C   UNL     1      -4.404  -8.682   9.027  0.00  0.00    +0.039 A 
ATOM     23  C   UNL     1      -5.876  -8.923  10.928  0.00  0.00    +0.039 A 
ATOM     24  C   UNL     1      -5.648  -8.481   9.624  0.00  0.00    +0.123 A 
ENDBRANCH  18  19
ENDBRANCH  15   7
ENDBRANCH  10  15
TORSDOF 6
ENDMDL
MODEL 3
REMARK VINA RESULT:      -6.4      3.450      3.975
REMARK  Name = 75536635
REMARK  6 active torsions:
REMARK  status: ('A' for Active; 'I' for Inactive)
REMARK    1  A    between atoms: O_3  and  C_9
REMARK    2  A    between atoms: N_6  and  C_8
REMARK    3  A    between atoms: N_6  and  C_11
REMARK    4  A    between atoms: N_7  and  C_15
REMARK    5  A    between atoms: C_10  and  C_15
REMARK    6  A    between atoms: C_18  and  C_19
REMARK                            x       y       z     vdW  Elec       q    Type
REMARK                         _______ _______ _______ _____ _____    ______ ____
ROOT
ATOM      2  O   UNL     1      13.292   8.037  21.836  0.00  0.00    -0.371 OA
ATOM      8  C   UNL     1      11.264   8.926  22.694  0.00  0.00    +0.111 C 
ATOM      9  C   UNL     1      10.949   8.018  21.520  0.00  0.00    +0.164 C 
ATOM     10  C   UNL     1      12.211   7.168  21.459  0.00  0.00    +0.165 C 
ATOM     12  C   UNL     1      12.742   9.204  22.470  0.00  0.00    +0.181 C 
ENDROOT
BRANCH   9   3
ATOM      3  O   UNL     1       9.793   7.231  21.733  0.00  0.00    -0.388 OA
ATOM     26  H   UNL     1       9.824   6.471  21.129  0.00  0.00    +0.210 HD
ENDBRANCH   9   3
BRANCH   8   6
ATOM      6  N   UNL     1      10.460  10.137  22.727  0.00  0.00    -0.306 NA
ATOM     25  H   UNL     1       9.628   9.989  23.297  0.00  0.00    +0.123 HD
BRANCH   6  11
ATOM      4  O   UNL     1      11.254  13.885  24.444  0.00  0.00    -0.380 OA
ATOM     11  C   UNL     1      11.226  11.264  23.253  0.00  0.00    +0.058 C 
ATOM     13  C   UNL     1      10.917  11.496  24.736  0.00  0.00    +0.047 C 
ATOM     14  C   UNL     1      10.927  12.533  22.450  0.00  0.00    +0.047 C 
ATOM     16  C   UNL     1      11.621  12.753  25.233  0.00  0.00    +0.161 C 
ATOM     17  C   UNL     1      11.630  13.733  23.075  0.00  0.00    +0.161 C 
ENDBRANCH   6  11
ENDBRANCH   8   6
BRANCH  10  15
ATOM     15  C   UNL     1      12.476   6.585  20.083  0.00  0.00    +0.138 C 
BRANCH  15   7
ATOM      5  O   UNL     1      11.609   7.331  17.450  0.00  0.00    -0.270 OA
ATOM      7  N   UNL     1      13.095   7.547  19.218  0.00  0.00    -0.309 N 
ATOM     18  C   UNL     1      12.604   7.846  17.951  0.00  0.00    +0.244 C 
ATOM     27  H   UNL     1      13.963   7.958  19.543  0.00  0.00    +0.149 HD
BRANCH  18  19
ATOM      1  F   UNL     1      15.519  11.628  14.996  0.00  0.00    -0.205 F 
ATOM     19  C   UNL     1      13.376   8.846  17.168  0.00  0.00    +0.037 A 
ATOM     20  C   UNL     1      13.531  10.144  17.658  0.00  0.00    +0.016 A 
ATOM     21  C   UNL     1      13.944   8.489  15.945  0.00  0.00    +0.016 A 
ATOM     22  C   UNL     1      14.255  11.083  16.924  0.00  0.00    +0.039 A 
ATOM     23  C   UNL     1      14.668   9.429  15.212  0.00  0.00    +0.039 A 
ATOM     24  C   UNL     1      14.823  10.726  15.701  0.00  0.00    +0.123 A 
ENDBRANCH  18  19
ENDBRANCH  15   7
ENDBRANCH  10  15
TORSDOF 6
ENDMDL
MODEL 4
REMARK VINA RESULT:      -6.4      3.628      8.118
REMARK  Name = 75536635
REMARK  6 active torsions:
REMARK  status: ('A' for Active; 'I' for Inactive)
REMARK    1  A    between atoms: O_3  and  C_9
REMARK    2  A    between atoms: N_6  and  C_8
REMARK    3  A    between atoms: N_6  and  C_11
REMARK    4  A    between atoms: N_7  and  C_15
REMARK    5  A    between atoms: C_10  and  C_15
REMARK    6  A    between atoms: C_18  and  C_19
REMARK                            x       y       z     vdW  Elec       q    Type
REMARK                         _______ _______ _______ _____ _____    ______ ____
ROOT
ATOM      2  O   UNL     1      16.604   6.067  19.058  0.00  0.00    -0.371 OA
ATOM      8  C   UNL     1      17.403   6.484  21.255  0.00  0.00    +0.111 C 
ATOM      9  C   UNL     1      16.055   7.160  21.082  0.00  0.00    +0.164 C 
ATOM     10  C   UNL     1      15.485   6.381  19.905  0.00  0.00    +0.165 C 
ATOM     12  C   UNL     1      17.814   6.260  19.810  0.00  0.00    +0.181 C 
ENDROOT
BRANCH   9   3
ATOM      3  O   UNL     1      15.239   7.053  22.232  0.00  0.00    -0.388 OA
ATOM     26  H   UNL     1      14.932   7.943  22.474  0.00  0.00    +0.210 HD
ENDBRANCH   9   3
BRANCH   8   6
ATOM      6  N   UNL     1      18.364   7.281  22.000  0.00  0.00    -0.306 NA
ATOM     25  H   UNL     1      18.330   7.037  22.989  0.00  0.00    +0.123 HD
BRANCH   6  11
ATOM      4  O   UNL     1      22.559   7.395  21.850  0.00  0.00    -0.380 OA
ATOM     11  C   UNL     1      19.719   7.086  21.490  0.00  0.00    +0.058 C 
ATOM     13  C   UNL     1      20.532   6.179  22.419  0.00  0.00    +0.047 C 
ATOM     14  C   UNL     1      20.424   8.434  21.322  0.00  0.00    +0.047 C 
ATOM     16  C   UNL     1      21.978   6.094  21.943  0.00  0.00    +0.161 C 
ATOM     17  C   UNL     1      21.877   8.223  20.907  0.00  0.00    +0.161 C 
ENDBRANCH   6  11
ENDBRANCH   8   6
BRANCH  10  15
ATOM     15  C   UNL     1      14.447   7.158  19.116  0.00  0.00    +0.138 C 
BRANCH  15   7
ATOM      5  O   UNL     1      11.659   7.390  19.762  0.00  0.00    -0.270 OA
ATOM      7  N   UNL     1      13.836   8.178  19.920  0.00  0.00    -0.309 N 
ATOM     18  C   UNL     1      12.469   8.212  20.180  0.00  0.00    +0.244 C 
ATOM     27  H   UNL     1      14.439   8.928  20.238  0.00  0.00    +0.149 HD
BRANCH  18  19
ATOM      1  F   UNL     1      10.653  12.510  23.304  0.00  0.00    -0.205 F 
ATOM     19  C   UNL     1      11.988   9.349  21.008  0.00  0.00    +0.037 A 
ATOM     20  C   UNL     1      12.283  10.659  20.629  0.00  0.00    +0.016 A 
ATOM     21  C   UNL     1      11.243   9.107  22.161  0.00  0.00    +0.016 A 
ATOM     22  C   UNL     1      11.832  11.727  21.405  0.00  0.00    +0.039 A 
ATOM     23  C   UNL     1      10.792  10.175  22.937  0.00  0.00    +0.039 A 
ATOM     24  C   UNL     1      11.087  11.485  22.559  0.00  0.00    +0.123 A 
ENDBRANCH  18  19
ENDBRANCH  15   7
ENDBRANCH  10  15
TORSDOF 6
ENDMDL
MODEL 5
REMARK VINA RESULT:      -6.2     26.629     28.042
REMARK  Name = 75536635
REMARK  6 active torsions:
REMARK  status: ('A' for Active; 'I' for Inactive)
REMARK    1  A    between atoms: O_3  and  C_9
REMARK    2  A    between atoms: N_6  and  C_8
REMARK    3  A    between atoms: N_6  and  C_11
REMARK    4  A    between atoms: N_7  and  C_15
REMARK    5  A    between atoms: C_10  and  C_15
REMARK    6  A    between atoms: C_18  and  C_19
REMARK                            x       y       z     vdW  Elec       q    Type
REMARK                         _______ _______ _______ _____ _____    ______ ____
ROOT
ATOM      2  O   UNL     1      -5.061 -11.281  18.668  0.00  0.00    -0.371 OA
ATOM      8  C   UNL     1      -7.102 -10.292  17.965  0.00  0.00    +0.111 C 
ATOM      9  C   UNL     1      -6.071 -10.137  16.862  0.00  0.00    +0.164 C 
ATOM     10  C   UNL     1      -5.079 -11.231  17.232  0.00  0.00    +0.165 C 
ATOM     12  C   UNL     1      -6.216 -10.584  19.165  0.00  0.00    +0.181 C 
ENDROOT
BRANCH   9   3
ATOM      3  O   UNL     1      -6.618 -10.333  15.573  0.00  0.00    -0.388 OA
ATOM     26  H   UNL     1      -7.136 -11.155  15.582  0.00  0.00    +0.210 HD
ENDBRANCH   9   3
BRANCH   8   6
ATOM      6  N   UNL     1      -7.938  -9.116  18.152  0.00  0.00    -0.306 NA
ATOM     25  H   UNL     1      -7.485  -8.297  17.749  0.00  0.00    +0.123 HD
BRANCH   6  11
ATOM      4  O   UNL     1     -12.067  -8.693  17.517  0.00  0.00    -0.380 OA
ATOM     11  C   UNL     1      -9.253  -9.304  17.544  0.00  0.00    +0.058 C 
ATOM     13  C   UNL     1      -9.801  -7.982  16.998  0.00  0.00    +0.047 C 
ATOM     14  C   UNL     1     -10.231  -9.896  18.562  0.00  0.00    +0.047 C 
ATOM     16  C   UNL     1     -11.226  -8.169  16.489  0.00  0.00    +0.161 C 
ATOM     17  C   UNL     1     -11.632  -9.976  17.967  0.00  0.00    +0.161 C 
ENDBRANCH   6  11
ENDBRANCH   8   6
BRANCH  10  15
ATOM     15  C   UNL     1      -3.678 -10.973  16.709  0.00  0.00    +0.138 C 
BRANCH  15   7
ATOM      5  O   UNL     1      -1.979 -11.902  14.589  0.00  0.00    -0.270 OA
ATOM      7  N   UNL     1      -3.702 -10.542  15.340  0.00  0.00    -0.309 N 
ATOM     18  C   UNL     1      -2.835 -11.048  14.376  0.00  0.00    +0.244 C 
ATOM     27  H   UNL     1      -4.339  -9.787  15.113  0.00  0.00    +0.149 HD
BRANCH  18  19
ATOM      1  F   UNL     1      -3.344  -8.894   9.217  0.00  0.00    -0.205 F 
ATOM     19  C   UNL     1      -2.969 -10.478  13.011  0.00  0.00    +0.037 A 
ATOM     20  C   UNL     1      -4.236 -10.245  12.475  0.00  0.00    +0.016 A 
ATOM     21  C   UNL     1      -1.830 -10.177  12.265  0.00  0.00    +0.016 A 
ATOM     22  C   UNL     1      -4.363  -9.710  11.193  0.00  0.00    +0.039 A 
ATOM     23  C   UNL     1      -1.957  -9.642  10.983  0.00  0.00    +0.039 A 
ATOM     24  C   UNL     1      -3.223  -9.408  10.447  0.00  0.00    +0.123 A 
ENDBRANCH  18  19
ENDBRANCH  15   7
ENDBRANCH  10  15
TORSDOF 6
ENDMDL
MODEL 6
REMARK VINA RESULT:      -6.1     26.716     28.426
REMARK  Name = 75536635
REMARK  6 active torsions:
REMARK  status: ('A' for Active; 'I' for Inactive)
REMARK    1  A    between atoms: O_3  and  C_9
REMARK    2  A    between atoms: N_6  and  C_8
REMARK    3  A    between atoms: N_6  and  C_11
REMARK    4  A    between atoms: N_7  and  C_15
REMARK    5  A    between atoms: C_10  and  C_15
REMARK    6  A    between atoms: C_18  and  C_19
REMARK                            x       y       z     vdW  Elec       q    Type
REMARK                         _______ _______ _______ _____ _____    ______ ____
ROOT
ATOM      2  O   UNL     1      -3.896 -10.382  13.887  0.00  0.00    -0.371 OA
ATOM      8  C   UNL     1      -3.554 -11.034  16.145  0.00  0.00    +0.111 C 
ATOM      9  C   UNL     1      -2.351 -11.454  15.322  0.00  0.00    +0.164 C 
ATOM     10  C   UNL     1      -2.485 -10.533  14.116  0.00  0.00    +0.165 C 
ATOM     12  C   UNL     1      -4.600 -10.819  15.063  0.00  0.00    +0.181 C 
ENDROOT
BRANCH   9   3
ATOM      3  O   UNL     1      -1.127 -11.256  16.003  0.00  0.00    -0.388 OA
ATOM     26  H   UNL     1      -1.232 -11.570  16.917  0.00  0.00    +0.210 HD
ENDBRANCH   9   3
BRANCH   8   6
ATOM      6  N   UNL     1      -3.958 -12.021  17.134  0.00  0.00    -0.306 NA
ATOM     25  H   UNL     1      -3.262 -12.077  17.876  0.00  0.00    +0.123 HD
BRANCH   6  11
ATOM      4  O   UNL     1      -7.043 -11.719  19.966  0.00  0.00    -0.380 OA
ATOM     11  C   UNL     1      -5.263 -11.692  17.704  0.00  0.00    +0.058 C 
ATOM     13  C   UNL     1      -5.123 -10.709  18.870  0.00  0.00    +0.047 C 
ATOM     14  C   UNL     1      -5.975 -12.964  18.172  0.00  0.00    +0.047 C 
ATOM     16  C   UNL     1      -6.475 -10.482  19.536  0.00  0.00    +0.161 C 
ATOM     17  C   UNL     1      -7.280 -12.611  18.877  0.00  0.00    +0.161 C 
ENDBRANCH   6  11
ENDBRANCH   8   6
BRANCH  10  15
ATOM     15  C   UNL     1      -1.818 -11.079  12.867  0.00  0.00    +0.138 C 
BRANCH  15   7
ATOM      5  O   UNL     1      -3.281 -12.873  11.168  0.00  0.00    -0.270 OA
ATOM      7  N   UNL     1      -2.554 -10.731  11.686  0.00  0.00    -0.309 N 
ATOM     18  C   UNL     1      -3.236 -11.671  10.919  0.00  0.00    +0.244 C 
ATOM     27  H   UNL     1      -2.499  -9.765  11.385  0.00  0.00    +0.149 HD
BRANCH  18  19
ATOM      1  F   UNL     1      -5.852  -9.719   6.351  0.00  0.00    -0.205 F 
ATOM     19  C   UNL     1      -3.928 -11.154   9.711  0.00  0.00    +0.037 A 
ATOM     20  C   UNL     1      -4.317 -12.034   8.701  0.00  0.00    +0.016 A 
ATOM     21  C   UNL     1      -4.189  -9.790   9.585  0.00  0.00    +0.016 A 
ATOM     22  C   UNL     1      -4.967 -11.550   7.566  0.00  0.00    +0.039 A 
ATOM     23  C   UNL     1      -4.839  -9.305   8.450  0.00  0.00    +0.039 A 
ATOM     24  C   UNL     1      -5.228 -10.185   7.441  0.00  0.00    +0.123 A 
ENDBRANCH  18  19
ENDBRANCH  15   7
ENDBRANCH  10  15
TORSDOF 6
ENDMDL
MODEL 7
REMARK VINA RESULT:      -6.0     26.174     28.212
REMARK  Name = 75536635
REMARK  6 active torsions:
REMARK  status: ('A' for Active; 'I' for Inactive)
REMARK    1  A    between atoms: O_3  and  C_9
REMARK    2  A    between atoms: N_6  and  C_8
REMARK    3  A    between atoms: N_6  and  C_11
REMARK    4  A    between atoms: N_7  and  C_15
REMARK    5  A    between atoms: C_10  and  C_15
REMARK    6  A    between atoms: C_18  and  C_19
REMARK                            x       y       z     vdW  Elec       q    Type
REMARK                         _______ _______ _______ _____ _____    ______ ____
ROOT
ATOM      2  O   UNL     1      -3.495 -11.325  12.559  0.00  0.00    -0.371 OA
ATOM      8  C   UNL     1      -3.034 -10.154  10.545  0.00  0.00    +0.111 C 
ATOM      9  C   UNL     1      -2.129  -9.625  11.642  0.00  0.00    +0.164 C 
ATOM     10  C   UNL     1      -2.166 -10.780  12.635  0.00  0.00    +0.165 C 
ATOM     12  C   UNL     1      -4.118 -10.845  11.356  0.00  0.00    +0.181 C 
ENDROOT
BRANCH   9   3
ATOM      3  O   UNL     1      -0.816  -9.362  11.188  0.00  0.00    -0.388 OA
ATOM     26  H   UNL     1      -0.328 -10.201  11.162  0.00  0.00    +0.210 HD
ENDBRANCH   9   3
BRANCH   8   6
ATOM      6  N   UNL     1      -3.557  -9.116   9.669  0.00  0.00    -0.306 NA
ATOM     25  H   UNL     1      -2.997  -9.061   8.819  0.00  0.00    +0.123 HD
BRANCH   6  11
ATOM      4  O   UNL     1      -7.262  -8.712   7.737  0.00  0.00    -0.380 OA
ATOM     11  C   UNL     1      -4.954  -9.371   9.327  0.00  0.00    +0.058 C 
ATOM     13  C   UNL     1      -5.092  -9.800   7.862  0.00  0.00    +0.047 C 
ATOM     14  C   UNL     1      -5.803  -8.125   9.591  0.00  0.00    +0.047 C 
ATOM     16  C   UNL     1      -6.563  -9.931   7.486  0.00  0.00    +0.161 C 
ATOM     17  C   UNL     1      -7.235  -8.350   9.118  0.00  0.00    +0.161 C 
ENDBRANCH   6  11
ENDBRANCH   8   6
BRANCH  10  15
ATOM     15  C   UNL     1      -1.866 -10.356  14.061  0.00  0.00    +0.138 C 
BRANCH  15   7
ATOM      5  O   UNL     1      -2.131 -10.965  16.854  0.00  0.00    -0.270 OA
ATOM      7  N   UNL     1      -3.065 -10.275  14.845  0.00  0.00    -0.309 N 
ATOM     18  C   UNL     1      -3.101 -10.592  16.200  0.00  0.00    +0.244 C 
ATOM     27  H   UNL     1      -3.918 -10.041  14.350  0.00  0.00    +0.149 HD
BRANCH  18  19
ATOM      1  F   UNL     1      -8.108 -10.176  18.705  0.00  0.00    -0.205 F 
ATOM     19  C   UNL     1      -4.426 -10.482  16.863  0.00  0.00    +0.037 A 
ATOM     20  C   UNL     1      -5.469  -9.809  16.228  0.00  0.00    +0.016 A 
ATOM     21  C   UNL     1      -4.627 -11.051  18.121  0.00  0.00    +0.016 A 
ATOM     22  C   UNL     1      -6.713  -9.706  16.850  0.00  0.00    +0.039 A 
ATOM     23  C   UNL     1      -5.871 -10.948  18.743  0.00  0.00    +0.039 A 
ATOM     24  C   UNL     1      -6.914 -10.275  18.107  0.00  0.00    +0.123 A 
ENDBRANCH  18  19
ENDBRANCH  15   7
ENDBRANCH  10  15
TORSDOF 6
ENDMDL
MODEL 8
REMARK VINA RESULT:      -6.0      3.737      4.491
REMARK  Name = 75536635
REMARK  6 active torsions:
REMARK  status: ('A' for Active; 'I' for Inactive)
REMARK    1  A    between atoms: O_3  and  C_9
REMARK    2  A    between atoms: N_6  and  C_8
REMARK    3  A    between atoms: N_6  and  C_11
REMARK    4  A    between atoms: N_7  and  C_15
REMARK    5  A    between atoms: C_10  and  C_15
REMARK    6  A    between atoms: C_18  and  C_19
REMARK                            x       y       z     vdW  Elec       q    Type
REMARK                         _______ _______ _______ _____ _____    ______ ____
ROOT
ATOM      2  O   UNL     1      13.723   6.829  19.919  0.00  0.00    -0.371 OA
ATOM      8  C   UNL     1      12.408   7.932  21.561  0.00  0.00    +0.111 C 
ATOM      9  C   UNL     1      11.841   8.236  20.187  0.00  0.00    +0.164 C 
ATOM     10  C   UNL     1      12.420   7.089  19.370  0.00  0.00    +0.165 C 
ATOM     12  C   UNL     1      13.809   7.457  21.210  0.00  0.00    +0.181 C 
ENDROOT
BRANCH   9   3
ATOM      3  O   UNL     1      10.426   8.235  20.169  0.00  0.00    -0.388 OA
ATOM     26  H   UNL     1      10.131   7.708  19.408  0.00  0.00    +0.210 HD
ENDBRANCH   9   3
BRANCH   8   6
ATOM      6  N   UNL     1      12.407   9.076  22.460  0.00  0.00    -0.306 NA
ATOM     25  H   UNL     1      13.192   9.014  23.106  0.00  0.00    +0.123 HD
BRANCH   6  11
ATOM      4  O   UNL     1      12.768  13.195  21.731  0.00  0.00    -0.380 OA
ATOM     11  C   UNL     1      12.476  10.330  21.715  0.00  0.00    +0.058 C 
ATOM     13  C   UNL     1      13.831  11.017  21.917  0.00  0.00    +0.047 C 
ATOM     14  C   UNL     1      11.344  11.267  22.143  0.00  0.00    +0.047 C 
ATOM     16  C   UNL     1      13.838  12.384  21.244  0.00  0.00    +0.161 C 
ATOM     17  C   UNL     1      11.489  12.621  21.457  0.00  0.00    +0.161 C 
ENDBRANCH   6  11
ENDBRANCH   8   6
BRANCH  10  15
ATOM     15  C   UNL     1      12.540   7.406  17.891  0.00  0.00    +0.138 C 
BRANCH  15   7
ATOM      5  O   UNL     1      13.010   8.731  15.388  0.00  0.00    -0.270 OA
ATOM      7  N   UNL     1      13.400   8.532  17.666  0.00  0.00    -0.309 N 
ATOM     18  C   UNL     1      13.569   9.112  16.412  0.00  0.00    +0.244 C 
ATOM     27  H   UNL     1      13.947   8.852  18.457  0.00  0.00    +0.149 HD
BRANCH  18  19
ATOM      1  F   UNL     1      17.148  13.430  16.145  0.00  0.00    -0.205 F 
ATOM     19  C   UNL     1      14.516  10.254  16.340  0.00  0.00    +0.037 A 
ATOM     20  C   UNL     1      14.767  11.023  17.477  0.00  0.00    +0.016 A 
ATOM     21  C   UNL     1      15.155  10.559  15.138  0.00  0.00    +0.016 A 
ATOM     22  C   UNL     1      15.656  12.096  17.411  0.00  0.00    +0.039 A 
ATOM     23  C   UNL     1      16.043  11.631  15.072  0.00  0.00    +0.039 A 
ATOM     24  C   UNL     1      16.294  12.400  16.209  0.00  0.00    +0.123 A 
ENDBRANCH  18  19
ENDBRANCH  15   7
ENDBRANCH  10  15
TORSDOF 6
ENDMDL
MODEL 9
REMARK VINA RESULT:      -6.0     26.692     29.394
REMARK  Name = 75536635
REMARK  6 active torsions:
REMARK  status: ('A' for Active; 'I' for Inactive)
REMARK    1  A    between atoms: O_3  and  C_9
REMARK    2  A    between atoms: N_6  and  C_8
REMARK    3  A    between atoms: N_6  and  C_11
REMARK    4  A    between atoms: N_7  and  C_15
REMARK    5  A    between atoms: C_10  and  C_15
REMARK    6  A    between atoms: C_18  and  C_19
REMARK                            x       y       z     vdW  Elec       q    Type
REMARK                         _______ _______ _______ _____ _____    ______ ____
ROOT
ATOM      2  O   UNL     1     -17.546   5.986  24.878  0.00  0.00    -0.371 OA
ATOM      8  C   UNL     1     -16.662   4.172  26.130  0.00  0.00    +0.111 C 
ATOM      9  C   UNL     1     -16.160   4.078  24.701  0.00  0.00    +0.164 C 
ATOM     10  C   UNL     1     -16.356   5.512  24.226  0.00  0.00    +0.165 C 
ATOM     12  C   UNL     1     -17.854   5.102  25.969  0.00  0.00    +0.181 C 
ENDROOT
BRANCH   9   3
ATOM      3  O   UNL     1     -14.806   3.677  24.624  0.00  0.00    -0.388 OA
ATOM     26  H   UNL     1     -14.442   3.989  23.778  0.00  0.00    +0.210 HD
ENDBRANCH   9   3
BRANCH   8   6
ATOM      6  N   UNL     1     -17.022   2.887  26.708  0.00  0.00    -0.306 NA
ATOM     25  H   UNL     1     -17.070   2.176  25.979  0.00  0.00    +0.123 HD
BRANCH   6  11
ATOM      4  O   UNL     1     -15.440   2.083  30.513  0.00  0.00    -0.380 OA
ATOM     11  C   UNL     1     -16.060   2.482  27.730  0.00  0.00    +0.058 C 
ATOM     13  C   UNL     1     -16.572   1.274  28.521  0.00  0.00    +0.047 C 
ATOM     14  C   UNL     1     -15.770   3.646  28.680  0.00  0.00    +0.047 C 
ATOM     16  C   UNL     1     -15.621   0.949  29.667  0.00  0.00    +0.161 C 
ATOM     17  C   UNL     1     -14.863   3.189  29.817  0.00  0.00    +0.161 C 
ENDBRANCH   6  11
ENDBRANCH   8   6
BRANCH  10  15
ATOM     15  C   UNL     1     -16.511   5.630  22.722  0.00  0.00    +0.138 C 
BRANCH  15   7
ATOM      5  O   UNL     1     -13.830   4.891  22.010  0.00  0.00    -0.270 OA
ATOM      7  N   UNL     1     -15.508   6.486  22.158  0.00  0.00    -0.309 N 
ATOM     18  C   UNL     1     -14.228   6.040  21.844  0.00  0.00    +0.244 C 
ATOM     27  H   UNL     1     -15.749   7.466  22.060  0.00  0.00    +0.149 HD
BRANCH  18  19
ATOM      1  F   UNL     1     -10.707   9.883  19.754  0.00  0.00    -0.205 F 
ATOM     19  C   UNL     1     -13.296   7.058  21.291  0.00  0.00    +0.037 A 
ATOM     20  C   UNL     1     -12.080   6.660  20.737  0.00  0.00    +0.016 A 
ATOM     21  C   UNL     1     -13.638   8.410  21.326  0.00  0.00    +0.016 A 
ATOM     22  C   UNL     1     -11.205   7.614  20.218  0.00  0.00    +0.039 A 
ATOM     23  C   UNL     1     -12.763   9.364  20.808  0.00  0.00    +0.039 A 
ATOM     24  C   UNL     1     -11.546   8.966  20.253  0.00  0.00    +0.123 A 
ENDBRANCH  18  19
ENDBRANCH  15   7
ENDBRANCH  10  15
TORSDOF 6
ENDMDL
MODEL 10
REMARK VINA RESULT:      -5.9     27.376     29.396
REMARK  Name = 75536635
REMARK  6 active torsions:
REMARK  status: ('A' for Active; 'I' for Inactive)
REMARK    1  A    between atoms: O_3  and  C_9
REMARK    2  A    between atoms: N_6  and  C_8
REMARK    3  A    between atoms: N_6  and  C_11
REMARK    4  A    between atoms: N_7  and  C_15
REMARK    5  A    between atoms: C_10  and  C_15
REMARK    6  A    between atoms: C_18  and  C_19
REMARK                            x       y       z     vdW  Elec       q    Type
REMARK                         _______ _______ _______ _____ _____    ______ ____
ROOT
ATOM      2  O   UNL     1     -11.829  -8.567  16.010  0.00  0.00    -0.371 OA
ATOM      8  C   UNL     1     -11.975  -6.578  14.721  0.00  0.00    +0.111 C 
ATOM      9  C   UNL     1     -10.913  -6.398  15.789  0.00  0.00    +0.164 C 
ATOM     10  C   UNL     1     -10.591  -7.846  16.131  0.00  0.00    +0.165 C 
ATOM     12  C   UNL     1     -12.760  -7.757  15.272  0.00  0.00    +0.181 C 
ENDROOT
BRANCH   9   3
ATOM      3  O   UNL     1      -9.776  -5.701  15.318  0.00  0.00    -0.388 OA
ATOM     26  H   UNL     1      -9.037  -6.329  15.257  0.00  0.00    +0.210 HD
ENDBRANCH   9   3
BRANCH   8   6
ATOM      6  N   UNL     1     -12.798  -5.398  14.510  0.00  0.00    -0.306 NA
ATOM     25  H   UNL     1     -12.384  -4.594  14.980  0.00  0.00    +0.123 HD
BRANCH   6  11
ATOM      4  O   UNL     1     -11.744  -4.608  10.524  0.00  0.00    -0.380 OA
ATOM     11  C   UNL     1     -12.956  -5.113  13.087  0.00  0.00    +0.058 C 
ATOM     13  C   UNL     1     -12.349  -6.229  12.231  0.00  0.00    +0.047 C 
ATOM     14  C   UNL     1     -12.306  -3.772  12.737  0.00  0.00    +0.047 C 
ATOM     16  C   UNL     1     -12.402  -5.854  10.755  0.00  0.00    +0.161 C 
ATOM     17  C   UNL     1     -12.362  -3.533  11.232  0.00  0.00    +0.161 C 
ENDBRANCH   6  11
ENDBRANCH   8   6
BRANCH  10  15
ATOM     15  C   UNL     1     -10.028  -8.023  17.529  0.00  0.00    +0.138 C 
BRANCH  15   7
ATOM      5  O   UNL     1      -9.193 -10.748  17.879  0.00  0.00    -0.270 OA
ATOM      7  N   UNL     1      -8.681  -8.518  17.492  0.00  0.00    -0.309 N 
ATOM     18  C   UNL     1      -8.368  -9.862  17.674  0.00  0.00    +0.244 C 
ATOM     27  H   UNL     1      -7.946  -7.828  17.397  0.00  0.00    +0.149 HD
BRANCH  18  19
ATOM      1  F   UNL     1      -2.911 -11.173  17.520  0.00  0.00    -0.205 F 
ATOM     19  C   UNL     1      -6.924 -10.209  17.634  0.00  0.00    +0.037 A 
ATOM     20  C   UNL     1      -6.165  -9.899  16.506  0.00  0.00    +0.016 A 
ATOM     21  C   UNL     1      -6.328 -10.846  18.723  0.00  0.00    +0.016 A 
ATOM     22  C   UNL     1      -4.809 -10.224  16.467  0.00  0.00    +0.039 A 
ATOM     23  C   UNL     1      -4.972 -11.171  18.684  0.00  0.00    +0.039 A 
ATOM     24  C   UNL     1      -4.213 -10.861  17.556  0.00  0.00    +0.123 A 
ENDBRANCH  18  19
ENDBRANCH  15   7
ENDBRANCH  10  15
TORSDOF 6
ENDMDL
