MODEL 1
REMARK VINA RESULT:      -7.9      0.000      0.000
REMARK  Name = 51137435
REMARK  6 active torsions:
REMARK  status: ('A' for Active; 'I' for Inactive)
REMARK    1  A    between atoms: O_2  and  C_13
REMARK    2  A    between atoms: N_3  and  C_10
REMARK    3  A    between atoms: C_6  and  C_11
REMARK    4  A    between atoms: C_10  and  C_12
REMARK    5  A    between atoms: C_14  and  C_16
REMARK    6  A    between atoms: C_24  and  C_25
REMARK                            x       y       z     vdW  Elec       q    Type
REMARK                         _______ _______ _______ _____ _____    ______ ____
ROOT
ATOM      3  N   UNL     1      11.220  10.392  22.343  0.00  0.00    -0.297 NA
ATOM      6  C   UNL     1      11.472   9.003  20.471  0.00  0.00    +0.092 C 
ATOM      7  C   UNL     1      10.623   8.284  21.534  0.00  0.00    +0.029 C 
ATOM      8  C   UNL     1      12.136  10.164  21.224  0.00  0.00    +0.097 C 
ATOM      9  C   UNL     1      10.872   9.055  22.824  0.00  0.00    +0.085 C 
ENDROOT
BRANCH   6  11
ATOM      1  O   UNL     1      13.706   8.014  20.307  0.00  0.00    -0.420 OA
ATOM      4  N   UNL     1      12.325   7.425  18.649  0.00  0.00    -0.112 NA
ATOM      5  N   UNL     1      13.539   6.802  18.434  0.00  0.00    -0.107 NA
ATOM     11  C   UNL     1      12.467   8.121  19.753  0.00  0.00    +0.222 A 
ATOM     14  C   UNL     1      14.315   7.173  19.425  0.00  0.00    +0.248 A 
BRANCH  14  16
ATOM     16  C   UNL     1      15.678   6.838  19.717  0.00  0.00    +0.038 A 
ATOM     20  C   UNL     1      16.266   7.281  20.902  0.00  0.00    +0.013 A 
ATOM     21  C   UNL     1      16.416   6.069  18.817  0.00  0.00    +0.013 A 
ATOM     22  C   UNL     1      17.592   6.955  21.187  0.00  0.00    +0.004 A 
ATOM     23  C   UNL     1      17.742   5.743  19.102  0.00  0.00    +0.004 A 
ATOM     24  C   UNL     1      18.330   6.187  20.287  0.00  0.00    -0.050 A 
ATOM     25  C   UNL     1      19.748   5.838  20.591  0.00  0.00    +0.044 C 
ENDBRANCH  14  16
ENDBRANCH   6  11
BRANCH   3  10
ATOM     10  C   UNL     1      11.811  11.219  23.385  0.00  0.00    +0.123 C 
BRANCH  10  12
ATOM     12  C   UNL     1      11.080  12.526  23.545  0.00  0.00    +0.008 A 
ATOM     13  C   UNL     1      10.841  13.059  24.811  0.00  0.00    +0.121 A 
ATOM     15  C   UNL     1      10.643  13.206  22.408  0.00  0.00    +0.008 A 
ATOM     17  C   UNL     1      10.163  14.271  24.941  0.00  0.00    +0.046 A 
ATOM     18  C   UNL     1       9.965  14.418  22.538  0.00  0.00    +0.001 A 
ATOM     19  C   UNL     1       9.725  14.950  23.805  0.00  0.00    +0.004 A 
BRANCH  13   2
ATOM      2  O   UNL     1      11.262  12.408  25.931  0.00  0.00    -0.506 OA
ATOM     26  H   UNL     1      11.671  11.565  25.673  0.00  0.00    +0.292 HD
ENDBRANCH  13   2
ENDBRANCH  10  12
ENDBRANCH   3  10
TORSDOF 5
ENDMDL
MODEL 2
REMARK VINA RESULT:      -7.2      4.957      7.627
REMARK  Name = 51137435
REMARK  6 active torsions:
REMARK  status: ('A' for Active; 'I' for Inactive)
REMARK    1  A    between atoms: O_2  and  C_13
REMARK    2  A    between atoms: N_3  and  C_10
REMARK    3  A    between atoms: C_6  and  C_11
REMARK    4  A    between atoms: C_10  and  C_12
REMARK    5  A    between atoms: C_14  and  C_16
REMARK    6  A    between atoms: C_24  and  C_25
REMARK                            x       y       z     vdW  Elec       q    Type
REMARK                         _______ _______ _______ _____ _____    ______ ____
ROOT
ATOM      3  N   UNL     1      16.408   7.183  19.951  0.00  0.00    -0.297 NA
ATOM      6  C   UNL     1      18.688   6.868  20.398  0.00  0.00    +0.092 C 
ATOM      7  C   UNL     1      18.228   5.858  19.331  0.00  0.00    +0.029 C 
ATOM      8  C   UNL     1      17.388   7.398  21.018  0.00  0.00    +0.097 C 
ATOM      9  C   UNL     1      16.708   5.851  19.425  0.00  0.00    +0.085 C 
ENDROOT
BRANCH   6  11
ATOM      1  O   UNL     1      20.431   5.271  21.034  0.00  0.00    -0.420 OA
ATOM      4  N   UNL     1      19.850   6.685  22.667  0.00  0.00    -0.112 NA
ATOM      5  N   UNL     1      20.834   5.847  23.158  0.00  0.00    -0.107 NA
ATOM     11  C   UNL     1      19.647   6.313  21.425  0.00  0.00    +0.222 A 
ATOM     14  C   UNL     1      21.143   5.039  22.172  0.00  0.00    +0.248 A 
BRANCH  14  16
ATOM     16  C   UNL     1      22.096   3.969  22.108  0.00  0.00    +0.038 A 
ATOM     20  C   UNL     1      22.486   3.312  23.275  0.00  0.00    +0.013 A 
ATOM     21  C   UNL     1      22.633   3.586  20.879  0.00  0.00    +0.013 A 
ATOM     22  C   UNL     1      23.413   2.272  23.214  0.00  0.00    +0.004 A 
ATOM     23  C   UNL     1      23.560   2.545  20.818  0.00  0.00    +0.004 A 
ATOM     24  C   UNL     1      23.950   1.889  21.985  0.00  0.00    -0.050 A 
ATOM     25  C   UNL     1      24.941   0.775  21.919  0.00  0.00    +0.044 C 
ENDBRANCH  14  16
ENDBRANCH   6  11
BRANCH   3  10
ATOM     10  C   UNL     1      15.036   7.295  20.426  0.00  0.00    +0.123 C 
BRANCH  10  12
ATOM     12  C   UNL     1      14.149   7.983  19.423  0.00  0.00    +0.008 A 
ATOM     13  C   UNL     1      12.904   7.451  19.088  0.00  0.00    +0.121 A 
ATOM     15  C   UNL     1      14.586   9.166  18.826  0.00  0.00    +0.008 A 
ATOM     17  C   UNL     1      12.095   8.102  18.157  0.00  0.00    +0.046 A 
ATOM     18  C   UNL     1      13.777   9.817  17.895  0.00  0.00    +0.001 A 
ATOM     19  C   UNL     1      12.532   9.285  17.560  0.00  0.00    +0.004 A 
BRANCH  13   2
ATOM      2  O   UNL     1      12.463   6.297  19.662  0.00  0.00    -0.506 OA
ATOM     26  H   UNL     1      12.980   6.126  20.468  0.00  0.00    +0.292 HD
ENDBRANCH  13   2
ENDBRANCH  10  12
ENDBRANCH   3  10
TORSDOF 5
ENDMDL
MODEL 3
REMARK VINA RESULT:      -7.1      4.253     10.839
REMARK  Name = 51137435
REMARK  6 active torsions:
REMARK  status: ('A' for Active; 'I' for Inactive)
REMARK    1  A    between atoms: O_2  and  C_13
REMARK    2  A    between atoms: N_3  and  C_10
REMARK    3  A    between atoms: C_6  and  C_11
REMARK    4  A    between atoms: C_10  and  C_12
REMARK    5  A    between atoms: C_14  and  C_16
REMARK    6  A    between atoms: C_24  and  C_25
REMARK                            x       y       z     vdW  Elec       q    Type
REMARK                         _______ _______ _______ _____ _____    ______ ____
ROOT
ATOM      3  N   UNL     1      21.200   5.770  21.846  0.00  0.00    -0.297 NA
ATOM      6  C   UNL     1      19.517   6.682  20.492  0.00  0.00    +0.092 C 
ATOM      7  C   UNL     1      19.507   7.379  21.864  0.00  0.00    +0.029 C 
ATOM      8  C   UNL     1      20.353   5.413  20.706  0.00  0.00    +0.097 C 
ATOM      9  C   UNL     1      20.308   6.459  22.778  0.00  0.00    +0.085 C 
ENDROOT
BRANCH   6  11
ATOM      1  O   UNL     1      17.089   6.993  20.526  0.00  0.00    -0.420 OA
ATOM      4  N   UNL     1      17.812   5.645  18.894  0.00  0.00    -0.112 NA
ATOM      5  N   UNL     1      16.436   5.731  18.798  0.00  0.00    -0.107 NA
ATOM     11  C   UNL     1      18.150   6.397  19.916  0.00  0.00    +0.222 A 
ATOM     14  C   UNL     1      16.057   6.527  19.769  0.00  0.00    +0.248 A 
BRANCH  14  16
ATOM     16  C   UNL     1      14.748   6.975  20.149  0.00  0.00    +0.038 A 
ATOM     20  C   UNL     1      13.703   6.936  19.226  0.00  0.00    +0.013 A 
ATOM     21  C   UNL     1      14.521   7.449  21.441  0.00  0.00    +0.013 A 
ATOM     22  C   UNL     1      12.430   7.371  19.595  0.00  0.00    +0.004 A 
ATOM     23  C   UNL     1      13.249   7.883  21.810  0.00  0.00    +0.004 A 
ATOM     24  C   UNL     1      12.203   7.845  20.887  0.00  0.00    -0.050 A 
ATOM     25  C   UNL     1      10.842   8.311  21.282  0.00  0.00    +0.044 C 
ENDBRANCH  14  16
ENDBRANCH   6  11
BRANCH   3  10
ATOM     10  C   UNL     1      21.840   4.609  22.447  0.00  0.00    +0.123 C 
BRANCH  10  12
ATOM     12  C   UNL     1      22.959   4.079  21.591  0.00  0.00    +0.008 A 
ATOM     13  C   UNL     1      23.946   4.933  21.098  0.00  0.00    +0.121 A 
ATOM     15  C   UNL     1      23.003   2.717  21.293  0.00  0.00    +0.008 A 
ATOM     17  C   UNL     1      24.976   4.425  20.306  0.00  0.00    +0.046 A 
ATOM     18  C   UNL     1      24.033   2.209  20.502  0.00  0.00    +0.001 A 
ATOM     19  C   UNL     1      25.019   3.063  20.008  0.00  0.00    +0.004 A 
BRANCH  13   2
ATOM      2  O   UNL     1      23.918   6.265  21.380  0.00  0.00    -0.506 OA
ATOM     26  H   UNL     1      24.659   6.479  21.973  0.00  0.00    +0.292 HD
ENDBRANCH  13   2
ENDBRANCH  10  12
ENDBRANCH   3  10
TORSDOF 5
ENDMDL
MODEL 4
REMARK VINA RESULT:      -7.1     26.404     29.626
REMARK  Name = 51137435
REMARK  6 active torsions:
REMARK  status: ('A' for Active; 'I' for Inactive)
REMARK    1  A    between atoms: O_2  and  C_13
REMARK    2  A    between atoms: N_3  and  C_10
REMARK    3  A    between atoms: C_6  and  C_11
REMARK    4  A    between atoms: C_10  and  C_12
REMARK    5  A    between atoms: C_14  and  C_16
REMARK    6  A    between atoms: C_24  and  C_25
REMARK                            x       y       z     vdW  Elec       q    Type
REMARK                         _______ _______ _______ _____ _____    ______ ____
ROOT
ATOM      3  N   UNL     1      -4.454 -11.712  17.351  0.00  0.00    -0.297 NA
ATOM      6  C   UNL     1      -6.096 -10.650  18.643  0.00  0.00    +0.092 C 
ATOM      7  C   UNL     1      -5.447 -11.779  19.463  0.00  0.00    +0.029 C 
ATOM      8  C   UNL     1      -5.686 -10.937  17.192  0.00  0.00    +0.097 C 
ATOM      9  C   UNL     1      -4.735 -12.651  18.436  0.00  0.00    +0.085 C 
ENDROOT
BRANCH   6  11
ATOM      1  O   UNL     1      -8.237  -9.670  17.970  0.00  0.00    -0.420 OA
ATOM      4  N   UNL     1      -8.389 -11.106  19.678  0.00  0.00    -0.112 NA
ATOM      5  N   UNL     1      -9.658 -10.632  19.405  0.00  0.00    -0.107 NA
ATOM     11  C   UNL     1      -7.591 -10.518  18.817  0.00  0.00    +0.222 A 
ATOM     14  C   UNL     1      -9.522  -9.798  18.402  0.00  0.00    +0.248 A 
BRANCH  14  16
ATOM     16  C   UNL     1     -10.499  -9.014  17.703  0.00  0.00    +0.038 A 
ATOM     20  C   UNL     1     -10.133  -7.799  17.124  0.00  0.00    +0.013 A 
ATOM     21  C   UNL     1     -11.815  -9.466  17.604  0.00  0.00    +0.013 A 
ATOM     22  C   UNL     1     -11.082  -7.037  16.444  0.00  0.00    +0.004 A 
ATOM     23  C   UNL     1     -12.764  -8.704  16.924  0.00  0.00    +0.004 A 
ATOM     24  C   UNL     1     -12.398  -7.489  16.344  0.00  0.00    -0.050 A 
ATOM     25  C   UNL     1     -13.414  -6.673  15.617  0.00  0.00    +0.044 C 
ENDBRANCH  14  16
ENDBRANCH   6  11
BRANCH   3  10
ATOM     10  C   UNL     1      -4.061 -12.387  16.122  0.00  0.00    +0.123 C 
BRANCH  10  12
ATOM     12  C   UNL     1      -3.175 -11.523  15.265  0.00  0.00    +0.008 A 
ATOM     13  C   UNL     1      -2.027 -10.933  15.794  0.00  0.00    +0.121 A 
ATOM     15  C   UNL     1      -3.512 -11.316  13.928  0.00  0.00    +0.008 A 
ATOM     17  C   UNL     1      -1.218 -10.135  14.986  0.00  0.00    +0.046 A 
ATOM     18  C   UNL     1      -2.702 -10.519  13.119  0.00  0.00    +0.001 A 
ATOM     19  C   UNL     1      -1.555  -9.928  13.649  0.00  0.00    +0.004 A 
BRANCH  13   2
ATOM      2  O   UNL     1      -1.684 -11.125  17.098  0.00  0.00    -0.506 OA
ATOM     26  H   UNL     1      -0.813 -11.558  17.136  0.00  0.00    +0.292 HD
ENDBRANCH  13   2
ENDBRANCH  10  12
ENDBRANCH   3  10
TORSDOF 5
ENDMDL
MODEL 5
REMARK VINA RESULT:      -7.0     26.198     28.965
REMARK  Name = 51137435
REMARK  6 active torsions:
REMARK  status: ('A' for Active; 'I' for Inactive)
REMARK    1  A    between atoms: O_2  and  C_13
REMARK    2  A    between atoms: N_3  and  C_10
REMARK    3  A    between atoms: C_6  and  C_11
REMARK    4  A    between atoms: C_10  and  C_12
REMARK    5  A    between atoms: C_14  and  C_16
REMARK    6  A    between atoms: C_24  and  C_25
REMARK                            x       y       z     vdW  Elec       q    Type
REMARK                         _______ _______ _______ _____ _____    ______ ____
ROOT
ATOM      3  N   UNL     1      -2.311 -10.919  13.992  0.00  0.00    -0.297 NA
ATOM      6  C   UNL     1      -3.273 -10.288  16.035  0.00  0.00    +0.092 C 
ATOM      7  C   UNL     1      -1.819 -10.737  16.268  0.00  0.00    +0.029 C 
ATOM      8  C   UNL     1      -3.622 -10.811  14.635  0.00  0.00    +0.097 C 
ATOM      9  C   UNL     1      -1.439 -11.506  15.009  0.00  0.00    +0.085 C 
ENDROOT
BRANCH   6  11
ATOM      1  O   UNL     1      -5.524 -10.261  16.998  0.00  0.00    -0.420 OA
ATOM      4  N   UNL     1      -4.069 -11.538  18.118  0.00  0.00    -0.112 NA
ATOM      5  N   UNL     1      -5.289 -11.613  18.765  0.00  0.00    -0.107 NA
ATOM     11  C   UNL     1      -4.253 -10.739  17.094  0.00  0.00    +0.222 A 
ATOM     14  C   UNL     1      -6.108 -10.853  18.077  0.00  0.00    +0.248 A 
BRANCH  14  16
ATOM     16  C   UNL     1      -7.496 -10.554  18.281  0.00  0.00    +0.038 A 
ATOM     20  C   UNL     1      -8.201 -11.189  19.303  0.00  0.00    +0.013 A 
ATOM     21  C   UNL     1      -8.139  -9.631  17.458  0.00  0.00    +0.013 A 
ATOM     22  C   UNL     1      -9.551 -10.900  19.503  0.00  0.00    +0.004 A 
ATOM     23  C   UNL     1      -9.489  -9.342  17.657  0.00  0.00    +0.004 A 
ATOM     24  C   UNL     1     -10.195  -9.976  18.680  0.00  0.00    -0.050 A 
ATOM     25  C   UNL     1     -11.639  -9.666  18.893  0.00  0.00    +0.044 C 
ENDBRANCH  14  16
ENDBRANCH   6  11
BRANCH   3  10
ATOM     10  C   UNL     1      -2.354 -11.713  12.773  0.00  0.00    +0.123 C 
BRANCH  10  12
ATOM     12  C   UNL     1      -2.984 -10.958  11.633  0.00  0.00    +0.008 A 
ATOM     13  C   UNL     1      -2.363  -9.834  11.092  0.00  0.00    +0.121 A 
ATOM     15  C   UNL     1      -4.204 -11.396  11.119  0.00  0.00    +0.008 A 
ATOM     17  C   UNL     1      -2.961  -9.146  10.036  0.00  0.00    +0.046 A 
ATOM     18  C   UNL     1      -4.803 -10.710  10.062  0.00  0.00    +0.001 A 
ATOM     19  C   UNL     1      -4.181  -9.584   9.521  0.00  0.00    +0.004 A 
BRANCH  13   2
ATOM      2  O   UNL     1      -1.171  -9.393  11.583  0.00  0.00    -0.506 OA
ATOM     26  H   UNL     1      -1.338  -8.797  12.333  0.00  0.00    +0.292 HD
ENDBRANCH  13   2
ENDBRANCH  10  12
ENDBRANCH   3  10
TORSDOF 5
ENDMDL
MODEL 6
REMARK VINA RESULT:      -6.9     18.492     20.991
REMARK  Name = 51137435
REMARK  6 active torsions:
REMARK  status: ('A' for Active; 'I' for Inactive)
REMARK    1  A    between atoms: O_2  and  C_13
REMARK    2  A    between atoms: N_3  and  C_10
REMARK    3  A    between atoms: C_6  and  C_11
REMARK    4  A    between atoms: C_10  and  C_12
REMARK    5  A    between atoms: C_14  and  C_16
REMARK    6  A    between atoms: C_24  and  C_25
REMARK                            x       y       z     vdW  Elec       q    Type
REMARK                         _______ _______ _______ _____ _____    ______ ____
ROOT
ATOM      3  N   UNL     1      10.692   5.259   4.176  0.00  0.00    -0.297 NA
ATOM      6  C   UNL     1      12.001   4.473   2.398  0.00  0.00    +0.092 C 
ATOM      7  C   UNL     1      12.402   5.921   2.729  0.00  0.00    +0.029 C 
ATOM      8  C   UNL     1      10.649   4.273   3.095  0.00  0.00    +0.097 C 
ATOM      9  C   UNL     1      11.250   6.465   3.565  0.00  0.00    +0.085 C 
ENDROOT
BRANCH   6  11
ATOM      1  O   UNL     1      10.892   4.623   0.220  0.00  0.00    -0.420 OA
ATOM      4  N   UNL     1      12.804   3.464   0.190  0.00  0.00    -0.112 NA
ATOM      5  N   UNL     1      12.289   3.469  -1.092  0.00  0.00    -0.107 NA
ATOM     11  C   UNL     1      11.957   4.149   0.922  0.00  0.00    +0.222 A 
ATOM     14  C   UNL     1      11.173   4.157  -1.028  0.00  0.00    +0.248 A 
BRANCH  14  16
ATOM     16  C   UNL     1      10.222   4.487  -2.050  0.00  0.00    +0.038 A 
ATOM     20  C   UNL     1       9.339   5.551  -1.863  0.00  0.00    +0.013 A 
ATOM     21  C   UNL     1      10.179   3.743  -3.229  0.00  0.00    +0.013 A 
ATOM     22  C   UNL     1       8.414   5.872  -2.856  0.00  0.00    +0.004 A 
ATOM     23  C   UNL     1       9.254   4.065  -4.222  0.00  0.00    +0.004 A 
ATOM     24  C   UNL     1       8.371   5.129  -4.035  0.00  0.00    -0.050 A 
ATOM     25  C   UNL     1       7.381   5.473  -5.097  0.00  0.00    +0.044 C 
ENDBRANCH  14  16
ENDBRANCH   6  11
BRANCH   3  10
ATOM     10  C   UNL     1       9.383   5.493   4.767  0.00  0.00    +0.123 C 
BRANCH  10  12
ATOM     12  C   UNL     1       9.437   5.486   6.272  0.00  0.00    +0.008 A 
ATOM     13  C   UNL     1       9.817   4.339   6.967  0.00  0.00    +0.121 A 
ATOM     15  C   UNL     1       9.102   6.646   6.971  0.00  0.00    +0.008 A 
ATOM     17  C   UNL     1       9.862   4.350   8.361  0.00  0.00    +0.046 A 
ATOM     18  C   UNL     1       9.147   6.659   8.365  0.00  0.00    +0.001 A 
ATOM     19  C   UNL     1       9.527   5.510   9.060  0.00  0.00    +0.004 A 
BRANCH  13   2
ATOM      2  O   UNL     1      10.148   3.198   6.300  0.00  0.00    -0.506 OA
ATOM     26  H   UNL     1       9.497   2.507   6.512  0.00  0.00    +0.292 HD
ENDBRANCH  13   2
ENDBRANCH  10  12
ENDBRANCH   3  10
TORSDOF 5
ENDMDL
MODEL 7
REMARK VINA RESULT:      -6.9     27.392     29.906
REMARK  Name = 51137435
REMARK  6 active torsions:
REMARK  status: ('A' for Active; 'I' for Inactive)
REMARK    1  A    between atoms: O_2  and  C_13
REMARK    2  A    between atoms: N_3  and  C_10
REMARK    3  A    between atoms: C_6  and  C_11
REMARK    4  A    between atoms: C_10  and  C_12
REMARK    5  A    between atoms: C_14  and  C_16
REMARK    6  A    between atoms: C_24  and  C_25
REMARK                            x       y       z     vdW  Elec       q    Type
REMARK                         _______ _______ _______ _____ _____    ______ ____
ROOT
ATOM      3  N   UNL     1     -15.782   2.381  28.894  0.00  0.00    -0.297 NA
ATOM      6  C   UNL     1     -16.828   2.707  26.821  0.00  0.00    +0.092 C 
ATOM      7  C   UNL     1     -17.090   1.271  27.309  0.00  0.00    +0.029 C 
ATOM      8  C   UNL     1     -15.668   3.209  27.691  0.00  0.00    +0.097 C 
ATOM      9  C   UNL     1     -16.053   1.032  28.399  0.00  0.00    +0.085 C 
ENDROOT
BRANCH   6  11
ATOM      1  O   UNL     1     -15.879   3.945  24.934  0.00  0.00    -0.420 OA
ATOM      4  N   UNL     1     -16.867   2.023  24.358  0.00  0.00    -0.112 NA
ATOM      5  N   UNL     1     -16.380   2.614  23.208  0.00  0.00    -0.107 NA
ATOM     11  C   UNL     1     -16.552   2.834  25.341  0.00  0.00    +0.222 A 
ATOM     14  C   UNL     1     -15.811   3.733  23.590  0.00  0.00    +0.248 A 
BRANCH  14  16
ATOM     16  C   UNL     1     -15.143   4.747  22.828  0.00  0.00    +0.038 A 
ATOM     20  C   UNL     1     -13.756   4.705  22.677  0.00  0.00    +0.013 A 
ATOM     21  C   UNL     1     -15.878   5.774  22.238  0.00  0.00    +0.013 A 
ATOM     22  C   UNL     1     -13.105   5.690  21.936  0.00  0.00    +0.004 A 
ATOM     23  C   UNL     1     -15.227   6.760  21.496  0.00  0.00    +0.004 A 
ATOM     24  C   UNL     1     -13.841   6.718  21.346  0.00  0.00    -0.050 A 
ATOM     25  C   UNL     1     -13.144   7.773  20.553  0.00  0.00    +0.044 C 
ENDBRANCH  14  16
ENDBRANCH   6  11
BRANCH   3  10
ATOM     10  C   UNL     1     -14.587   2.438  29.723  0.00  0.00    +0.123 C 
BRANCH  10  12
ATOM     12  C   UNL     1     -14.830   3.186  31.007  0.00  0.00    +0.008 A 
ATOM     13  C   UNL     1     -13.764   3.578  31.817  0.00  0.00    +0.121 A 
ATOM     15  C   UNL     1     -16.139   3.486  31.383  0.00  0.00    +0.008 A 
ATOM     17  C   UNL     1     -14.007   4.269  33.003  0.00  0.00    +0.046 A 
ATOM     18  C   UNL     1     -16.382   4.179  32.569  0.00  0.00    +0.001 A 
ATOM     19  C   UNL     1     -15.316   4.570  33.379  0.00  0.00    +0.004 A 
BRANCH  13   2
ATOM      2  O   UNL     1     -12.480   3.292  31.463  0.00  0.00    -0.506 OA
ATOM     26  H   UNL     1     -11.982   3.035  32.258  0.00  0.00    +0.292 HD
ENDBRANCH  13   2
ENDBRANCH  10  12
ENDBRANCH   3  10
TORSDOF 5
ENDMDL
MODEL 8
REMARK VINA RESULT:      -6.8     28.096     29.899
REMARK  Name = 51137435
REMARK  6 active torsions:
REMARK  status: ('A' for Active; 'I' for Inactive)
REMARK    1  A    between atoms: O_2  and  C_13
REMARK    2  A    between atoms: N_3  and  C_10
REMARK    3  A    between atoms: C_6  and  C_11
REMARK    4  A    between atoms: C_10  and  C_12
REMARK    5  A    between atoms: C_14  and  C_16
REMARK    6  A    between atoms: C_24  and  C_25
REMARK                            x       y       z     vdW  Elec       q    Type
REMARK                         _______ _______ _______ _____ _____    ______ ____
ROOT
ATOM      3  N   UNL     1     -11.831  -6.567  14.532  0.00  0.00    -0.297 NA
ATOM      6  C   UNL     1     -10.091  -7.872  15.407  0.00  0.00    +0.092 C 
ATOM      7  C   UNL     1     -10.786  -8.639  14.268  0.00  0.00    +0.029 C 
ATOM      8  C   UNL     1     -11.066  -6.743  15.768  0.00  0.00    +0.097 C 
ATOM      9  C   UNL     1     -12.117  -7.924  14.068  0.00  0.00    +0.085 C 
ENDROOT
BRANCH   6  11
ATOM      1  O   UNL     1      -8.403  -9.114  16.673  0.00  0.00    -0.420 OA
ATOM      4  N   UNL     1     -10.440  -9.148  17.595  0.00  0.00    -0.112 NA
ATOM      5  N   UNL     1      -9.593  -9.880  18.405  0.00  0.00    -0.107 NA
ATOM     11  C   UNL     1      -9.703  -8.719  16.597  0.00  0.00    +0.222 A 
ATOM     14  C   UNL     1      -8.415  -9.834  17.829  0.00  0.00    +0.248 A 
BRANCH  14  16
ATOM     16  C   UNL     1      -7.163 -10.413  18.221  0.00  0.00    +0.038 A 
ATOM     20  C   UNL     1      -7.059 -11.092  19.435  0.00  0.00    +0.013 A 
ATOM     21  C   UNL     1      -6.050 -10.296  17.389  0.00  0.00    +0.013 A 
ATOM     22  C   UNL     1      -5.842 -11.655  19.817  0.00  0.00    +0.004 A 
ATOM     23  C   UNL     1      -4.833 -10.860  17.771  0.00  0.00    +0.004 A 
ATOM     24  C   UNL     1      -4.728 -11.539  18.985  0.00  0.00    -0.050 A 
ATOM     25  C   UNL     1      -3.426 -12.141  19.393  0.00  0.00    +0.044 C 
ENDBRANCH  14  16
ENDBRANCH   6  11
BRANCH   3  10
ATOM     10  C   UNL     1     -13.041  -5.784  14.736  0.00  0.00    +0.123 C 
BRANCH  10  12
ATOM     12  C   UNL     1     -13.325  -4.876  13.569  0.00  0.00    +0.008 A 
ATOM     13  C   UNL     1     -14.634  -4.650  13.143  0.00  0.00    +0.121 A 
ATOM     15  C   UNL     1     -12.261  -4.258  12.912  0.00  0.00    +0.008 A 
ATOM     17  C   UNL     1     -14.879  -3.806  12.060  0.00  0.00    +0.046 A 
ATOM     18  C   UNL     1     -12.506  -3.414  11.829  0.00  0.00    +0.001 A 
ATOM     19  C   UNL     1     -13.815  -3.188  11.403  0.00  0.00    +0.004 A 
BRANCH  13   2
ATOM      2  O   UNL     1     -15.684  -5.245  13.774  0.00  0.00    -0.506 OA
ATOM     26  H   UNL     1     -15.825  -6.128  13.391  0.00  0.00    +0.292 HD
ENDBRANCH  13   2
ENDBRANCH  10  12
ENDBRANCH   3  10
TORSDOF 5
ENDMDL
MODEL 9
REMARK VINA RESULT:      -6.6     27.720     29.140
REMARK  Name = 51137435
REMARK  6 active torsions:
REMARK  status: ('A' for Active; 'I' for Inactive)
REMARK    1  A    between atoms: O_2  and  C_13
REMARK    2  A    between atoms: N_3  and  C_10
REMARK    3  A    between atoms: C_6  and  C_11
REMARK    4  A    between atoms: C_10  and  C_12
REMARK    5  A    between atoms: C_14  and  C_16
REMARK    6  A    between atoms: C_24  and  C_25
REMARK                            x       y       z     vdW  Elec       q    Type
REMARK                         _______ _______ _______ _____ _____    ______ ____
ROOT
ATOM      3  N   UNL     1      -6.671  -8.646   9.070  0.00  0.00    -0.297 NA
ATOM      6  C   UNL     1      -4.939  -8.907  10.629  0.00  0.00    +0.092 C 
ATOM      7  C   UNL     1      -4.424  -9.263   9.223  0.00  0.00    +0.029 C 
ATOM      8  C   UNL     1      -6.468  -8.912  10.496  0.00  0.00    +0.097 C 
ATOM      9  C   UNL     1      -5.680  -9.476   8.386  0.00  0.00    +0.085 C 
ENDROOT
BRANCH   6  11
ATOM      1  O   UNL     1      -4.959  -9.602  12.976  0.00  0.00    -0.420 OA
ATOM      4  N   UNL     1      -3.565 -10.784  11.688  0.00  0.00    -0.112 NA
ATOM      5  N   UNL     1      -3.476 -11.277  12.975  0.00  0.00    -0.107 NA
ATOM     11  C   UNL     1      -4.441  -9.808  11.734  0.00  0.00    +0.222 A 
ATOM     14  C   UNL     1      -4.306 -10.558  13.694  0.00  0.00    +0.248 A 
BRANCH  14  16
ATOM     16  C   UNL     1      -4.627 -10.623  15.090  0.00  0.00    +0.038 A 
ATOM     20  C   UNL     1      -5.811 -10.055  15.560  0.00  0.00    +0.013 A 
ATOM     21  C   UNL     1      -3.754 -11.252  15.978  0.00  0.00    +0.013 A 
ATOM     22  C   UNL     1      -6.123 -10.117  16.918  0.00  0.00    +0.004 A 
ATOM     23  C   UNL     1      -4.067 -11.314  17.336  0.00  0.00    +0.004 A 
ATOM     24  C   UNL     1      -5.251 -10.746  17.806  0.00  0.00    -0.050 A 
ATOM     25  C   UNL     1      -5.585 -10.812  19.258  0.00  0.00    +0.044 C 
ENDBRANCH  14  16
ENDBRANCH   6  11
BRANCH   3  10
ATOM     10  C   UNL     1      -8.031  -8.939   8.639  0.00  0.00    +0.123 C 
BRANCH  10  12
ATOM     12  C   UNL     1      -8.934  -7.743   8.781  0.00  0.00    +0.008 A 
ATOM     13  C   UNL     1      -8.546  -6.494   8.298  0.00  0.00    +0.121 A 
ATOM     15  C   UNL     1     -10.172  -7.895   9.405  0.00  0.00    +0.008 A 
ATOM     17  C   UNL     1      -9.395  -5.396   8.438  0.00  0.00    +0.046 A 
ATOM     18  C   UNL     1     -11.023  -6.798   9.545  0.00  0.00    +0.001 A 
ATOM     19  C   UNL     1     -10.633  -5.548   9.061  0.00  0.00    +0.004 A 
BRANCH  13   2
ATOM      2  O   UNL     1      -7.340  -6.328   7.686  0.00  0.00    -0.506 OA
ATOM     26  H   UNL     1      -6.760  -7.072   7.922  0.00  0.00    +0.292 HD
ENDBRANCH  13   2
ENDBRANCH  10  12
ENDBRANCH   3  10
TORSDOF 5
ENDMDL
MODEL 10
REMARK VINA RESULT:      -6.5     26.591     28.521
REMARK  Name = 51137435
REMARK  6 active torsions:
REMARK  status: ('A' for Active; 'I' for Inactive)
REMARK    1  A    between atoms: O_2  and  C_13
REMARK    2  A    between atoms: N_3  and  C_10
REMARK    3  A    between atoms: C_6  and  C_11
REMARK    4  A    between atoms: C_10  and  C_12
REMARK    5  A    between atoms: C_14  and  C_16
REMARK    6  A    between atoms: C_24  and  C_25
REMARK                            x       y       z     vdW  Elec       q    Type
REMARK                         _______ _______ _______ _____ _____    ______ ____
ROOT
ATOM      3  N   UNL     1      -3.800 -12.249  15.578  0.00  0.00    -0.297 NA
ATOM      6  C   UNL     1      -2.420 -11.419  13.874  0.00  0.00    +0.092 C 
ATOM      7  C   UNL     1      -2.240 -10.567  15.143  0.00  0.00    +0.029 C 
ATOM      8  C   UNL     1      -3.712 -12.210  14.117  0.00  0.00    +0.097 C 
ATOM      9  C   UNL     1      -3.445 -10.899  16.014  0.00  0.00    +0.085 C 
ENDROOT
BRANCH   6  11
ATOM      1  O   UNL     1      -3.632 -10.571  11.923  0.00  0.00    -0.420 OA
ATOM      4  N   UNL     1      -1.472  -9.992  11.976  0.00  0.00    -0.112 NA
ATOM      5  N   UNL     1      -2.030  -9.453  10.833  0.00  0.00    -0.107 NA
ATOM     11  C   UNL     1      -2.442 -10.636  12.582  0.00  0.00    +0.222 A 
ATOM     14  C   UNL     1      -3.291  -9.815  10.842  0.00  0.00    +0.248 A 
BRANCH  14  16
ATOM     16  C   UNL     1      -4.345  -9.545   9.909  0.00  0.00    +0.038 A 
ATOM     20  C   UNL     1      -5.291  -8.559  10.192  0.00  0.00    +0.013 A 
ATOM     21  C   UNL     1      -4.425 -10.267   8.718  0.00  0.00    +0.013 A 
ATOM     22  C   UNL     1      -6.316  -8.295   9.285  0.00  0.00    +0.004 A 
ATOM     23  C   UNL     1      -5.451 -10.002   7.811  0.00  0.00    +0.004 A 
ATOM     24  C   UNL     1      -6.397  -9.017   8.094  0.00  0.00    -0.050 A 
ATOM     25  C   UNL     1      -7.494  -8.735   7.123  0.00  0.00    +0.044 C 
ENDBRANCH  14  16
ENDBRANCH   6  11
BRANCH   3  10
ATOM     10  C   UNL     1      -5.118 -12.653  16.045  0.00  0.00    +0.123 C 
BRANCH  10  12
ATOM     12  C   UNL     1      -5.505 -11.946  17.316  0.00  0.00    +0.008 A 
ATOM     13  C   UNL     1      -4.994 -12.359  18.546  0.00  0.00    +0.121 A 
ATOM     15  C   UNL     1      -6.385 -10.865  17.254  0.00  0.00    +0.008 A 
ATOM     17  C   UNL     1      -5.363 -11.692  19.714  0.00  0.00    +0.046 A 
ATOM     18  C   UNL     1      -6.753 -10.197  18.422  0.00  0.00    +0.001 A 
ATOM     19  C   UNL     1      -6.243 -10.611  19.652  0.00  0.00    +0.004 A 
BRANCH  13   2
ATOM      2  O   UNL     1      -4.134 -13.412  18.624  0.00  0.00    -0.506 OA
ATOM     26  H   UNL     1      -3.254 -13.125  18.326  0.00  0.00    +0.292 HD
ENDBRANCH  13   2
ENDBRANCH  10  12
ENDBRANCH   3  10
TORSDOF 5
ENDMDL
