MODEL 1
REMARK VINA RESULT:      -8.2      0.000      0.000
REMARK  Name = 7142828
REMARK  2 active torsions:
REMARK  status: ('A' for Active; 'I' for Inactive)
REMARK    1  A    between atoms: N_8  and  C_20
REMARK    2  A    between atoms: N_9  and  C_26
REMARK                            x       y       z     vdW  Elec       q    Type
REMARK                         _______ _______ _______ _____ _____    ______ ____
ROOT
ATOM      2  O   UNL     1      17.037   5.399  19.125  0.00  0.00    -0.266 OA
ATOM      4  N   UNL     1      14.395   9.679  19.238  0.00  0.00    -0.299 N 
ATOM      5  N   UNL     1      16.025   7.141  20.307  0.00  0.00    -0.310 N 
ATOM      6  N   UNL     1      15.244  11.684  18.331  0.00  0.00    -0.223 NA
ATOM      7  N   UNL     1      14.339   9.972  16.897  0.00  0.00    -0.223 NA
ATOM     10  C   UNL     1      13.505   7.583  20.241  0.00  0.00    +0.027 C 
ATOM     11  C   UNL     1      14.961   9.047  21.565  0.00  0.00    +0.054 C 
ATOM     12  C   UNL     1      13.707   8.181  21.625  0.00  0.00    +0.018 C 
ATOM     13  C   UNL     1      13.314   8.688  19.185  0.00  0.00    +0.113 C 
ATOM     14  C   UNL     1      14.692   6.668  19.915  0.00  0.00    +0.130 C 
ATOM     15  C   UNL     1      14.746  10.202  20.567  0.00  0.00    +0.117 C 
ATOM     16  C   UNL     1      16.179   8.235  21.164  0.00  0.00    +0.027 A 
ATOM     17  C   UNL     1      17.400   8.581  21.607  0.00  0.00    +0.024 A 
ATOM     18  C   UNL     1      17.125   6.379  19.865  0.00  0.00    +0.273 A 
ATOM     19  C   UNL     1      14.668  10.471  18.120  0.00  0.00    +0.218 A 
ATOM     20  C   UNL     1      18.471   6.812  20.359  0.00  0.00    +0.100 A 
ATOM     21  C   UNL     1      18.567   7.854  21.192  0.00  0.00    +0.030 A 
ATOM     22  C   UNL     1      15.496  12.421  17.229  0.00  0.00    +0.116 A 
ATOM     23  C   UNL     1      14.617  10.762  15.839  0.00  0.00    +0.116 A 
ATOM     25  C   UNL     1      15.200  12.009  15.947  0.00  0.00    +0.039 A 
ENDROOT
BRANCH  20   8
ATOM      3  O   UNL     1      20.476   5.683  22.030  0.00  0.00    -0.252 OA
ATOM      8  N   UNL     1      19.563   6.110  19.942  0.00  0.00    -0.265 N 
ATOM      9  N   UNL     1      21.515   4.911  20.073  0.00  0.00    -0.269 N 
ATOM     24  C   UNL     1      20.524   5.572  20.807  0.00  0.00    +0.308 C 
ATOM     32  H   UNL     1      19.816   6.193  18.961  0.00  0.00    +0.157 HD
ATOM     33  H   UNL     1      21.405   4.908  19.061  0.00  0.00    +0.156 HD
BRANCH   9  26
ATOM      1 CL   UNL     1      26.285   2.096  22.121  0.00  0.00    -0.084 Cl
ATOM     26  C   UNL     1      22.658   4.237  20.564  0.00  0.00    +0.035 A 
ATOM     27  C   UNL     1      22.502   3.028  21.221  0.00  0.00    +0.025 A 
ATOM     28  C   UNL     1      23.909   4.801  20.378  0.00  0.00    +0.025 A 
ATOM     29  C   UNL     1      23.628   2.363  21.704  0.00  0.00    +0.022 A 
ATOM     30  C   UNL     1      25.036   4.136  20.862  0.00  0.00    +0.022 A 
ATOM     31  C   UNL     1      24.896   2.917  21.525  0.00  0.00    +0.041 A 
ENDBRANCH   9  26
ENDBRANCH  20   8
TORSDOF 2
ENDMDL
MODEL 2
REMARK VINA RESULT:      -7.7     14.090     16.194
REMARK  Name = 7142828
REMARK  2 active torsions:
REMARK  status: ('A' for Active; 'I' for Inactive)
REMARK    1  A    between atoms: N_8  and  C_20
REMARK    2  A    between atoms: N_9  and  C_26
REMARK                            x       y       z     vdW  Elec       q    Type
REMARK                         _______ _______ _______ _____ _____    ______ ____
ROOT
ATOM      2  O   UNL     1      13.701   6.803   7.420  0.00  0.00    -0.266 OA
ATOM      4  N   UNL     1       9.894   5.900   4.257  0.00  0.00    -0.299 N 
ATOM      5  N   UNL     1      11.613   7.354   6.531  0.00  0.00    -0.310 N 
ATOM      6  N   UNL     1      10.172   6.016   1.918  0.00  0.00    -0.223 NA
ATOM      7  N   UNL     1      10.940   4.096   3.154  0.00  0.00    -0.223 NA
ATOM     10  C   UNL     1       9.573   5.819   6.724  0.00  0.00    +0.027 C 
ATOM     11  C   UNL     1       9.377   7.957   5.537  0.00  0.00    +0.054 C 
ATOM     12  C   UNL     1       8.763   7.105   6.642  0.00  0.00    +0.018 C 
ATOM     13  C   UNL     1       9.519   5.048   5.392  0.00  0.00    +0.113 C 
ATOM     14  C   UNL     1      11.010   6.161   7.138  0.00  0.00    +0.130 C 
ATOM     15  C   UNL     1       9.255   7.222   4.187  0.00  0.00    +0.117 C 
ATOM     16  C   UNL     1      10.834   8.275   5.824  0.00  0.00    +0.027 A 
ATOM     17  C   UNL     1      11.378   9.419   5.378  0.00  0.00    +0.024 A 
ATOM     18  C   UNL     1      12.980   7.575   6.787  0.00  0.00    +0.273 A 
ATOM     19  C   UNL     1      10.349   5.318   3.072  0.00  0.00    +0.218 A 
ATOM     20  C   UNL     1      13.556   8.850   6.251  0.00  0.00    +0.100 A 
ATOM     21  C   UNL     1      12.768   9.708   5.595  0.00  0.00    +0.030 A 
ATOM     22  C   UNL     1      10.624   5.426   0.793  0.00  0.00    +0.116 A 
ATOM     23  C   UNL     1      11.368   3.564   1.990  0.00  0.00    +0.116 A 
ATOM     25  C   UNL     1      11.236   4.190   0.767  0.00  0.00    +0.039 A 
ENDROOT
BRANCH  20   8
ATOM      3  O   UNL     1      15.729   7.558   4.947  0.00  0.00    -0.252 OA
ATOM      8  N   UNL     1      14.881   9.093   6.464  0.00  0.00    -0.265 N 
ATOM      9  N   UNL     1      17.156   8.904   6.235  0.00  0.00    -0.269 N 
ATOM     24  C   UNL     1      15.916   8.429   5.794  0.00  0.00    +0.308 C 
ATOM     32  H   UNL     1      15.125   9.597   7.312  0.00  0.00    +0.157 HD
ATOM     33  H   UNL     1      17.137   9.634   6.943  0.00  0.00    +0.156 HD
BRANCH   9  26
ATOM      1 CL   UNL     1      22.531   7.208   4.471  0.00  0.00    -0.084 Cl
ATOM     26  C   UNL     1      18.443   8.497   5.812  0.00  0.00    +0.035 A 
ATOM     27  C   UNL     1      18.652   8.183   4.479  0.00  0.00    +0.025 A 
ATOM     28  C   UNL     1      19.469   8.421   6.740  0.00  0.00    +0.025 A 
ATOM     29  C   UNL     1      19.922   7.783   4.063  0.00  0.00    +0.022 A 
ATOM     30  C   UNL     1      20.738   8.020   6.324  0.00  0.00    +0.022 A 
ATOM     31  C   UNL     1      20.965   7.702   4.985  0.00  0.00    +0.041 A 
ENDBRANCH   9  26
ENDBRANCH  20   8
TORSDOF 2
ENDMDL
MODEL 3
REMARK VINA RESULT:      -7.7      2.274      2.925
REMARK  Name = 7142828
REMARK  2 active torsions:
REMARK  status: ('A' for Active; 'I' for Inactive)
REMARK    1  A    between atoms: N_8  and  C_20
REMARK    2  A    between atoms: N_9  and  C_26
REMARK                            x       y       z     vdW  Elec       q    Type
REMARK                         _______ _______ _______ _____ _____    ______ ____
ROOT
ATOM      2  O   UNL     1      15.481   6.036  19.549  0.00  0.00    -0.266 OA
ATOM      4  N   UNL     1      13.191  10.227  17.965  0.00  0.00    -0.299 N 
ATOM      5  N   UNL     1      13.926   7.752  19.855  0.00  0.00    -0.310 N 
ATOM      6  N   UNL     1      14.366  12.253  17.689  0.00  0.00    -0.223 NA
ATOM      7  N   UNL     1      14.529  10.503  16.042  0.00  0.00    -0.223 NA
ATOM     10  C   UNL     1      11.928   8.108  18.295  0.00  0.00    +0.027 C 
ATOM     11  C   UNL     1      12.278   9.628  20.188  0.00  0.00    +0.054 C 
ATOM     12  C   UNL     1      11.254   8.721  19.514  0.00  0.00    +0.018 C 
ATOM     13  C   UNL     1      12.375   9.200  17.305  0.00  0.00    +0.113 C 
ATOM     14  C   UNL     1      13.097   7.232  18.760  0.00  0.00    +0.130 C 
ATOM     15  C   UNL     1      12.671  10.769  19.229  0.00  0.00    +0.117 C 
ATOM     16  C   UNL     1      13.514   8.855  20.609  0.00  0.00    +0.027 A 
ATOM     17  C   UNL     1      14.225   9.244  21.681  0.00  0.00    +0.024 A 
ATOM     18  C   UNL     1      15.090   7.024  20.172  0.00  0.00    +0.273 A 
ATOM     19  C   UNL     1      14.056  11.020  17.207  0.00  0.00    +0.218 A 
ATOM     20  C   UNL     1      15.868   7.505  21.357  0.00  0.00    +0.100 A 
ATOM     21  C   UNL     1      15.426   8.555  22.059  0.00  0.00    +0.030 A 
ATOM     22  C   UNL     1      15.205  12.991  16.934  0.00  0.00    +0.116 A 
ATOM     23  C   UNL     1      15.363  11.295  15.336  0.00  0.00    +0.116 A 
ATOM     25  C   UNL     1      15.739  12.561  15.737  0.00  0.00    +0.039 A 
ENDROOT
BRANCH  20   8
ATOM      3  O   UNL     1      18.527   8.425  20.940  0.00  0.00    -0.252 OA
ATOM      8  N   UNL     1      17.011   6.837  21.687  0.00  0.00    -0.265 N 
ATOM      9  N   UNL     1      19.255   6.415  21.909  0.00  0.00    -0.269 N 
ATOM     24  C   UNL     1      18.300   7.334  21.461  0.00  0.00    +0.308 C 
ATOM     32  H   UNL     1      16.923   5.842  21.877  0.00  0.00    +0.157 HD
ATOM     33  H   UNL     1      18.900   5.556  22.322  0.00  0.00    +0.156 HD
BRANCH   9  26
ATOM      1 CL   UNL     1      25.137   6.912  21.726  0.00  0.00    -0.084 Cl
ATOM     26  C   UNL     1      20.664   6.534  21.865  0.00  0.00    +0.035 A 
ATOM     27  C   UNL     1      21.300   6.622  20.638  0.00  0.00    +0.025 A 
ATOM     28  C   UNL     1      21.380   6.559  23.051  0.00  0.00    +0.025 A 
ATOM     29  C   UNL     1      22.689   6.740  20.594  0.00  0.00    +0.022 A 
ATOM     30  C   UNL     1      22.769   6.676  23.008  0.00  0.00    +0.022 A 
ATOM     31  C   UNL     1      23.424   6.767  21.780  0.00  0.00    +0.041 A 
ENDBRANCH   9  26
ENDBRANCH  20   8
TORSDOF 2
ENDMDL
MODEL 4
REMARK VINA RESULT:      -7.6     29.119     31.635
REMARK  Name = 7142828
REMARK  2 active torsions:
REMARK  status: ('A' for Active; 'I' for Inactive)
REMARK    1  A    between atoms: N_8  and  C_20
REMARK    2  A    between atoms: N_9  and  C_26
REMARK                            x       y       z     vdW  Elec       q    Type
REMARK                         _______ _______ _______ _____ _____    ______ ____
ROOT
ATOM      2  O   UNL     1      -5.356 -12.242  10.300  0.00  0.00    -0.266 OA
ATOM      4  N   UNL     1      -3.403 -12.641  14.919  0.00  0.00    -0.299 N 
ATOM      5  N   UNL     1      -3.516 -12.321  11.737  0.00  0.00    -0.310 N 
ATOM      6  N   UNL     1      -3.769 -10.993  16.566  0.00  0.00    -0.223 NA
ATOM      7  N   UNL     1      -5.476 -12.612  16.045  0.00  0.00    -0.223 NA
ATOM     10  C   UNL     1      -2.968 -14.365  13.178  0.00  0.00    +0.027 C 
ATOM     11  C   UNL     1      -1.544 -12.372  13.304  0.00  0.00    +0.054 C 
ATOM     12  C   UNL     1      -1.529 -13.881  13.084  0.00  0.00    +0.018 C 
ATOM     13  C   UNL     1      -3.564 -14.056  14.564  0.00  0.00    +0.113 C 
ATOM     14  C   UNL     1      -3.782 -13.733  12.042  0.00  0.00    +0.130 C 
ATOM     15  C   UNL     1      -2.066 -12.060  14.721  0.00  0.00    +0.117 C 
ATOM     16  C   UNL     1      -2.401 -11.667  12.269  0.00  0.00    +0.027 A 
ATOM     17  C   UNL     1      -2.108 -10.413  11.886  0.00  0.00    +0.024 A 
ATOM     18  C   UNL     1      -4.374 -11.700  10.808  0.00  0.00    +0.273 A 
ATOM     19  C   UNL     1      -4.243 -12.064  15.875  0.00  0.00    +0.218 A 
ATOM     20  C   UNL     1      -4.028 -10.294  10.426  0.00  0.00    +0.100 A 
ATOM     21  C   UNL     1      -2.941  -9.714  10.948  0.00  0.00    +0.030 A 
ATOM     22  C   UNL     1      -4.607 -10.460  17.479  0.00  0.00    +0.116 A 
ATOM     23  C   UNL     1      -6.261 -12.029  16.975  0.00  0.00    +0.116 A 
ATOM     25  C   UNL     1      -5.875 -10.940  17.730  0.00  0.00    +0.039 A 
ENDROOT
BRANCH  20   8
ATOM      3  O   UNL     1      -6.370  -8.815  11.071  0.00  0.00    -0.252 OA
ATOM      8  N   UNL     1      -4.842  -9.652   9.541  0.00  0.00    -0.265 N 
ATOM      9  N   UNL     1      -6.603  -8.395   8.774  0.00  0.00    -0.269 N 
ATOM     24  C   UNL     1      -5.987  -8.935   9.910  0.00  0.00    +0.308 C 
ATOM     32  H   UNL     1      -4.751  -9.910   8.562  0.00  0.00    +0.157 HD
ATOM     33  H   UNL     1      -6.154  -8.585   7.881  0.00  0.00    +0.156 HD
BRANCH   9  26
ATOM      1 CL   UNL     1     -11.505  -5.112   8.519  0.00  0.00    -0.084 Cl
ATOM     26  C   UNL     1      -7.777  -7.609   8.713  0.00  0.00    +0.035 A 
ATOM     27  C   UNL     1      -8.980  -8.153   9.132  0.00  0.00    +0.025 A 
ATOM     28  C   UNL     1      -7.700  -6.311   8.234  0.00  0.00    +0.025 A 
ATOM     29  C   UNL     1     -10.138  -7.377   9.072  0.00  0.00    +0.022 A 
ATOM     30  C   UNL     1      -8.857  -5.536   8.174  0.00  0.00    +0.022 A 
ATOM     31  C   UNL     1     -10.077  -6.068   8.593  0.00  0.00    +0.041 A 
ENDBRANCH   9  26
ENDBRANCH  20   8
TORSDOF 2
ENDMDL
MODEL 5
REMARK VINA RESULT:      -7.5     30.411     33.113
REMARK  Name = 7142828
REMARK  2 active torsions:
REMARK  status: ('A' for Active; 'I' for Inactive)
REMARK    1  A    between atoms: N_8  and  C_20
REMARK    2  A    between atoms: N_9  and  C_26
REMARK                            x       y       z     vdW  Elec       q    Type
REMARK                         _______ _______ _______ _____ _____    ______ ____
ROOT
ATOM      2  O   UNL     1     -10.810  -9.556  14.060  0.00  0.00    -0.266 OA
ATOM      4  N   UNL     1     -14.375  -6.325  12.588  0.00  0.00    -0.299 N 
ATOM      5  N   UNL     1     -12.644  -8.188  14.531  0.00  0.00    -0.310 N 
ATOM      6  N   UNL     1     -13.841  -4.182  11.763  0.00  0.00    -0.223 NA
ATOM      7  N   UNL     1     -13.601  -6.131  10.368  0.00  0.00    -0.223 NA
ATOM     10  C   UNL     1     -14.957  -8.567  13.500  0.00  0.00    +0.027 C 
ATOM     11  C   UNL     1     -14.601  -6.682  15.029  0.00  0.00    +0.054 C 
ATOM     12  C   UNL     1     -15.483  -7.896  14.761  0.00  0.00    +0.018 C 
ATOM     13  C   UNL     1     -15.027  -7.608  12.297  0.00  0.00    +0.113 C 
ATOM     14  C   UNL     1     -13.531  -9.069  13.760  0.00  0.00    +0.130 C 
ATOM     15  C   UNL     1     -14.728  -5.682  13.862  0.00  0.00    +0.117 C 
ATOM     16  C   UNL     1     -13.148  -7.079  15.215  0.00  0.00    +0.027 A 
ATOM     17  C   UNL     1     -12.343  -6.353  16.011  0.00  0.00    +0.024 A 
ATOM     18  C   UNL     1     -11.294  -8.577  14.630  0.00  0.00    +0.273 A 
ATOM     19  C   UNL     1     -13.925  -5.520  11.539  0.00  0.00    +0.218 A 
ATOM     20  C   UNL     1     -10.424  -7.728  15.505  0.00  0.00    +0.100 A 
ATOM     21  C   UNL     1     -10.954  -6.686  16.155  0.00  0.00    +0.030 A 
ATOM     22  C   UNL     1     -13.401  -3.434  10.730  0.00  0.00    +0.116 A 
ATOM     23  C   UNL     1     -13.170  -5.323   9.376  0.00  0.00    +0.116 A 
ATOM     25  C   UNL     1     -13.049  -3.954   9.502  0.00  0.00    +0.039 A 
ENDROOT
BRANCH  20   8
ATOM      3  O   UNL     1      -9.300  -9.508  17.417  0.00  0.00    -0.252 OA
ATOM      8  N   UNL     1      -9.106  -8.061  15.615  0.00  0.00    -0.265 N 
ATOM      9  N   UNL     1      -7.216  -9.078  16.427  0.00  0.00    -0.269 N 
ATOM     24  C   UNL     1      -8.601  -8.946  16.577  0.00  0.00    +0.308 C 
ATOM     32  H   UNL     1      -8.438  -7.459  15.142  0.00  0.00    +0.157 HD
ATOM     33  H   UNL     1      -6.787  -8.544  15.675  0.00  0.00    +0.156 HD
BRANCH   9  26
ATOM      1 CL   UNL     1      -3.521 -12.395  19.625  0.00  0.00    -0.084 Cl
ATOM     26  C   UNL     1      -6.331  -9.872  17.194  0.00  0.00    +0.035 A 
ATOM     27  C   UNL     1      -6.665 -10.194  18.499  0.00  0.00    +0.025 A 
ATOM     28  C   UNL     1      -5.148 -10.312  16.623  0.00  0.00    +0.025 A 
ATOM     29  C   UNL     1      -5.792 -10.978  19.254  0.00  0.00    +0.022 A 
ATOM     30  C   UNL     1      -4.275 -11.095  17.378  0.00  0.00    +0.022 A 
ATOM     31  C   UNL     1      -4.597 -11.429  18.693  0.00  0.00    +0.041 A 
ENDBRANCH   9  26
ENDBRANCH  20   8
TORSDOF 2
ENDMDL
MODEL 6
REMARK VINA RESULT:      -7.4     29.326     32.378
REMARK  Name = 7142828
REMARK  2 active torsions:
REMARK  status: ('A' for Active; 'I' for Inactive)
REMARK    1  A    between atoms: N_8  and  C_20
REMARK    2  A    between atoms: N_9  and  C_26
REMARK                            x       y       z     vdW  Elec       q    Type
REMARK                         _______ _______ _______ _____ _____    ______ ____
ROOT
ATOM      2  O   UNL     1      -6.599  -9.779  13.863  0.00  0.00    -0.266 OA
ATOM      4  N   UNL     1      -3.364 -13.599  13.348  0.00  0.00    -0.299 N 
ATOM      5  N   UNL     1      -4.430 -10.642  13.952  0.00  0.00    -0.310 N 
ATOM      6  N   UNL     1      -3.456 -15.497  14.744  0.00  0.00    -0.223 NA
ATOM      7  N   UNL     1      -5.011 -15.234  12.923  0.00  0.00    -0.223 NA
ATOM     10  C   UNL     1      -3.225 -11.581  11.898  0.00  0.00    +0.027 C 
ATOM     11  C   UNL     1      -2.102 -11.596  14.078  0.00  0.00    +0.054 C 
ATOM     12  C   UNL     1      -1.951 -11.171  12.622  0.00  0.00    +0.018 C 
ATOM     13  C   UNL     1      -3.432 -13.106  11.968  0.00  0.00    +0.113 C 
ATOM     14  C   UNL     1      -4.408 -10.807  12.493  0.00  0.00    +0.130 C 
ATOM     15  C   UNL     1      -2.231 -13.131  14.160  0.00  0.00    +0.117 C 
ATOM     16  C   UNL     1      -3.306 -10.940  14.728  0.00  0.00    +0.027 A 
ATOM     17  C   UNL     1      -3.304 -10.671  16.045  0.00  0.00    +0.024 A 
ATOM     18  C   UNL     1      -5.593 -10.075  14.509  0.00  0.00    +0.273 A 
ATOM     19  C   UNL     1      -3.963 -14.816  13.682  0.00  0.00    +0.218 A 
ATOM     20  C   UNL     1      -5.561  -9.815  15.984  0.00  0.00    +0.100 A 
ATOM     21  C   UNL     1      -4.456 -10.100  16.683  0.00  0.00    +0.030 A 
ATOM     22  C   UNL     1      -4.058 -16.668  15.040  0.00  0.00    +0.116 A 
ATOM     23  C   UNL     1      -5.566 -16.413  13.274  0.00  0.00    +0.116 A 
ATOM     25  C   UNL     1      -5.126 -17.181  14.334  0.00  0.00    +0.039 A 
ENDROOT
BRANCH  20   8
ATOM      3  O   UNL     1      -7.751 -11.271  17.066  0.00  0.00    -0.252 OA
ATOM      8  N   UNL     1      -6.672  -9.280  16.565  0.00  0.00    -0.265 N 
ATOM      9  N   UNL     1      -8.714  -9.202  17.609  0.00  0.00    -0.269 N 
ATOM     24  C   UNL     1      -7.727 -10.043  17.084  0.00  0.00    +0.308 C 
ATOM     32  H   UNL     1      -6.854  -8.295  16.392  0.00  0.00    +0.157 HD
ATOM     33  H   UNL     1      -8.539  -8.202  17.549  0.00  0.00    +0.156 HD
BRANCH   9  26
ATOM      1 CL   UNL     1     -13.808 -10.739  20.173  0.00  0.00    -0.084 Cl
ATOM     26  C   UNL     1      -9.934  -9.571  18.223  0.00  0.00    +0.035 A 
ATOM     27  C   UNL     1      -9.911 -10.379  19.347  0.00  0.00    +0.025 A 
ATOM     28  C   UNL     1     -11.128  -9.115  17.687  0.00  0.00    +0.025 A 
ATOM     29  C   UNL     1     -11.114 -10.742  19.953  0.00  0.00    +0.022 A 
ATOM     30  C   UNL     1     -12.331  -9.478  18.293  0.00  0.00    +0.022 A 
ATOM     31  C   UNL     1     -12.324 -10.291  19.426  0.00  0.00    +0.041 A 
ENDBRANCH   9  26
ENDBRANCH  20   8
TORSDOF 2
ENDMDL
MODEL 7
REMARK VINA RESULT:      -7.1     29.635     31.609
REMARK  Name = 7142828
REMARK  2 active torsions:
REMARK  status: ('A' for Active; 'I' for Inactive)
REMARK    1  A    between atoms: N_8  and  C_20
REMARK    2  A    between atoms: N_9  and  C_26
REMARK                            x       y       z     vdW  Elec       q    Type
REMARK                         _______ _______ _______ _____ _____    ______ ____
ROOT
ATOM      2  O   UNL     1      -5.645 -13.599  14.628  0.00  0.00    -0.266 OA
ATOM      4  N   UNL     1      -8.150 -10.635  17.830  0.00  0.00    -0.299 N 
ATOM      5  N   UNL     1      -5.728 -12.305  16.571  0.00  0.00    -0.310 N 
ATOM      6  N   UNL     1      -8.949  -8.511  17.187  0.00  0.00    -0.223 NA
ATOM      7  N   UNL     1     -10.118 -10.514  16.535  0.00  0.00    -0.223 NA
ATOM     10  C   UNL     1      -7.272 -12.854  18.538  0.00  0.00    +0.027 C 
ATOM     11  C   UNL     1      -5.823 -10.877  18.645  0.00  0.00    +0.054 C 
ATOM     12  C   UNL     1      -6.224 -12.148  19.386  0.00  0.00    +0.018 C 
ATOM     13  C   UNL     1      -8.513 -11.962  18.341  0.00  0.00    +0.113 C 
ATOM     14  C   UNL     1      -6.638 -13.268  17.205  0.00  0.00    +0.130 C 
ATOM     15  C   UNL     1      -7.045  -9.946  18.514  0.00  0.00    +0.117 C 
ATOM     16  C   UNL     1      -5.259 -11.189  17.271  0.00  0.00    +0.027 A 
ATOM     17  C   UNL     1      -4.336 -10.384  16.718  0.00  0.00    +0.024 A 
ATOM     18  C   UNL     1      -5.274 -12.618  15.275  0.00  0.00    +0.273 A 
ATOM     19  C   UNL     1      -9.103  -9.862  17.163  0.00  0.00    +0.218 A 
ATOM     20  C   UNL     1      -4.266 -11.682  14.683  0.00  0.00    +0.100 A 
ATOM     21  C   UNL     1      -3.833 -10.637  15.397  0.00  0.00    +0.030 A 
ATOM     22  C   UNL     1      -9.886  -7.796  16.531  0.00  0.00    +0.116 A 
ATOM     23  C   UNL     1     -11.020  -9.737  15.899  0.00  0.00    +0.116 A 
ATOM     25  C   UNL     1     -10.954  -8.359  15.864  0.00  0.00    +0.039 A 
ENDROOT
BRANCH  20   8
ATOM      3  O   UNL     1      -5.561 -10.963  12.256  0.00  0.00    -0.252 OA
ATOM      8  N   UNL     1      -3.813 -11.942  13.423  0.00  0.00    -0.265 N 
ATOM      9  N   UNL     1      -3.769 -11.975  11.129  0.00  0.00    -0.269 N 
ATOM     24  C   UNL     1      -4.490 -11.565  12.256  0.00  0.00    +0.308 C 
ATOM     32  H   UNL     1      -3.087 -12.647  13.331  0.00  0.00    +0.157 HD
ATOM     33  H   UNL     1      -2.893 -12.462  11.303  0.00  0.00    +0.156 HD
BRANCH   9  26
ATOM      1 CL   UNL     1      -5.168 -11.206   5.443  0.00  0.00    -0.084 Cl
ATOM     26  C   UNL     1      -4.104 -11.791   9.767  0.00  0.00    +0.035 A 
ATOM     27  C   UNL     1      -4.341 -10.510   9.294  0.00  0.00    +0.025 A 
ATOM     28  C   UNL     1      -4.190 -12.895   8.935  0.00  0.00    +0.025 A 
ATOM     29  C   UNL     1      -4.671 -10.329   7.951  0.00  0.00    +0.022 A 
ATOM     30  C   UNL     1      -4.520 -12.713   7.592  0.00  0.00    +0.022 A 
ATOM     31  C   UNL     1      -4.760 -11.430   7.100  0.00  0.00    +0.041 A 
ENDBRANCH   9  26
ENDBRANCH  20   8
TORSDOF 2
ENDMDL
MODEL 8
REMARK VINA RESULT:      -7.0     25.845     29.717
REMARK  Name = 7142828
REMARK  2 active torsions:
REMARK  status: ('A' for Active; 'I' for Inactive)
REMARK    1  A    between atoms: N_8  and  C_20
REMARK    2  A    between atoms: N_9  and  C_26
REMARK                            x       y       z     vdW  Elec       q    Type
REMARK                         _______ _______ _______ _____ _____    ______ ____
ROOT
ATOM      2  O   UNL     1      -6.718  10.078   5.122  0.00  0.00    -0.266 OA
ATOM      4  N   UNL     1      -1.804  10.388   4.088  0.00  0.00    -0.299 N 
ATOM      5  N   UNL     1      -4.505   9.445   5.521  0.00  0.00    -0.310 N 
ATOM      6  N   UNL     1      -0.926   9.681   2.017  0.00  0.00    -0.223 NA
ATOM      7  N   UNL     1      -2.055  11.799   2.214  0.00  0.00    -0.223 NA
ATOM     10  C   UNL     1      -2.709  11.096   6.296  0.00  0.00    +0.027 C 
ATOM     11  C   UNL     1      -2.117   8.746   5.916  0.00  0.00    +0.054 C 
ATOM     12  C   UNL     1      -2.053   9.879   6.934  0.00  0.00    +0.018 C 
ATOM     13  C   UNL     1      -1.963  11.515   5.015  0.00  0.00    +0.113 C 
ATOM     14  C   UNL     1      -4.187  10.785   6.032  0.00  0.00    +0.130 C 
ATOM     15  C   UNL     1      -1.306   9.129   4.662  0.00  0.00    +0.117 C 
ATOM     16  C   UNL     1      -3.550   8.425   5.529  0.00  0.00    +0.027 A 
ATOM     17  C   UNL     1      -3.891   7.176   5.170  0.00  0.00    +0.024 A 
ATOM     18  C   UNL     1      -5.838   9.216   5.128  0.00  0.00    +0.273 A 
ATOM     19  C   UNL     1      -1.587  10.631   2.730  0.00  0.00    +0.218 A 
ATOM     20  C   UNL     1      -6.173   7.817   4.709  0.00  0.00    +0.100 A 
ATOM     21  C   UNL     1      -5.230   6.870   4.750  0.00  0.00    +0.030 A 
ATOM     22  C   UNL     1      -0.736   9.946   0.708  0.00  0.00    +0.116 A 
ATOM     23  C   UNL     1      -1.830  12.001   0.899  0.00  0.00    +0.116 A 
ATOM     25  C   UNL     1      -1.169  11.100   0.089  0.00  0.00    +0.039 A 
ENDROOT
BRANCH  20   8
ATOM      3  O   UNL     1      -8.323   6.995   6.380  0.00  0.00    -0.252 OA
ATOM      8  N   UNL     1      -7.450   7.558   4.306  0.00  0.00    -0.265 N 
ATOM      9  N   UNL     1      -9.663   6.969   4.453  0.00  0.00    -0.269 N 
ATOM     24  C   UNL     1      -8.476   7.154   5.171  0.00  0.00    +0.308 C 
ATOM     32  H   UNL     1      -7.598   7.414   3.311  0.00  0.00    +0.157 HD
ATOM     33  H   UNL     1      -9.622   7.148   3.453  0.00  0.00    +0.156 HD
BRANCH   9  26
ATOM      1 CL   UNL     1     -14.930   5.286   6.527  0.00  0.00    -0.084 Cl
ATOM     26  C   UNL     1     -10.925   6.566   4.949  0.00  0.00    +0.035 A 
ATOM     27  C   UNL     1     -11.378   5.283   4.689  0.00  0.00    +0.025 A 
ATOM     28  C   UNL     1     -11.682   7.463   5.686  0.00  0.00    +0.025 A 
ATOM     29  C   UNL     1     -12.622   4.886   5.179  0.00  0.00    +0.022 A 
ATOM     30  C   UNL     1     -12.925   7.065   6.176  0.00  0.00    +0.022 A 
ATOM     31  C   UNL     1     -13.396   5.777   5.923  0.00  0.00    +0.041 A 
ENDBRANCH   9  26
ENDBRANCH  20   8
TORSDOF 2
ENDMDL
MODEL 9
REMARK VINA RESULT:      -7.0     28.894     31.937
REMARK  Name = 7142828
REMARK  2 active torsions:
REMARK  status: ('A' for Active; 'I' for Inactive)
REMARK    1  A    between atoms: N_8  and  C_20
REMARK    2  A    between atoms: N_9  and  C_26
REMARK                            x       y       z     vdW  Elec       q    Type
REMARK                         _______ _______ _______ _____ _____    ______ ____
ROOT
ATOM      2  O   UNL     1      -4.979  -9.826  15.965  0.00  0.00    -0.266 OA
ATOM      4  N   UNL     1      -2.990 -11.462  11.643  0.00  0.00    -0.299 N 
ATOM      5  N   UNL     1      -4.018 -11.518  14.672  0.00  0.00    -0.310 N 
ATOM      6  N   UNL     1      -4.267 -11.601   9.665  0.00  0.00    -0.223 NA
ATOM      7  N   UNL     1      -3.416  -9.482  10.433  0.00  0.00    -0.223 NA
ATOM     10  C   UNL     1      -1.642 -11.366  13.733  0.00  0.00    +0.027 C 
ATOM     11  C   UNL     1      -3.014 -13.343  13.255  0.00  0.00    +0.054 C 
ATOM     12  C   UNL     1      -1.662 -12.886  13.794  0.00  0.00    +0.018 C 
ATOM     13  C   UNL     1      -1.809 -10.871  12.284  0.00  0.00    +0.113 C 
ATOM     14  C   UNL     1      -2.729 -10.815  14.663  0.00  0.00    +0.130 C 
ATOM     15  C   UNL     1      -3.154 -12.917  11.780  0.00  0.00    +0.117 C 
ATOM     16  C   UNL     1      -4.159 -12.771  14.071  0.00  0.00    +0.027 A 
ATOM     17  C   UNL     1      -5.311 -13.453  14.191  0.00  0.00    +0.024 A 
ATOM     18  C   UNL     1      -5.063 -10.918  15.403  0.00  0.00    +0.273 A 
ATOM     19  C   UNL     1      -3.576 -10.828  10.545  0.00  0.00    +0.218 A 
ATOM     20  C   UNL     1      -6.339 -11.697  15.491  0.00  0.00    +0.100 A 
ATOM     21  C   UNL     1      -6.422 -12.901  14.914  0.00  0.00    +0.030 A 
ATOM     22  C   UNL     1      -4.821 -10.957   8.617  0.00  0.00    +0.116 A 
ATOM     23  C   UNL     1      -3.996  -8.902   9.361  0.00  0.00    +0.116 A 
ATOM     25  C   UNL     1      -4.717  -9.596   8.412  0.00  0.00    +0.039 A 
ENDROOT
BRANCH  20   8
ATOM      3  O   UNL     1      -8.335  -9.984  14.410  0.00  0.00    -0.252 OA
ATOM      8  N   UNL     1      -7.380 -11.144  16.177  0.00  0.00    -0.265 N 
ATOM      9  N   UNL     1      -9.273  -9.905  16.560  0.00  0.00    -0.269 N 
ATOM     24  C   UNL     1      -8.340 -10.305  15.597  0.00  0.00    +0.308 C 
ATOM     32  H   UNL     1      -7.315 -11.143  17.191  0.00  0.00    +0.157 HD
ATOM     33  H   UNL     1      -9.136 -10.264  17.502  0.00  0.00    +0.156 HD
BRANCH   9  26
ATOM      1 CL   UNL     1     -13.957  -6.381  15.838  0.00  0.00    -0.084 Cl
ATOM     26  C   UNL     1     -10.395  -9.061  16.386  0.00  0.00    +0.035 A 
ATOM     27  C   UNL     1     -11.614  -9.616  16.034  0.00  0.00    +0.025 A 
ATOM     28  C   UNL     1     -10.252  -7.696  16.573  0.00  0.00    +0.025 A 
ATOM     29  C   UNL     1     -12.720  -8.784  15.863  0.00  0.00    +0.022 A 
ATOM     30  C   UNL     1     -11.358  -6.863  16.403  0.00  0.00    +0.022 A 
ATOM     31  C   UNL     1     -12.592  -7.407  16.048  0.00  0.00    +0.041 A 
ENDBRANCH   9  26
ENDBRANCH  20   8
TORSDOF 2
ENDMDL
MODEL 10
REMARK VINA RESULT:      -6.9     29.743     32.941
REMARK  Name = 7142828
REMARK  2 active torsions:
REMARK  status: ('A' for Active; 'I' for Inactive)
REMARK    1  A    between atoms: N_8  and  C_20
REMARK    2  A    between atoms: N_9  and  C_26
REMARK                            x       y       z     vdW  Elec       q    Type
REMARK                         _______ _______ _______ _____ _____    ______ ____
ROOT
ATOM      2  O   UNL     1      -7.506  -9.672  15.939  0.00  0.00    -0.266 OA
ATOM      4  N   UNL     1      -4.321 -13.052  14.003  0.00  0.00    -0.299 N 
ATOM      5  N   UNL     1      -5.337 -10.467  15.592  0.00  0.00    -0.310 N 
ATOM      6  N   UNL     1      -4.308 -15.297  14.723  0.00  0.00    -0.223 NA
ATOM      7  N   UNL     1      -5.995 -14.505  13.197  0.00  0.00    -0.223 NA
ATOM     10  C   UNL     1      -4.290 -10.675  13.266  0.00  0.00    +0.027 C 
ATOM     11  C   UNL     1      -3.006 -11.356  15.241  0.00  0.00    +0.054 C 
ATOM     12  C   UNL     1      -2.965 -10.486  13.989  0.00  0.00    +0.018 C 
ATOM     13  C   UNL     1      -4.492 -12.147  12.860  0.00  0.00    +0.113 C 
ATOM     14  C   UNL     1      -5.425 -10.159  14.160  0.00  0.00    +0.130 C 
ATOM     15  C   UNL     1      -3.129 -12.839  14.838  0.00  0.00    +0.117 C 
ATOM     16  C   UNL     1      -4.158 -10.969  16.151  0.00  0.00    +0.027 A 
ATOM     17  C   UNL     1      -4.056 -11.133  17.481  0.00  0.00    +0.024 A 
ATOM     18  C   UNL     1      -6.454 -10.133  16.383  0.00  0.00    +0.273 A 
ATOM     19  C   UNL     1      -4.892 -14.326  13.973  0.00  0.00    +0.218 A 
ATOM     20  C   UNL     1      -6.311 -10.356  17.857  0.00  0.00    +0.100 A 
ATOM     21  C   UNL     1      -5.157 -10.822  18.348  0.00  0.00    +0.030 A 
ATOM     22  C   UNL     1      -4.886 -16.515  14.672  0.00  0.00    +0.116 A 
ATOM     23  C   UNL     1      -6.522 -15.747  13.192  0.00  0.00    +0.116 A 
ATOM     25  C   UNL     1      -6.005 -16.802  13.917  0.00  0.00    +0.039 A 
ENDROOT
BRANCH  20   8
ATOM      3  O   UNL     1      -8.648 -11.942  18.189  0.00  0.00    -0.252 OA
ATOM      8  N   UNL     1      -7.376 -10.060  18.656  0.00  0.00    -0.265 N 
ATOM      9  N   UNL     1      -9.417 -10.298  19.676  0.00  0.00    -0.269 N 
ATOM     24  C   UNL     1      -8.507 -10.877  18.786  0.00  0.00    +0.308 C 
ATOM     32  H   UNL     1      -7.458  -9.099  18.976  0.00  0.00    +0.157 HD
ATOM     33  H   UNL     1      -9.146  -9.410  20.091  0.00  0.00    +0.156 HD
BRANCH   9  26
ATOM      1 CL   UNL     1     -14.676 -12.390  21.365  0.00  0.00    -0.084 Cl
ATOM     26  C   UNL     1     -10.677 -10.799  20.080  0.00  0.00    +0.035 A 
ATOM     27  C   UNL     1     -10.789 -12.127  20.460  0.00  0.00    +0.025 A 
ATOM     28  C   UNL     1     -11.773  -9.952  20.088  0.00  0.00    +0.025 A 
ATOM     29  C   UNL     1     -12.031 -12.621  20.859  0.00  0.00    +0.022 A 
ATOM     30  C   UNL     1     -13.015 -10.446  20.487  0.00  0.00    +0.022 A 
ATOM     31  C   UNL     1     -13.144 -11.780  20.873  0.00  0.00    +0.041 A 
ENDBRANCH   9  26
ENDBRANCH  20   8
TORSDOF 2
ENDMDL
