MODEL 1
REMARK VINA RESULT:      -6.9      0.000      0.000
REMARK  Name = 28959952
REMARK  8 active torsions:
REMARK  status: ('A' for Active; 'I' for Inactive)
REMARK    1  A    between atoms: O_2  and  C_22
REMARK    2  A    between atoms: N_7  and  C_15
REMARK    3  A    between atoms: N_8  and  C_24
REMARK    4  A    between atoms: C_9  and  C_12
REMARK    5  A    between atoms: C_10  and  C_16
REMARK    6  A    between atoms: C_12  and  C_15
REMARK    7  A    between atoms: C_16  and  C_22
REMARK    8  A    between atoms: C_21  and  C_23
REMARK                            x       y       z     vdW  Elec       q    Type
REMARK                         _______ _______ _______ _____ _____    ______ ____
ROOT
ATOM      3  O   UNL     1      14.130   9.979  15.222  0.00  0.00    -0.267 OA
ATOM      6  N   UNL     1      13.064   9.881  17.302  0.00  0.00    -0.295 N 
ATOM      9  C   UNL     1      13.134   9.365  19.731  0.00  0.00    +0.011 C 
ATOM     10  C   UNL     1      12.346   8.062  19.437  0.00  0.00    +0.006 C 
ATOM     11  C   UNL     1      12.830  10.418  18.650  0.00  0.00    +0.112 C 
ATOM     13  C   UNL     1      12.586   7.568  18.001  0.00  0.00    +0.023 C 
ATOM     14  C   UNL     1      12.310   8.671  16.984  0.00  0.00    +0.108 C 
ATOM     21  C   UNL     1      13.927  10.427  16.349  0.00  0.00    +0.282 C 
ENDROOT
BRANCH  21  23
ATOM      5  O   UNL     1      14.138  12.840  16.340  0.00  0.00    -0.458 OA
ATOM     23  C   UNL     1      14.668  11.643  16.704  0.00  0.00    +0.189 A 
ATOM     25  C   UNL     1      15.858  11.823  17.371  0.00  0.00    +0.054 A 
ATOM     28  C   UNL     1      16.072  13.222  17.420  0.00  0.00    +0.042 A 
ATOM     31  C   UNL     1      14.997  13.795  16.780  0.00  0.00    +0.196 A 
ENDBRANCH  21  23
BRANCH   9  12
ATOM     12  C   UNL     1      14.649   9.160  19.864  0.00  0.00    +0.020 C 
BRANCH  12  15
ATOM     15  C   UNL     1      15.110   9.423  21.289  0.00  0.00    +0.085 C 
BRANCH  15   7
ATOM      7  N   UNL     1      16.321   8.653  21.570  0.00  0.00    -0.299 NA
ATOM      8  N   UNL     1      18.785   7.349  20.948  0.00  0.00    -0.327 N 
ATOM     17  C   UNL     1      17.518   9.440  21.250  0.00  0.00    +0.103 C 
ATOM     18  C   UNL     1      16.325   7.401  20.802  0.00  0.00    +0.103 C 
ATOM     19  C   UNL     1      18.794   8.666  21.592  0.00  0.00    +0.120 C 
ATOM     20  C   UNL     1      17.561   6.560  21.131  0.00  0.00    +0.120 C 
BRANCH   8  24
ATOM      1  F   UNL     1      23.542   4.631  20.208  0.00  0.00    -0.205 F 
ATOM     24  C   UNL     1      19.989   6.661  20.760  0.00  0.00    +0.030 A 
ATOM     26  C   UNL     1      21.190   7.366  20.681  0.00  0.00    +0.026 A 
ATOM     27  C   UNL     1      19.989   5.270  20.654  0.00  0.00    +0.026 A 
ATOM     29  C   UNL     1      22.391   6.680  20.494  0.00  0.00    +0.040 A 
ATOM     30  C   UNL     1      21.189   4.584  20.466  0.00  0.00    +0.040 A 
ATOM     32  C   UNL     1      22.389   5.290  20.387  0.00  0.00    +0.124 A 
ENDBRANCH   8  24
ENDBRANCH  15   7
ENDBRANCH  12  15
ENDBRANCH   9  12
BRANCH  10  16
ATOM     16  C   UNL     1      12.627   6.949  20.446  0.00  0.00    +0.124 C 
BRANCH  16  22
ATOM      4  O   UNL     1      10.772   7.290  21.989  0.00  0.00    -0.251 OA
ATOM     22  C   UNL     1      11.393   6.575  21.218  0.00  0.00    +0.305 C 
BRANCH  22   2
ATOM      2  O   UNL     1      11.047   5.292  20.934  0.00  0.00    -0.481 OA
ATOM     33  H   UNL     1      11.538   4.945  20.158  0.00  0.00    +0.295 HD
ENDBRANCH  22   2
ENDBRANCH  16  22
ENDBRANCH  10  16
TORSDOF 8
ENDMDL
MODEL 2
REMARK VINA RESULT:      -6.7     16.598     20.032
REMARK  Name = 28959952
REMARK  8 active torsions:
REMARK  status: ('A' for Active; 'I' for Inactive)
REMARK    1  A    between atoms: O_2  and  C_22
REMARK    2  A    between atoms: N_7  and  C_15
REMARK    3  A    between atoms: N_8  and  C_24
REMARK    4  A    between atoms: C_9  and  C_12
REMARK    5  A    between atoms: C_10  and  C_16
REMARK    6  A    between atoms: C_12  and  C_15
REMARK    7  A    between atoms: C_16  and  C_22
REMARK    8  A    between atoms: C_21  and  C_23
REMARK                            x       y       z     vdW  Elec       q    Type
REMARK                         _______ _______ _______ _____ _____    ______ ____
ROOT
ATOM      3  O   UNL     1      12.163   2.076  -1.844  0.00  0.00    -0.267 OA
ATOM      6  N   UNL     1      11.802   4.379  -2.048  0.00  0.00    -0.295 N 
ATOM      9  C   UNL     1      10.703   6.461  -1.255  0.00  0.00    +0.011 C 
ATOM     10  C   UNL     1       9.725   6.356  -2.454  0.00  0.00    +0.006 C 
ATOM     11  C   UNL     1      12.029   5.759  -1.596  0.00  0.00    +0.112 C 
ATOM     13  C   UNL     1       9.558   4.900  -2.921  0.00  0.00    +0.023 C 
ATOM     14  C   UNL     1      10.909   4.249  -3.199  0.00  0.00    +0.108 C 
ATOM     21  C   UNL     1      12.355   3.233  -1.472  0.00  0.00    +0.282 C 
ENDROOT
BRANCH  21  23
ATOM      5  O   UNL     1      14.539   3.742  -0.559  0.00  0.00    -0.458 OA
ATOM     23  C   UNL     1      13.246   3.402  -0.318  0.00  0.00    +0.189 A 
ATOM     25  C   UNL     1      13.021   3.280   1.033  0.00  0.00    +0.054 A 
ATOM     28  C   UNL     1      14.256   3.564   1.663  0.00  0.00    +0.042 A 
ATOM     31  C   UNL     1      15.147   3.840   0.652  0.00  0.00    +0.196 A 
ENDBRANCH  21  23
BRANCH   9  12
ATOM     12  C   UNL     1      10.134   5.916   0.061  0.00  0.00    +0.020 C 
BRANCH  12  15
ATOM     15  C   UNL     1      10.201   6.967   1.158  0.00  0.00    +0.085 C 
BRANCH  15   7
ATOM      7  N   UNL     1       9.710   6.405   2.417  0.00  0.00    -0.299 NA
ATOM      8  N   UNL     1       9.664   5.979   5.241  0.00  0.00    -0.327 N 
ATOM     17  C   UNL     1       9.271   7.474   3.322  0.00  0.00    +0.103 C 
ATOM     18  C   UNL     1      10.753   5.599   3.062  0.00  0.00    +0.103 C 
ATOM     19  C   UNL     1       8.702   6.896   4.621  0.00  0.00    +0.120 C 
ATOM     20  C   UNL     1      10.232   4.958   4.351  0.00  0.00    +0.120 C 
BRANCH   8  24
ATOM      1  F   UNL     1       9.241   4.792  10.624  0.00  0.00    -0.205 F 
ATOM     24  C   UNL     1       9.556   5.678   6.603  0.00  0.00    +0.030 A 
ATOM     26  C   UNL     1       9.862   4.397   7.061  0.00  0.00    +0.026 A 
ATOM     27  C   UNL     1       9.145   6.661   7.504  0.00  0.00    +0.026 A 
ATOM     29  C   UNL     1       9.756   4.097   8.419  0.00  0.00    +0.040 A 
ATOM     30  C   UNL     1       9.037   6.361   8.862  0.00  0.00    +0.040 A 
ATOM     32  C   UNL     1       9.343   5.080   9.319  0.00  0.00    +0.124 A 
ENDBRANCH   8  24
ENDBRANCH  15   7
ENDBRANCH  12  15
ENDBRANCH   9  12
BRANCH  10  16
ATOM     16  C   UNL     1       8.365   6.994  -2.178  0.00  0.00    +0.124 C 
BRANCH  16  22
ATOM      4  O   UNL     1       6.407   6.339  -3.475  0.00  0.00    -0.251 OA
ATOM     22  C   UNL     1       7.469   6.935  -3.385  0.00  0.00    +0.305 C 
BRANCH  22   2
ATOM      2  O   UNL     1       8.017   7.658  -4.397  0.00  0.00    -0.481 OA
ATOM     33  H   UNL     1       8.387   7.082  -5.098  0.00  0.00    +0.295 HD
ENDBRANCH  22   2
ENDBRANCH  16  22
ENDBRANCH  10  16
TORSDOF 8
ENDMDL
MODEL 3
REMARK VINA RESULT:      -6.5      4.254      7.335
REMARK  Name = 28959952
REMARK  8 active torsions:
REMARK  status: ('A' for Active; 'I' for Inactive)
REMARK    1  A    between atoms: O_2  and  C_22
REMARK    2  A    between atoms: N_7  and  C_15
REMARK    3  A    between atoms: N_8  and  C_24
REMARK    4  A    between atoms: C_9  and  C_12
REMARK    5  A    between atoms: C_10  and  C_16
REMARK    6  A    between atoms: C_12  and  C_15
REMARK    7  A    between atoms: C_16  and  C_22
REMARK    8  A    between atoms: C_21  and  C_23
REMARK                            x       y       z     vdW  Elec       q    Type
REMARK                         _______ _______ _______ _____ _____    ______ ____
ROOT
ATOM      3  O   UNL     1      10.152   8.384  22.026  0.00  0.00    -0.267 OA
ATOM      6  N   UNL     1      12.486   8.285  21.896  0.00  0.00    -0.295 N 
ATOM      9  C   UNL     1      14.592   8.745  20.661  0.00  0.00    +0.011 C 
ATOM     10  C   UNL     1      14.660   7.240  20.294  0.00  0.00    +0.006 C 
ATOM     11  C   UNL     1      13.805   8.931  21.971  0.00  0.00    +0.112 C 
ATOM     13  C   UNL     1      13.262   6.599  20.277  0.00  0.00    +0.023 C 
ATOM     14  C   UNL     1      12.519   6.857  21.584  0.00  0.00    +0.108 C 
ATOM     21  C   UNL     1      11.258   8.920  22.092  0.00  0.00    +0.282 C 
ENDROOT
BRANCH  21  23
ATOM      5  O   UNL     1      11.099  10.722  23.702  0.00  0.00    -0.458 OA
ATOM     23  C   UNL     1      11.264  10.354  22.405  0.00  0.00    +0.189 A 
ATOM     25  C   UNL     1      11.414  11.461  21.603  0.00  0.00    +0.054 A 
ATOM     28  C   UNL     1      11.335  12.582  22.463  0.00  0.00    +0.042 A 
ATOM     31  C   UNL     1      11.144  12.079  23.729  0.00  0.00    +0.196 A 
ENDBRANCH  21  23
BRANCH   9  12
ATOM     12  C   UNL     1      14.003   9.630  19.555  0.00  0.00    +0.020 C 
BRANCH  12  15
ATOM     15  C   UNL     1      14.601  11.028  19.603  0.00  0.00    +0.085 C 
BRANCH  15   7
ATOM      7  N   UNL     1      14.766  11.544  18.244  0.00  0.00    -0.299 NA
ATOM      8  N   UNL     1      15.957  11.739  15.655  0.00  0.00    -0.327 N 
ATOM     17  C   UNL     1      14.584  10.471  17.259  0.00  0.00    +0.103 C 
ATOM     18  C   UNL     1      16.092  12.152  18.081  0.00  0.00    +0.103 C 
ATOM     19  C   UNL     1      14.698  11.009  15.830  0.00  0.00    +0.120 C 
ATOM     20  C   UNL     1      16.255  12.747  16.680  0.00  0.00    +0.120 C 
BRANCH   8  24
ATOM      1  F   UNL     1      17.982  12.527  10.571  0.00  0.00    -0.205 F 
ATOM     24  C   UNL     1      16.470  11.938  14.368  0.00  0.00    +0.030 A 
ATOM     26  C   UNL     1      15.643  11.782  13.256  0.00  0.00    +0.026 A 
ATOM     27  C   UNL     1      17.808  12.294  14.197  0.00  0.00    +0.026 A 
ATOM     29  C   UNL     1      16.153  11.981  11.973  0.00  0.00    +0.040 A 
ATOM     30  C   UNL     1      18.319  12.492  12.915  0.00  0.00    +0.040 A 
ATOM     32  C   UNL     1      17.491  12.336  11.803  0.00  0.00    +0.124 A 
ENDBRANCH   8  24
ENDBRANCH  15   7
ENDBRANCH  12  15
ENDBRANCH   9  12
BRANCH  10  16
ATOM     16  C   UNL     1      15.392   6.975  18.979  0.00  0.00    +0.124 C 
BRANCH  16  22
ATOM      4  O   UNL     1      17.409   6.276  20.156  0.00  0.00    -0.251 OA
ATOM     22  C   UNL     1      16.658   6.193  19.197  0.00  0.00    +0.305 C 
BRANCH  22   2
ATOM      2  O   UNL     1      16.861   5.352  18.149  0.00  0.00    -0.481 OA
ATOM     33  H   UNL     1      17.084   4.445  18.448  0.00  0.00    +0.295 HD
ENDBRANCH  22   2
ENDBRANCH  16  22
ENDBRANCH  10  16
TORSDOF 8
ENDMDL
MODEL 4
REMARK VINA RESULT:      -6.5     27.547     30.857
REMARK  Name = 28959952
REMARK  8 active torsions:
REMARK  status: ('A' for Active; 'I' for Inactive)
REMARK    1  A    between atoms: O_2  and  C_22
REMARK    2  A    between atoms: N_7  and  C_15
REMARK    3  A    between atoms: N_8  and  C_24
REMARK    4  A    between atoms: C_9  and  C_12
REMARK    5  A    between atoms: C_10  and  C_16
REMARK    6  A    between atoms: C_12  and  C_15
REMARK    7  A    between atoms: C_16  and  C_22
REMARK    8  A    between atoms: C_21  and  C_23
REMARK                            x       y       z     vdW  Elec       q    Type
REMARK                         _______ _______ _______ _____ _____    ______ ____
ROOT
ATOM      3  O   UNL     1      -1.367  -9.922  12.335  0.00  0.00    -0.267 OA
ATOM      6  N   UNL     1      -2.644 -11.248  13.779  0.00  0.00    -0.295 N 
ATOM      9  C   UNL     1      -4.562 -11.496  15.338  0.00  0.00    +0.011 C 
ATOM     10  C   UNL     1      -3.558 -11.444  16.519  0.00  0.00    +0.006 C 
ATOM     11  C   UNL     1      -3.858 -12.022  14.074  0.00  0.00    +0.112 C 
ATOM     13  C   UNL     1      -2.286 -10.666  16.145  0.00  0.00    +0.023 C 
ATOM     14  C   UNL     1      -1.663 -11.208  14.862  0.00  0.00    +0.108 C 
ATOM     21  C   UNL     1      -2.380 -10.574  12.584  0.00  0.00    +0.282 C 
ENDROOT
BRANCH  21  23
ATOM      5  O   UNL     1      -3.319 -11.672  10.640  0.00  0.00    -0.458 OA
ATOM     23  C   UNL     1      -3.387 -10.637  11.519  0.00  0.00    +0.189 A 
ATOM     25  C   UNL     1      -4.447  -9.814  11.216  0.00  0.00    +0.054 A 
ATOM     28  C   UNL     1      -5.070 -10.379  10.078  0.00  0.00    +0.042 A 
ATOM     31  C   UNL     1      -4.347 -11.508   9.767  0.00  0.00    +0.196 A 
ENDBRANCH  21  23
BRANCH   9  12
ATOM     12  C   UNL     1      -5.250 -10.156  15.046  0.00  0.00    +0.020 C 
BRANCH  12  15
ATOM     15  C   UNL     1      -6.712 -10.366  14.680  0.00  0.00    +0.085 C 
BRANCH  15   7
ATOM      7  N   UNL     1      -7.566  -9.976  15.803  0.00  0.00    -0.299 NA
ATOM      8  N   UNL     1      -9.911 -10.019  17.433  0.00  0.00    -0.327 N 
ATOM     17  C   UNL     1      -7.856 -11.135  16.655  0.00  0.00    +0.103 C 
ATOM     18  C   UNL     1      -8.819  -9.386  15.315  0.00  0.00    +0.103 C 
ATOM     19  C   UNL     1      -8.703 -10.730  17.865  0.00  0.00    +0.120 C 
ATOM     20  C   UNL     1      -9.696  -8.922  16.481  0.00  0.00    +0.120 C 
BRANCH   8  24
ATOM      1  F   UNL     1     -14.263  -9.705  20.827  0.00  0.00    -0.205 F 
ATOM     24  C   UNL     1     -11.012  -9.939  18.292  0.00  0.00    +0.030 A 
ATOM     26  C   UNL     1     -12.286  -9.711  17.773  0.00  0.00    +0.026 A 
ATOM     27  C   UNL     1     -10.837 -10.089  19.668  0.00  0.00    +0.026 A 
ATOM     29  C   UNL     1     -13.385  -9.632  18.629  0.00  0.00    +0.040 A 
ATOM     30  C   UNL     1     -11.935 -10.009  20.524  0.00  0.00    +0.040 A 
ATOM     32  C   UNL     1     -13.208  -9.781  20.004  0.00  0.00    +0.124 A 
ENDBRANCH   8  24
ENDBRANCH  15   7
ENDBRANCH  12  15
ENDBRANCH   9  12
BRANCH  10  16
ATOM     16  C   UNL     1      -4.172 -10.891  17.805  0.00  0.00    +0.124 C 
BRANCH  16  22
ATOM      4  O   UNL     1      -5.480 -12.593  18.960  0.00  0.00    -0.251 OA
ATOM     22  C   UNL     1      -4.434 -11.980  18.808  0.00  0.00    +0.305 C 
BRANCH  22   2
ATOM      2  O   UNL     1      -3.316 -12.200  19.547  0.00  0.00    -0.481 OA
ATOM     33  H   UNL     1      -3.290 -11.633  20.347  0.00  0.00    +0.295 HD
ENDBRANCH  22   2
ENDBRANCH  16  22
ENDBRANCH  10  16
TORSDOF 8
ENDMDL
MODEL 5
REMARK VINA RESULT:      -6.4     27.839     30.231
REMARK  Name = 28959952
REMARK  8 active torsions:
REMARK  status: ('A' for Active; 'I' for Inactive)
REMARK    1  A    between atoms: O_2  and  C_22
REMARK    2  A    between atoms: N_7  and  C_15
REMARK    3  A    between atoms: N_8  and  C_24
REMARK    4  A    between atoms: C_9  and  C_12
REMARK    5  A    between atoms: C_10  and  C_16
REMARK    6  A    between atoms: C_12  and  C_15
REMARK    7  A    between atoms: C_16  and  C_22
REMARK    8  A    between atoms: C_21  and  C_23
REMARK                            x       y       z     vdW  Elec       q    Type
REMARK                         _______ _______ _______ _____ _____    ______ ____
ROOT
ATOM      3  O   UNL     1      -1.613 -10.677  16.442  0.00  0.00    -0.267 OA
ATOM      6  N   UNL     1      -3.774 -11.575  16.475  0.00  0.00    -0.295 N 
ATOM      9  C   UNL     1      -6.217 -11.311  16.107  0.00  0.00    +0.011 C 
ATOM     10  C   UNL     1      -6.398 -11.212  17.644  0.00  0.00    +0.006 C 
ATOM     11  C   UNL     1      -4.948 -12.119  15.779  0.00  0.00    +0.112 C 
ATOM     13  C   UNL     1      -5.128 -10.684  18.330  0.00  0.00    +0.023 C 
ATOM     14  C   UNL     1      -3.903 -11.499  17.929  0.00  0.00    +0.108 C 
ATOM     21  C   UNL     1      -2.596 -11.139  15.863  0.00  0.00    +0.282 C 
ENDROOT
BRANCH  21  23
ATOM      5  O   UNL     1      -3.010 -10.204  13.668  0.00  0.00    -0.458 OA
ATOM     23  C   UNL     1      -2.503 -11.229  14.402  0.00  0.00    +0.189 A 
ATOM     25  C   UNL     1      -1.974 -12.197  13.580  0.00  0.00    +0.054 A 
ATOM     28  C   UNL     1      -2.169 -11.737  12.256  0.00  0.00    +0.042 A 
ATOM     31  C   UNL     1      -2.802 -10.520  12.363  0.00  0.00    +0.196 A 
ENDBRANCH  21  23
BRANCH   9  12
ATOM     12  C   UNL     1      -6.181  -9.952  15.395  0.00  0.00    +0.020 C 
BRANCH  12  15
ATOM     15  C   UNL     1      -7.133  -9.936  14.209  0.00  0.00    +0.085 C 
BRANCH  15   7
ATOM      7  N   UNL     1      -6.389 -10.175  12.972  0.00  0.00    -0.299 NA
ATOM      8  N   UNL     1      -6.048 -10.500  10.154  0.00  0.00    -0.327 N 
ATOM     17  C   UNL     1      -6.502  -9.021  12.072  0.00  0.00    +0.103 C 
ATOM     18  C   UNL     1      -6.881 -11.384  12.300  0.00  0.00    +0.103 C 
ATOM     19  C   UNL     1      -5.682  -9.234  10.797  0.00  0.00    +0.120 C 
ATOM     20  C   UNL     1      -6.071 -11.675  11.034  0.00  0.00    +0.120 C 
BRANCH   8  24
ATOM      1  F   UNL     1      -4.924 -11.282   4.799  0.00  0.00    -0.205 F 
ATOM     24  C   UNL     1      -5.763 -10.697   8.799  0.00  0.00    +0.030 A 
ATOM     26  C   UNL     1      -4.740 -11.567   8.421  0.00  0.00    +0.026 A 
ATOM     27  C   UNL     1      -6.504 -10.027   7.825  0.00  0.00    +0.026 A 
ATOM     29  C   UNL     1      -4.456 -11.765   7.070  0.00  0.00    +0.040 A 
ATOM     30  C   UNL     1      -6.219 -10.224   6.474  0.00  0.00    +0.040 A 
ATOM     32  C   UNL     1      -5.196 -11.093   6.097  0.00  0.00    +0.124 A 
ENDBRANCH   8  24
ENDBRANCH  15   7
ENDBRANCH  12  15
ENDBRANCH   9  12
BRANCH  10  16
ATOM     16  C   UNL     1      -7.617 -10.386  18.052  0.00  0.00    +0.124 C 
BRANCH  16  22
ATOM      4  O   UNL     1      -9.000 -12.274  18.735  0.00  0.00    -0.251 OA
ATOM     22  C   UNL     1      -8.538 -11.164  18.951  0.00  0.00    +0.305 C 
BRANCH  22   2
ATOM      2  O   UNL     1      -8.799 -10.444  20.073  0.00  0.00    -0.481 OA
ATOM     33  H   UNL     1      -8.279 -10.765  20.841  0.00  0.00    +0.295 HD
ENDBRANCH  22   2
ENDBRANCH  16  22
ENDBRANCH  10  16
TORSDOF 8
ENDMDL
MODEL 6
REMARK VINA RESULT:      -6.4     27.422     29.113
REMARK  Name = 28959952
REMARK  8 active torsions:
REMARK  status: ('A' for Active; 'I' for Inactive)
REMARK    1  A    between atoms: O_2  and  C_22
REMARK    2  A    between atoms: N_7  and  C_15
REMARK    3  A    between atoms: N_8  and  C_24
REMARK    4  A    between atoms: C_9  and  C_12
REMARK    5  A    between atoms: C_10  and  C_16
REMARK    6  A    between atoms: C_12  and  C_15
REMARK    7  A    between atoms: C_16  and  C_22
REMARK    8  A    between atoms: C_21  and  C_23
REMARK                            x       y       z     vdW  Elec       q    Type
REMARK                         _______ _______ _______ _____ _____    ______ ____
ROOT
ATOM      3  O   UNL     1      -9.733   9.224  17.684  0.00  0.00    -0.267 OA
ATOM      6  N   UNL     1     -11.811   8.366  18.330  0.00  0.00    -0.295 N 
ATOM      9  C   UNL     1     -13.687   8.273  19.956  0.00  0.00    +0.011 C 
ATOM     10  C   UNL     1     -13.141   6.908  20.449  0.00  0.00    +0.006 C 
ATOM     11  C   UNL     1     -13.264   8.511  18.495  0.00  0.00    +0.112 C 
ATOM     13  C   UNL     1     -11.627   6.785  20.210  0.00  0.00    +0.023 C 
ATOM     14  C   UNL     1     -11.271   7.076  18.756  0.00  0.00    +0.108 C 
ATOM     21  C   UNL     1     -10.950   9.340  17.819  0.00  0.00    +0.282 C 
ENDROOT
BRANCH  21  23
ATOM      5  O   UNL     1     -11.860  10.774  16.093  0.00  0.00    -0.458 OA
ATOM     23  C   UNL     1     -11.528  10.622  17.402  0.00  0.00    +0.189 A 
ATOM     25  C   UNL     1     -11.820  11.765  18.110  0.00  0.00    +0.054 A 
ATOM     28  C   UNL     1     -12.366  12.677  17.176  0.00  0.00    +0.042 A 
ATOM     31  C   UNL     1     -12.370  12.027  15.964  0.00  0.00    +0.196 A 
ENDBRANCH  21  23
BRANCH   9  12
ATOM     12  C   UNL     1     -13.271   9.462  20.832  0.00  0.00    +0.020 C 
BRANCH  12  15
ATOM     15  C   UNL     1     -14.489  10.131  21.453  0.00  0.00    +0.085 C 
BRANCH  15   7
ATOM      7  N   UNL     1     -14.126  10.725  22.740  0.00  0.00    -0.299 NA
ATOM      8  N   UNL     1     -12.844  10.842  25.290  0.00  0.00    -0.327 N 
ATOM     17  C   UNL     1     -12.672  10.905  22.833  0.00  0.00    +0.103 C 
ATOM     18  C   UNL     1     -14.598   9.884  23.846  0.00  0.00    +0.103 C 
ATOM     19  C   UNL     1     -12.284  11.578  24.152  0.00  0.00    +0.120 C 
ATOM     20  C   UNL     1     -14.275  10.524  25.198  0.00  0.00    +0.120 C 
BRANCH   8  24
ATOM      1  F   UNL     1     -10.635  11.479  30.317  0.00  0.00    -0.205 F 
ATOM     24  C   UNL     1     -12.286  11.003  26.562  0.00  0.00    +0.030 A 
ATOM     26  C   UNL     1     -11.725   9.909  27.221  0.00  0.00    +0.026 A 
ATOM     27  C   UNL     1     -12.288  12.258  27.172  0.00  0.00    +0.026 A 
ATOM     29  C   UNL     1     -11.167  10.069  28.490  0.00  0.00    +0.040 A 
ATOM     30  C   UNL     1     -11.731  12.418  28.440  0.00  0.00    +0.040 A 
ATOM     32  C   UNL     1     -11.170  11.324  29.099  0.00  0.00    +0.124 A 
ENDBRANCH   8  24
ENDBRANCH  15   7
ENDBRANCH  12  15
ENDBRANCH   9  12
BRANCH  10  16
ATOM     16  C   UNL     1     -13.483   6.615  21.909  0.00  0.00    +0.124 C 
BRANCH  16  22
ATOM      4  O   UNL     1     -14.683   4.494  21.888  0.00  0.00    -0.251 OA
ATOM     22  C   UNL     1     -13.683   5.144  22.148  0.00  0.00    +0.305 C 
BRANCH  22   2
ATOM      2  O   UNL     1     -12.565   4.617  22.711  0.00  0.00    -0.481 OA
ATOM     33  H   UNL     1     -12.054   4.078  22.071  0.00  0.00    +0.295 HD
ENDBRANCH  22   2
ENDBRANCH  16  22
ENDBRANCH  10  16
TORSDOF 8
ENDMDL
MODEL 7
REMARK VINA RESULT:      -6.2     15.532     18.586
REMARK  Name = 28959952
REMARK  8 active torsions:
REMARK  status: ('A' for Active; 'I' for Inactive)
REMARK    1  A    between atoms: O_2  and  C_22
REMARK    2  A    between atoms: N_7  and  C_15
REMARK    3  A    between atoms: N_8  and  C_24
REMARK    4  A    between atoms: C_9  and  C_12
REMARK    5  A    between atoms: C_10  and  C_16
REMARK    6  A    between atoms: C_12  and  C_15
REMARK    7  A    between atoms: C_16  and  C_22
REMARK    8  A    between atoms: C_21  and  C_23
REMARK                            x       y       z     vdW  Elec       q    Type
REMARK                         _______ _______ _______ _____ _____    ______ ____
ROOT
ATOM      3  O   UNL     1      11.637  10.520   4.084  0.00  0.00    -0.267 OA
ATOM      6  N   UNL     1      11.953   8.524   5.264  0.00  0.00    -0.295 N 
ATOM      9  C   UNL     1      11.299   6.171   5.722  0.00  0.00    +0.011 C 
ATOM     10  C   UNL     1      10.616   6.656   7.027  0.00  0.00    +0.006 C 
ATOM     11  C   UNL     1      12.434   7.137   5.334  0.00  0.00    +0.112 C 
ATOM     13  C   UNL     1      10.175   8.125   6.921  0.00  0.00    +0.023 C 
ATOM     14  C   UNL     1      11.333   9.021   6.491  0.00  0.00    +0.108 C 
ATOM     21  C   UNL     1      12.043   9.360   4.148  0.00  0.00    +0.282 C 
ENDROOT
BRANCH  21  23
ATOM      5  O   UNL     1      14.020   8.953   2.810  0.00  0.00    -0.458 OA
ATOM     23  C   UNL     1      12.672   8.827   2.935  0.00  0.00    +0.189 A 
ATOM     25  C   UNL     1      12.142   8.187   1.839  0.00  0.00    +0.054 A 
ATOM     28  C   UNL     1      13.234   7.902   0.985  0.00  0.00    +0.042 A 
ATOM     31  C   UNL     1      14.354   8.387   1.621  0.00  0.00    +0.196 A 
ENDBRANCH  21  23
BRANCH   9  12
ATOM     12  C   UNL     1      10.333   5.984   4.545  0.00  0.00    +0.020 C 
BRANCH  12  15
ATOM     15  C   UNL     1      10.483   4.598   3.935  0.00  0.00    +0.085 C 
BRANCH  15   7
ATOM      7  N   UNL     1      11.123   4.700   2.623  0.00  0.00    -0.299 NA
ATOM      8  N   UNL     1      11.641   3.969  -0.089  0.00  0.00    -0.327 N 
ATOM     17  C   UNL     1      10.122   4.956   1.581  0.00  0.00    +0.103 C 
ATOM     18  C   UNL     1      11.863   3.470   2.315  0.00  0.00    +0.103 C 
ATOM     19  C   UNL     1      10.784   5.121   0.210  0.00  0.00    +0.120 C 
ATOM     20  C   UNL     1      12.584   3.587   0.970  0.00  0.00    +0.120 C 
BRANCH   8  24
ATOM      1  F   UNL     1      13.029   2.877  -5.328  0.00  0.00    -0.205 F 
ATOM     24  C   UNL     1      11.992   3.692  -1.414  0.00  0.00    +0.030 A 
ATOM     26  C   UNL     1      11.170   2.885  -2.200  0.00  0.00    +0.026 A 
ATOM     27  C   UNL     1      13.165   4.225  -1.951  0.00  0.00    +0.026 A 
ATOM     29  C   UNL     1      11.519   2.610  -3.522  0.00  0.00    +0.040 A 
ATOM     30  C   UNL     1      13.515   3.949  -3.273  0.00  0.00    +0.040 A 
ATOM     32  C   UNL     1      12.692   3.142  -4.058  0.00  0.00    +0.124 A 
ENDBRANCH   8  24
ENDBRANCH  15   7
ENDBRANCH  12  15
ENDBRANCH   9  12
BRANCH  10  16
ATOM     16  C   UNL     1       9.448   5.771   7.458  0.00  0.00    +0.124 C 
BRANCH  16  22
ATOM      4  O   UNL     1      10.069   4.633   9.522  0.00  0.00    -0.251 OA
ATOM     22  C   UNL     1       9.907   4.622   8.311  0.00  0.00    +0.305 C 
BRANCH  22   2
ATOM      2  O   UNL     1      10.126   3.531   7.531  0.00  0.00    -0.481 OA
ATOM     33  H   UNL     1       9.718   2.724   7.910  0.00  0.00    +0.295 HD
ENDBRANCH  22   2
ENDBRANCH  16  22
ENDBRANCH  10  16
TORSDOF 8
ENDMDL
MODEL 8
REMARK VINA RESULT:      -6.2     27.599     30.514
REMARK  Name = 28959952
REMARK  8 active torsions:
REMARK  status: ('A' for Active; 'I' for Inactive)
REMARK    1  A    between atoms: O_2  and  C_22
REMARK    2  A    between atoms: N_7  and  C_15
REMARK    3  A    between atoms: N_8  and  C_24
REMARK    4  A    between atoms: C_9  and  C_12
REMARK    5  A    between atoms: C_10  and  C_16
REMARK    6  A    between atoms: C_12  and  C_15
REMARK    7  A    between atoms: C_16  and  C_22
REMARK    8  A    between atoms: C_21  and  C_23
REMARK                            x       y       z     vdW  Elec       q    Type
REMARK                         _______ _______ _______ _____ _____    ______ ____
ROOT
ATOM      3  O   UNL     1      -8.758 -11.494  18.224  0.00  0.00    -0.267 OA
ATOM      6  N   UNL     1      -6.776 -10.488  17.495  0.00  0.00    -0.295 N 
ATOM      9  C   UNL     1      -5.101 -10.086  15.703  0.00  0.00    +0.011 C 
ATOM     10  C   UNL     1      -4.153 -11.081  16.420  0.00  0.00    +0.006 C 
ATOM     11  C   UNL     1      -6.069  -9.456  16.722  0.00  0.00    +0.112 C 
ATOM     13  C   UNL     1      -4.937 -12.109  17.253  0.00  0.00    +0.023 C 
ATOM     14  C   UNL     1      -5.907 -11.422  18.209  0.00  0.00    +0.108 C 
ATOM     21  C   UNL     1      -8.163 -10.630  17.583  0.00  0.00    +0.282 C 
ENDROOT
BRANCH  21  23
ATOM      5  O   UNL     1      -9.295  -8.493  17.460  0.00  0.00    -0.458 OA
ATOM     23  C   UNL     1      -9.002  -9.673  16.853  0.00  0.00    +0.189 A 
ATOM     25  C   UNL     1      -9.582  -9.734  15.607  0.00  0.00    +0.054 A 
ATOM     28  C   UNL     1     -10.277  -8.513  15.437  0.00  0.00    +0.042 A 
ATOM     31  C   UNL     1     -10.071  -7.792  16.591  0.00  0.00    +0.196 A 
ENDBRANCH  21  23
BRANCH   9  12
ATOM     12  C   UNL     1      -5.884 -10.702  14.536  0.00  0.00    +0.020 C 
BRANCH  12  15
ATOM     15  C   UNL     1      -6.485  -9.618  13.654  0.00  0.00    +0.085 C 
BRANCH  15   7
ATOM      7  N   UNL     1      -5.873  -9.663  12.326  0.00  0.00    -0.299 NA
ATOM      8  N   UNL     1      -5.641 -10.436   9.586  0.00  0.00    -0.327 N 
ATOM     17  C   UNL     1      -6.787  -9.111  11.319  0.00  0.00    +0.103 C 
ATOM     18  C   UNL     1      -5.510 -11.041  11.972  0.00  0.00    +0.103 C 
ATOM     19  C   UNL     1      -6.138  -9.100   9.932  0.00  0.00    +0.120 C 
ATOM     20  C   UNL     1      -4.817 -11.092  10.609  0.00  0.00    +0.120 C 
BRANCH   8  24
ATOM      1  F   UNL     1      -4.731 -11.730   4.289  0.00  0.00    -0.205 F 
ATOM     24  C   UNL     1      -5.412 -10.764   8.246  0.00  0.00    +0.030 A 
ATOM     26  C   UNL     1      -6.051 -10.048   7.233  0.00  0.00    +0.026 A 
ATOM     27  C   UNL     1      -4.542 -11.805   7.921  0.00  0.00    +0.026 A 
ATOM     29  C   UNL     1      -5.821 -10.374   5.896  0.00  0.00    +0.040 A 
ATOM     30  C   UNL     1      -4.313 -12.132   6.585  0.00  0.00    +0.040 A 
ATOM     32  C   UNL     1      -4.952 -11.416   5.573  0.00  0.00    +0.124 A 
ENDBRANCH   8  24
ENDBRANCH  15   7
ENDBRANCH  12  15
ENDBRANCH   9  12
BRANCH  10  16
ATOM     16  C   UNL     1      -3.186 -11.782  15.467  0.00  0.00    +0.124 C 
BRANCH  16  22
ATOM      4  O   UNL     1      -1.719 -10.290  14.218  0.00  0.00    -0.251 OA
ATOM     22  C   UNL     1      -1.957 -10.954  15.215  0.00  0.00    +0.305 C 
BRANCH  22   2
ATOM      2  O   UNL     1      -1.118 -11.046  16.280  0.00  0.00    -0.481 OA
ATOM     33  H   UNL     1      -1.518 -10.669  17.093  0.00  0.00    +0.295 HD
ENDBRANCH  22   2
ENDBRANCH  16  22
ENDBRANCH  10  16
TORSDOF 8
ENDMDL
MODEL 9
REMARK VINA RESULT:      -6.1     27.460     30.670
REMARK  Name = 28959952
REMARK  8 active torsions:
REMARK  status: ('A' for Active; 'I' for Inactive)
REMARK    1  A    between atoms: O_2  and  C_22
REMARK    2  A    between atoms: N_7  and  C_15
REMARK    3  A    between atoms: N_8  and  C_24
REMARK    4  A    between atoms: C_9  and  C_12
REMARK    5  A    between atoms: C_10  and  C_16
REMARK    6  A    between atoms: C_12  and  C_15
REMARK    7  A    between atoms: C_16  and  C_22
REMARK    8  A    between atoms: C_21  and  C_23
REMARK                            x       y       z     vdW  Elec       q    Type
REMARK                         _______ _______ _______ _____ _____    ______ ____
ROOT
ATOM      3  O   UNL     1      -8.881 -11.856  17.840  0.00  0.00    -0.267 OA
ATOM      6  N   UNL     1      -6.897 -10.703  17.382  0.00  0.00    -0.295 N 
ATOM      9  C   UNL     1      -5.158  -9.975  15.763  0.00  0.00    +0.011 C 
ATOM     10  C   UNL     1      -4.215 -11.057  16.348  0.00  0.00    +0.006 C 
ATOM     11  C   UNL     1      -6.185  -9.543  16.826  0.00  0.00    +0.112 C 
ATOM     13  C   UNL     1      -5.006 -12.225  16.961  0.00  0.00    +0.023 C 
ATOM     14  C   UNL     1      -6.035 -11.727  17.971  0.00  0.00    +0.108 C 
ATOM     21  C   UNL     1      -8.282 -10.885  17.380  0.00  0.00    +0.282 C 
ENDROOT
BRANCH  21  23
ATOM      5  O   UNL     1      -9.314  -9.874  15.437  0.00  0.00    -0.458 OA
ATOM     23  C   UNL     1      -9.115  -9.836  16.780  0.00  0.00    +0.189 A 
ATOM     25  C   UNL     1      -9.772  -8.764  17.337  0.00  0.00    +0.054 A 
ATOM     28  C   UNL     1     -10.417  -8.100  16.266  0.00  0.00    +0.042 A 
ATOM     31  C   UNL     1     -10.108  -8.815  15.132  0.00  0.00    +0.196 A 
ENDBRANCH  21  23
BRANCH   9  12
ATOM     12  C   UNL     1      -5.873 -10.402  14.474  0.00  0.00    +0.020 C 
BRANCH  12  15
ATOM     15  C   UNL     1      -4.951 -10.268  13.272  0.00  0.00    +0.085 C 
BRANCH  15   7
ATOM      7  N   UNL     1      -5.582  -9.429  12.253  0.00  0.00    -0.299 NA
ATOM      8  N   UNL     1      -6.653  -8.816   9.677  0.00  0.00    -0.327 N 
ATOM     17  C   UNL     1      -6.855 -10.016  11.819  0.00  0.00    +0.103 C 
ATOM     18  C   UNL     1      -4.689  -9.261  11.100  0.00  0.00    +0.103 C 
ATOM     19  C   UNL     1      -7.554  -9.120  10.793  0.00  0.00    +0.120 C 
ATOM     20  C   UNL     1      -5.316  -8.338  10.051  0.00  0.00    +0.120 C 
BRANCH   8  24
ATOM      1  F   UNL     1      -8.747  -7.151   4.839  0.00  0.00    -0.205 F 
ATOM     24  C   UNL     1      -7.183  -8.395   8.453  0.00  0.00    +0.030 A 
ATOM     26  C   UNL     1      -7.954  -7.234   8.389  0.00  0.00    +0.026 A 
ATOM     27  C   UNL     1      -6.940  -9.135   7.295  0.00  0.00    +0.026 A 
ATOM     29  C   UNL     1      -8.482  -6.813   7.168  0.00  0.00    +0.040 A 
ATOM     30  C   UNL     1      -7.470  -8.715   6.075  0.00  0.00    +0.040 A 
ATOM     32  C   UNL     1      -8.240  -7.555   6.012  0.00  0.00    +0.124 A 
ENDBRANCH   8  24
ENDBRANCH  15   7
ENDBRANCH  12  15
ENDBRANCH   9  12
BRANCH  10  16
ATOM     16  C   UNL     1      -3.190 -11.571  15.338  0.00  0.00    +0.124 C 
BRANCH  16  22
ATOM      4  O   UNL     1      -1.447 -10.054  14.562  0.00  0.00    -0.251 OA
ATOM     22  C   UNL     1      -1.901 -10.800  15.416  0.00  0.00    +0.305 C 
BRANCH  22   2
ATOM      2  O   UNL     1      -1.288 -11.051  16.602  0.00  0.00    -0.481 OA
ATOM     33  H   UNL     1      -1.231 -10.247  17.160  0.00  0.00    +0.295 HD
ENDBRANCH  22   2
ENDBRANCH  16  22
ENDBRANCH  10  16
TORSDOF 8
ENDMDL
MODEL 10
REMARK VINA RESULT:      -6.0     14.642     17.833
REMARK  Name = 28959952
REMARK  8 active torsions:
REMARK  status: ('A' for Active; 'I' for Inactive)
REMARK    1  A    between atoms: O_2  and  C_22
REMARK    2  A    between atoms: N_7  and  C_15
REMARK    3  A    between atoms: N_8  and  C_24
REMARK    4  A    between atoms: C_9  and  C_12
REMARK    5  A    between atoms: C_10  and  C_16
REMARK    6  A    between atoms: C_12  and  C_15
REMARK    7  A    between atoms: C_16  and  C_22
REMARK    8  A    between atoms: C_21  and  C_23
REMARK                            x       y       z     vdW  Elec       q    Type
REMARK                         _______ _______ _______ _____ _____    ______ ____
ROOT
ATOM      3  O   UNL     1      11.447  11.402   6.002  0.00  0.00    -0.267 OA
ATOM      6  N   UNL     1      11.806   9.253   6.856  0.00  0.00    -0.295 N 
ATOM      9  C   UNL     1      11.507   6.793   6.680  0.00  0.00    +0.011 C 
ATOM     10  C   UNL     1      10.422   6.885   7.784  0.00  0.00    +0.006 C 
ATOM     11  C   UNL     1      12.502   7.959   6.824  0.00  0.00    +0.112 C 
ATOM     13  C   UNL     1       9.758   8.271   7.809  0.00  0.00    +0.023 C 
ATOM     14  C   UNL     1      10.799   9.382   7.908  0.00  0.00    +0.108 C 
ATOM     21  C   UNL     1      12.031  10.320   5.982  0.00  0.00    +0.282 C 
ENDROOT
BRANCH  21  23
ATOM      5  O   UNL     1      12.625   9.950   3.664  0.00  0.00    -0.458 OA
ATOM     23  C   UNL     1      13.049  10.154   4.939  0.00  0.00    +0.189 A 
ATOM     25  C   UNL     1      14.423  10.166   4.996  0.00  0.00    +0.054 A 
ATOM     28  C   UNL     1      14.873   9.956   3.670  0.00  0.00    +0.042 A 
ATOM     31  C   UNL     1      13.741   9.831   2.898  0.00  0.00    +0.196 A 
ENDBRANCH  21  23
BRANCH   9  12
ATOM     12  C   UNL     1      10.943   6.747   5.254  0.00  0.00    +0.020 C 
BRANCH  12  15
ATOM     15  C   UNL     1      12.058   6.570   4.235  0.00  0.00    +0.085 C 
BRANCH  15   7
ATOM      7  N   UNL     1      11.490   6.218   2.933  0.00  0.00    -0.299 NA
ATOM      8  N   UNL     1      11.368   4.865   0.421  0.00  0.00    -0.327 N 
ATOM     17  C   UNL     1      11.183   4.784   2.876  0.00  0.00    +0.103 C 
ATOM     18  C   UNL     1      12.418   6.575   1.853  0.00  0.00    +0.103 C 
ATOM     19  C   UNL     1      10.535   4.412   1.540  0.00  0.00    +0.120 C 
ATOM     20  C   UNL     1      11.810   6.264   0.483  0.00  0.00    +0.120 C 
BRANCH   8  24
ATOM      1  F   UNL     1      10.752   2.549  -4.561  0.00  0.00    -0.205 F 
ATOM     24  C   UNL     1      11.213   4.279  -0.840  0.00  0.00    +0.030 A 
ATOM     26  C   UNL     1      12.031   3.216  -1.221  0.00  0.00    +0.026 A 
ATOM     27  C   UNL     1      10.238   4.757  -1.716  0.00  0.00    +0.026 A 
ATOM     29  C   UNL     1      11.876   2.631  -2.478  0.00  0.00    +0.040 A 
ATOM     30  C   UNL     1      10.083   4.174  -2.974  0.00  0.00    +0.040 A 
ATOM     32  C   UNL     1      10.901   3.111  -3.354  0.00  0.00    +0.124 A 
ENDBRANCH   8  24
ENDBRANCH  15   7
ENDBRANCH  12  15
ENDBRANCH   9  12
BRANCH  10  16
ATOM     16  C   UNL     1       9.369   5.783   7.684  0.00  0.00    +0.124 C 
BRANCH  16  22
ATOM      4  O   UNL     1       8.939   4.688   9.820  0.00  0.00    -0.251 OA
ATOM     22  C   UNL     1       9.546   4.748   8.761  0.00  0.00    +0.305 C 
BRANCH  22   2
ATOM      2  O   UNL     1      10.501   3.857   8.386  0.00  0.00    -0.481 OA
ATOM     33  H   UNL     1      10.731   3.242   9.115  0.00  0.00    +0.295 HD
ENDBRANCH  22   2
ENDBRANCH  16  22
ENDBRANCH  10  16
TORSDOF 8
ENDMDL
