MODEL 1
REMARK VINA RESULT:      -7.5      0.000      0.000
REMARK  Name = 45361402
REMARK  12 active torsions:
REMARK  status: ('A' for Active; 'I' for Inactive)
REMARK    1  A    between atoms: O_1  and  C_10
REMARK    2  A    between atoms: O_4  and  C_35
REMARK    3  A    between atoms: O_4  and  C_36
REMARK    4  A    between atoms: N_5  and  C_14
REMARK    5  A    between atoms: N_6  and  C_24
REMARK    6  A    between atoms: C_7  and  C_17
REMARK    7  A    between atoms: C_9  and  C_19
REMARK    8  A    between atoms: C_13  and  C_18
REMARK    9  A    between atoms: C_18  and  C_20
REMARK   10  A    between atoms: C_18  and  C_21
REMARK   11  A    between atoms: C_22  and  C_23
REMARK   12  A    between atoms: C_24  and  C_27
REMARK                            x       y       z     vdW  Elec       q    Type
REMARK                         _______ _______ _______ _____ _____    ______ ____
ROOT
ATOM      7  C   UNL     1      -4.729 -11.080  16.947  0.00  0.00    -0.027 C 
ATOM      8  C   UNL     1      -5.514 -10.453  15.748  0.00  0.00    +0.028 C 
ATOM      9  C   UNL     1      -7.065 -10.541  15.989  0.00  0.00    +0.012 C 
ATOM     10  C   UNL     1      -5.016 -11.021  14.388  0.00  0.00    +0.122 C 
ATOM     11  C   UNL     1      -3.210 -10.876  16.732  0.00  0.00    +0.007 C 
ATOM     12  C   UNL     1      -5.122 -10.345  18.249  0.00  0.00    +0.009 C 
ATOM     13  C   UNL     1      -3.483 -10.907  14.223  0.00  0.00    +0.029 C 
ATOM     14  C   UNL     1      -7.440  -9.865  17.338  0.00  0.00    +0.076 C 
ATOM     15  C   UNL     1      -2.711 -11.465  15.419  0.00  0.00    +0.007 C 
ATOM     16  C   UNL     1      -6.619 -10.374  18.522  0.00  0.00    +0.023 C 
ATOM     17  C   UNL     1      -5.007 -12.596  17.113  0.00  0.00    +0.011 C 
ATOM     19  C   UNL     1      -7.900  -9.915  14.860  0.00  0.00    +0.010 C 
ENDROOT
BRANCH  14   5
ATOM      3  O   UNL     1      -9.445  -7.810  17.350  0.00  0.00    -0.270 OA
ATOM      5  N   UNL     1      -8.845 -10.029  17.648  0.00  0.00    -0.308 N 
ATOM     22  C   UNL     1      -9.736  -8.970  17.626  0.00  0.00    +0.244 C 
ATOM     37  H   UNL     1      -9.133 -10.936  17.997  0.00  0.00    +0.149 HD
BRANCH  22  23
ATOM     23  C   UNL     1     -11.137  -9.299  17.994  0.00  0.00    +0.037 A 
ATOM     25  C   UNL     1     -12.178  -8.996  17.116  0.00  0.00    +0.013 A 
ATOM     26  C   UNL     1     -11.412  -9.912  19.216  0.00  0.00    +0.013 A 
ATOM     28  C   UNL     1     -13.494  -9.306  17.462  0.00  0.00    +0.001 A 
ATOM     29  C   UNL     1     -12.727 -10.222  19.562  0.00  0.00    +0.001 A 
ATOM     30  C   UNL     1     -13.769  -9.919  18.684  0.00  0.00    +0.000 A 
ENDBRANCH  22  23
ENDBRANCH  14   5
BRANCH  10   1
ATOM      1  O   UNL     1      -5.598 -10.274  13.318  0.00  0.00    -0.391 OA
ATOM     38  H   UNL     1      -5.106 -10.476  12.505  0.00  0.00    +0.210 HD
ENDBRANCH  10   1
BRANCH  13  18
ATOM     18  C   UNL     1      -2.998 -11.587  12.937  0.00  0.00    +0.077 C 
ATOM     20  C   UNL     1      -1.842 -12.532  13.248  0.00  0.00    +0.017 C 
BRANCH  18  21
ATOM      2  O   UNL     1      -1.470 -10.034  11.879  0.00  0.00    -0.276 OA
ATOM      6  N   UNL     1      -3.625 -10.213  11.043  0.00  0.00    -0.311 N 
ATOM     21  C   UNL     1      -2.592 -10.533  11.912  0.00  0.00    +0.216 C 
ATOM     39  H   UNL     1      -4.508 -10.709  11.101  0.00  0.00    +0.149 HD
BRANCH   6  24
ATOM     24  C   UNL     1      -3.483  -9.238   9.986  0.00  0.00    +0.139 C 
BRANCH  24  27
ATOM     27  C   UNL     1      -4.747  -9.082   9.192  0.00  0.00    -0.030 A 
ATOM     31  C   UNL     1      -4.925  -9.805   8.012  0.00  0.00    +0.009 A 
ATOM     32  C   UNL     1      -5.746  -8.214   9.636  0.00  0.00    +0.009 A 
ATOM     33  C   UNL     1      -6.100  -9.660   7.276  0.00  0.00    +0.046 A 
ATOM     34  C   UNL     1      -6.922  -8.071   8.899  0.00  0.00    +0.046 A 
ATOM     35  C   UNL     1      -7.099  -8.794   7.719  0.00  0.00    +0.120 A 
BRANCH  35   4
ATOM      4  O   UNL     1      -8.247  -8.654   7.002  0.00  0.00    -0.495 OA
ATOM     36  C   UNL     1      -8.454  -7.404   6.345  0.00  0.00    +0.277 C 
ENDBRANCH  35   4
ENDBRANCH  24  27
ENDBRANCH   6  24
ENDBRANCH  18  21
ENDBRANCH  13  18
TORSDOF 8
ENDMDL
MODEL 2
REMARK VINA RESULT:      -7.1      3.286      6.128
REMARK  Name = 45361402
REMARK  12 active torsions:
REMARK  status: ('A' for Active; 'I' for Inactive)
REMARK    1  A    between atoms: O_1  and  C_10
REMARK    2  A    between atoms: O_4  and  C_35
REMARK    3  A    between atoms: O_4  and  C_36
REMARK    4  A    between atoms: N_5  and  C_14
REMARK    5  A    between atoms: N_6  and  C_24
REMARK    6  A    between atoms: C_7  and  C_17
REMARK    7  A    between atoms: C_9  and  C_19
REMARK    8  A    between atoms: C_13  and  C_18
REMARK    9  A    between atoms: C_18  and  C_20
REMARK   10  A    between atoms: C_18  and  C_21
REMARK   11  A    between atoms: C_22  and  C_23
REMARK   12  A    between atoms: C_24  and  C_27
REMARK                            x       y       z     vdW  Elec       q    Type
REMARK                         _______ _______ _______ _____ _____    ______ ____
ROOT
ATOM      7  C   UNL     1      -4.559 -10.587  11.058  0.00  0.00    -0.027 C 
ATOM      8  C   UNL     1      -5.938  -9.907  11.351  0.00  0.00    +0.028 C 
ATOM      9  C   UNL     1      -6.531 -10.411  12.716  0.00  0.00    +0.012 C 
ATOM     10  C   UNL     1      -6.892 -10.017  10.126  0.00  0.00    +0.122 C 
ATOM     11  C   UNL     1      -3.951  -9.987   9.768  0.00  0.00    +0.007 C 
ATOM     12  C   UNL     1      -3.589 -10.281  12.222  0.00  0.00    +0.009 C 
ATOM     13  C   UNL     1      -6.241  -9.510   8.819  0.00  0.00    +0.029 C 
ATOM     14  C   UNL     1      -5.515 -10.168  13.867  0.00  0.00    +0.076 C 
ATOM     15  C   UNL     1      -4.867 -10.127   8.559  0.00  0.00    +0.007 C 
ATOM     16  C   UNL     1      -4.122 -10.725  13.577  0.00  0.00    +0.023 C 
ATOM     17  C   UNL     1      -4.679 -12.122  10.883  0.00  0.00    +0.011 C 
ATOM     19  C   UNL     1      -7.876  -9.761  13.081  0.00  0.00    +0.010 C 
ENDROOT
BRANCH  14   5
ATOM      3  O   UNL     1      -4.628  -9.445  16.500  0.00  0.00    -0.270 OA
ATOM      5  N   UNL     1      -5.981 -10.725  15.120  0.00  0.00    -0.308 N 
ATOM     22  C   UNL     1      -5.488 -10.307  16.344  0.00  0.00    +0.244 C 
ATOM     37  H   UNL     1      -6.605 -11.522  15.062  0.00  0.00    +0.149 HD
BRANCH  22  23
ATOM     23  C   UNL     1      -6.049 -10.996  17.534  0.00  0.00    +0.037 A 
ATOM     25  C   UNL     1      -7.044 -11.962  17.376  0.00  0.00    +0.013 A 
ATOM     26  C   UNL     1      -5.582 -10.680  18.809  0.00  0.00    +0.013 A 
ATOM     28  C   UNL     1      -7.571 -12.610  18.494  0.00  0.00    +0.001 A 
ATOM     29  C   UNL     1      -6.108 -11.328  19.927  0.00  0.00    +0.001 A 
ATOM     30  C   UNL     1      -7.104 -12.293  19.769  0.00  0.00    +0.000 A 
ENDBRANCH  22  23
ENDBRANCH  14   5
BRANCH  10   1
ATOM      1  O   UNL     1      -8.047  -9.205  10.349  0.00  0.00    -0.391 OA
ATOM     38  H   UNL     1      -8.573  -9.615  11.055  0.00  0.00    +0.210 HD
ENDBRANCH  10   1
BRANCH  13  18
ATOM     18  C   UNL     1      -7.147  -9.746   7.604  0.00  0.00    +0.077 C 
ATOM     20  C   UNL     1      -6.428 -10.609   6.574  0.00  0.00    +0.017 C 
BRANCH  18  21
ATOM      2  O   UNL     1      -7.502  -8.164   5.805  0.00  0.00    -0.276 OA
ATOM      6  N   UNL     1      -8.044  -7.524   7.967  0.00  0.00    -0.311 N 
ATOM     21  C   UNL     1      -7.575  -8.408   7.007  0.00  0.00    +0.216 C 
ATOM     39  H   UNL     1      -8.123  -7.820   8.934  0.00  0.00    +0.149 HD
BRANCH   6  24
ATOM     24  C   UNL     1      -8.504  -6.193   7.645  0.00  0.00    +0.139 C 
BRANCH  24  27
ATOM     27  C   UNL     1      -9.638  -5.762   8.529  0.00  0.00    -0.030 A 
ATOM     31  C   UNL     1     -10.443  -6.718   9.149  0.00  0.00    +0.009 A 
ATOM     32  C   UNL     1      -9.887  -4.403   8.730  0.00  0.00    +0.009 A 
ATOM     33  C   UNL     1     -11.495  -6.316   9.971  0.00  0.00    +0.046 A 
ATOM     34  C   UNL     1     -10.940  -4.002   9.553  0.00  0.00    +0.046 A 
ATOM     35  C   UNL     1     -11.744  -4.959  10.174  0.00  0.00    +0.120 A 
BRANCH  35   4
ATOM      4  O   UNL     1     -12.770  -4.567  10.978  0.00  0.00    -0.495 OA
ATOM     36  C   UNL     1     -12.428  -3.842  12.159  0.00  0.00    +0.277 C 
ENDBRANCH  35   4
ENDBRANCH  24  27
ENDBRANCH   6  24
ENDBRANCH  18  21
ENDBRANCH  13  18
TORSDOF 8
ENDMDL
MODEL 3
REMARK VINA RESULT:      -7.0     19.012     22.106
REMARK  Name = 45361402
REMARK  12 active torsions:
REMARK  status: ('A' for Active; 'I' for Inactive)
REMARK    1  A    between atoms: O_1  and  C_10
REMARK    2  A    between atoms: O_4  and  C_35
REMARK    3  A    between atoms: O_4  and  C_36
REMARK    4  A    between atoms: N_5  and  C_14
REMARK    5  A    between atoms: N_6  and  C_24
REMARK    6  A    between atoms: C_7  and  C_17
REMARK    7  A    between atoms: C_9  and  C_19
REMARK    8  A    between atoms: C_13  and  C_18
REMARK    9  A    between atoms: C_18  and  C_20
REMARK   10  A    between atoms: C_18  and  C_21
REMARK   11  A    between atoms: C_22  and  C_23
REMARK   12  A    between atoms: C_24  and  C_27
REMARK                            x       y       z     vdW  Elec       q    Type
REMARK                         _______ _______ _______ _____ _____    ______ ____
ROOT
ATOM      7  C   UNL     1     -13.037   6.961  21.214  0.00  0.00    -0.027 C 
ATOM      8  C   UNL     1     -14.023   6.953  20.000  0.00  0.00    +0.028 C 
ATOM      9  C   UNL     1     -13.759   8.182  19.056  0.00  0.00    +0.012 C 
ATOM     10  C   UNL     1     -15.496   6.776  20.470  0.00  0.00    +0.122 C 
ATOM     11  C   UNL     1     -13.247   5.682  22.059  0.00  0.00    +0.007 C 
ATOM     12  C   UNL     1     -11.585   6.941  20.685  0.00  0.00    +0.009 C 
ATOM     13  C   UNL     1     -15.681   5.555  21.399  0.00  0.00    +0.029 C 
ATOM     14  C   UNL     1     -12.276   8.193  18.591  0.00  0.00    +0.076 C 
ATOM     15  C   UNL     1     -14.679   5.527  22.554  0.00  0.00    +0.007 C 
ATOM     16  C   UNL     1     -11.276   8.096  19.743  0.00  0.00    +0.023 C 
ATOM     17  C   UNL     1     -13.230   8.198  22.128  0.00  0.00    +0.011 C 
ATOM     19  C   UNL     1     -14.677   8.220  17.823  0.00  0.00    +0.010 C 
ENDROOT
BRANCH  14   5
ATOM      3  O   UNL     1     -10.212   8.454  16.612  0.00  0.00    -0.270 OA
ATOM      5  N   UNL     1     -11.967   9.376  17.813  0.00  0.00    -0.308 N 
ATOM     22  C   UNL     1     -10.946   9.401  16.879  0.00  0.00    +0.244 C 
ATOM     37  H   UNL     1     -12.457  10.228  18.063  0.00  0.00    +0.149 HD
BRANCH  22  23
ATOM     23  C   UNL     1     -10.740  10.698  16.184  0.00  0.00    +0.037 A 
ATOM     25  C   UNL     1      -9.711  11.549  16.588  0.00  0.00    +0.013 A 
ATOM     26  C   UNL     1     -11.574  11.065  15.129  0.00  0.00    +0.013 A 
ATOM     28  C   UNL     1      -9.517  12.766  15.934  0.00  0.00    +0.001 A 
ATOM     29  C   UNL     1     -11.381  12.282  14.476  0.00  0.00    +0.001 A 
ATOM     30  C   UNL     1     -10.351  13.133  14.879  0.00  0.00    +0.000 A 
ENDBRANCH  22  23
ENDBRANCH  14   5
BRANCH  10   1
ATOM      1  O   UNL     1     -16.336   6.557  19.335  0.00  0.00    -0.391 OA
ATOM     38  H   UNL     1     -16.409   5.598  19.194  0.00  0.00    +0.210 HD
ENDBRANCH  10   1
BRANCH  13  18
ATOM     18  C   UNL     1     -17.107   5.473  21.955  0.00  0.00    +0.077 C 
ATOM     20  C   UNL     1     -17.255   6.397  23.158  0.00  0.00    +0.017 C 
BRANCH  18  21
ATOM      2  O   UNL     1     -17.580   3.146  21.476  0.00  0.00    -0.276 OA
ATOM      6  N   UNL     1     -17.570   3.844  23.688  0.00  0.00    -0.311 N 
ATOM     21  C   UNL     1     -17.442   4.029  22.319  0.00  0.00    +0.216 C 
ATOM     39  H   UNL     1     -17.388   4.613  24.324  0.00  0.00    +0.149 HD
BRANCH   6  24
ATOM     24  C   UNL     1     -17.887   2.563  24.276  0.00  0.00    +0.139 C 
BRANCH  24  27
ATOM     27  C   UNL     1     -17.246   2.389  25.622  0.00  0.00    -0.030 A 
ATOM     31  C   UNL     1     -16.682   3.486  26.274  0.00  0.00    +0.009 A 
ATOM     32  C   UNL     1     -17.216   1.129  26.222  0.00  0.00    +0.009 A 
ATOM     33  C   UNL     1     -16.089   3.323  27.525  0.00  0.00    +0.046 A 
ATOM     34  C   UNL     1     -16.623   0.968  27.475  0.00  0.00    +0.046 A 
ATOM     35  C   UNL     1     -16.059   2.065  28.126  0.00  0.00    +0.120 A 
BRANCH  35   4
ATOM      4  O   UNL     1     -15.481   1.908  29.349  0.00  0.00    -0.495 OA
ATOM     36  C   UNL     1     -15.444   0.584  29.883  0.00  0.00    +0.277 C 
ENDBRANCH  35   4
ENDBRANCH  24  27
ENDBRANCH   6  24
ENDBRANCH  18  21
ENDBRANCH  13  18
TORSDOF 8
ENDMDL
MODEL 4
REMARK VINA RESULT:      -7.0      2.258      9.034
REMARK  Name = 45361402
REMARK  12 active torsions:
REMARK  status: ('A' for Active; 'I' for Inactive)
REMARK    1  A    between atoms: O_1  and  C_10
REMARK    2  A    between atoms: O_4  and  C_35
REMARK    3  A    between atoms: O_4  and  C_36
REMARK    4  A    between atoms: N_5  and  C_14
REMARK    5  A    between atoms: N_6  and  C_24
REMARK    6  A    between atoms: C_7  and  C_17
REMARK    7  A    between atoms: C_9  and  C_19
REMARK    8  A    between atoms: C_13  and  C_18
REMARK    9  A    between atoms: C_18  and  C_20
REMARK   10  A    between atoms: C_18  and  C_21
REMARK   11  A    between atoms: C_22  and  C_23
REMARK   12  A    between atoms: C_24  and  C_27
REMARK                            x       y       z     vdW  Elec       q    Type
REMARK                         _______ _______ _______ _____ _____    ______ ____
ROOT
ATOM      7  C   UNL     1      -3.172 -11.433  11.813  0.00  0.00    -0.027 C 
ATOM      8  C   UNL     1      -4.520 -10.943  12.437  0.00  0.00    +0.028 C 
ATOM      9  C   UNL     1      -5.287 -10.000  11.440  0.00  0.00    +0.012 C 
ATOM     10  C   UNL     1      -4.304 -10.369  13.867  0.00  0.00    +0.122 C 
ATOM     11  C   UNL     1      -2.498 -12.445  12.770  0.00  0.00    +0.007 C 
ATOM     12  C   UNL     1      -3.467 -12.167  10.485  0.00  0.00    +0.009 C 
ATOM     13  C   UNL     1      -3.539 -11.345  14.790  0.00  0.00    +0.029 C 
ATOM     14  C   UNL     1      -5.512 -10.722  10.082  0.00  0.00    +0.076 C 
ATOM     15  C   UNL     1      -2.250 -11.874  14.160  0.00  0.00    +0.007 C 
ATOM     16  C   UNL     1      -4.233 -11.311   9.486  0.00  0.00    +0.023 C 
ATOM     17  C   UNL     1      -2.183 -10.270  11.544  0.00  0.00    +0.011 C 
ATOM     19  C   UNL     1      -6.639  -9.503  11.979  0.00  0.00    +0.010 C 
ENDROOT
BRANCH  14   5
ATOM      3  O   UNL     1      -7.624 -11.384   8.252  0.00  0.00    -0.270 OA
ATOM      5  N   UNL     1      -6.113  -9.844   9.100  0.00  0.00    -0.308 N 
ATOM     22  C   UNL     1      -7.132 -10.260   8.259  0.00  0.00    +0.244 C 
ATOM     37  H   UNL     1      -5.678  -8.937   8.971  0.00  0.00    +0.149 HD
BRANCH  22  23
ATOM     23  C   UNL     1      -7.622  -9.246   7.291  0.00  0.00    +0.037 A 
ATOM     25  C   UNL     1      -7.064  -9.174   6.014  0.00  0.00    +0.013 A 
ATOM     26  C   UNL     1      -8.640  -8.366   7.656  0.00  0.00    +0.013 A 
ATOM     28  C   UNL     1      -7.526  -8.222   5.104  0.00  0.00    +0.001 A 
ATOM     29  C   UNL     1      -9.102  -7.415   6.747  0.00  0.00    +0.001 A 
ATOM     30  C   UNL     1      -8.544  -7.343   5.470  0.00  0.00    +0.000 A 
ENDBRANCH  22  23
ENDBRANCH  14   5
BRANCH  10   1
ATOM      1  O   UNL     1      -5.572 -10.135  14.482  0.00  0.00    -0.391 OA
ATOM     38  H   UNL     1      -6.136 -10.909  14.316  0.00  0.00    +0.210 HD
ENDBRANCH  10   1
BRANCH  13  18
ATOM     18  C   UNL     1      -3.223 -10.712  16.150  0.00  0.00    +0.077 C 
ATOM     20  C   UNL     1      -1.715 -10.658  16.366  0.00  0.00    +0.017 C 
BRANCH  18  21
ATOM      2  O   UNL     1      -3.486 -11.536  18.412  0.00  0.00    -0.276 OA
ATOM      6  N   UNL     1      -5.061 -12.141  16.821  0.00  0.00    -0.311 N 
ATOM     21  C   UNL     1      -3.916 -11.495  17.261  0.00  0.00    +0.216 C 
ATOM     39  H   UNL     1      -5.379 -12.015  15.866  0.00  0.00    +0.149 HD
BRANCH   6  24
ATOM     24  C   UNL     1      -5.886 -12.948  17.690  0.00  0.00    +0.139 C 
BRANCH  24  27
ATOM     27  C   UNL     1      -7.100 -12.202  18.163  0.00  0.00    -0.030 A 
ATOM     31  C   UNL     1      -7.787 -12.634  19.298  0.00  0.00    +0.009 A 
ATOM     32  C   UNL     1      -7.541 -11.075  17.468  0.00  0.00    +0.009 A 
ATOM     33  C   UNL     1      -8.913 -11.940  19.738  0.00  0.00    +0.046 A 
ATOM     34  C   UNL     1      -8.667 -10.381  17.909  0.00  0.00    +0.046 A 
ATOM     35  C   UNL     1      -9.354 -10.813  19.044  0.00  0.00    +0.120 A 
BRANCH  35   4
ATOM      4  O   UNL     1     -10.452 -10.135  19.475  0.00  0.00    -0.495 OA
ATOM     36  C   UNL     1     -11.476 -10.897  20.114  0.00  0.00    +0.277 C 
ENDBRANCH  35   4
ENDBRANCH  24  27
ENDBRANCH   6  24
ENDBRANCH  18  21
ENDBRANCH  13  18
TORSDOF 8
ENDMDL
MODEL 5
REMARK VINA RESULT:      -7.0     23.566     27.134
REMARK  Name = 45361402
REMARK  12 active torsions:
REMARK  status: ('A' for Active; 'I' for Inactive)
REMARK    1  A    between atoms: O_1  and  C_10
REMARK    2  A    between atoms: O_4  and  C_35
REMARK    3  A    between atoms: O_4  and  C_36
REMARK    4  A    between atoms: N_5  and  C_14
REMARK    5  A    between atoms: N_6  and  C_24
REMARK    6  A    between atoms: C_7  and  C_17
REMARK    7  A    between atoms: C_9  and  C_19
REMARK    8  A    between atoms: C_13  and  C_18
REMARK    9  A    between atoms: C_18  and  C_20
REMARK   10  A    between atoms: C_18  and  C_21
REMARK   11  A    between atoms: C_22  and  C_23
REMARK   12  A    between atoms: C_24  and  C_27
REMARK                            x       y       z     vdW  Elec       q    Type
REMARK                         _______ _______ _______ _____ _____    ______ ____
ROOT
ATOM      7  C   UNL     1       3.453   4.862  -7.285  0.00  0.00    -0.027 C 
ATOM      8  C   UNL     1       2.892   4.459  -5.881  0.00  0.00    +0.028 C 
ATOM      9  C   UNL     1       1.536   3.678  -6.023  0.00  0.00    +0.012 C 
ATOM     10  C   UNL     1       2.863   5.678  -4.914  0.00  0.00    +0.122 C 
ATOM     11  C   UNL     1       4.840   5.527  -7.115  0.00  0.00    +0.007 C 
ATOM     12  C   UNL     1       3.645   3.586  -8.137  0.00  0.00    +0.009 C 
ATOM     13  C   UNL     1       4.226   6.402  -4.828  0.00  0.00    +0.029 C 
ATOM     14  C   UNL     1       1.723   2.439  -6.944  0.00  0.00    +0.076 C 
ATOM     15  C   UNL     1       4.807   6.744  -6.201  0.00  0.00    +0.007 C 
ATOM     16  C   UNL     1       2.367   2.772  -8.289  0.00  0.00    +0.023 C 
ATOM     17  C   UNL     1       2.520   5.844  -8.038  0.00  0.00    +0.011 C 
ATOM     19  C   UNL     1       0.942   3.225  -4.679  0.00  0.00    +0.010 C 
ENDROOT
BRANCH  14   5
ATOM      3  O   UNL     1       0.798   0.029  -5.686  0.00  0.00    -0.270 OA
ATOM      5  N   UNL     1       0.468   1.761  -7.191  0.00  0.00    -0.308 N 
ATOM     22  C   UNL     1       0.112   0.597  -6.530  0.00  0.00    +0.244 C 
ATOM     37  H   UNL     1      -0.097   2.110  -7.958  0.00  0.00    +0.149 HD
BRANCH  22  23
ATOM     23  C   UNL     1      -1.197   0.011  -6.917  0.00  0.00    +0.037 A 
ATOM     25  C   UNL     1      -2.068   0.730  -7.737  0.00  0.00    +0.013 A 
ATOM     26  C   UNL     1      -1.555  -1.257  -6.462  0.00  0.00    +0.013 A 
ATOM     28  C   UNL     1      -3.297   0.178  -8.101  0.00  0.00    +0.001 A 
ATOM     29  C   UNL     1      -2.784  -1.809  -6.826  0.00  0.00    +0.001 A 
ATOM     30  C   UNL     1      -3.655  -1.090  -7.646  0.00  0.00    +0.000 A 
ENDBRANCH  22  23
ENDBRANCH  14   5
BRANCH  10   1
ATOM      1  O   UNL     1       2.554   5.231  -3.593  0.00  0.00    -0.391 OA
ATOM     38  H   UNL     1       3.114   5.722  -2.969  0.00  0.00    +0.210 HD
ENDBRANCH  10   1
BRANCH  13  18
ATOM     18  C   UNL     1       4.143   7.673  -3.975  0.00  0.00    +0.077 C 
ATOM     20  C   UNL     1       3.431   8.777  -4.748  0.00  0.00    +0.017 C 
BRANCH  18  21
ATOM      2  O   UNL     1       5.942   9.263  -3.661  0.00  0.00    -0.276 OA
ATOM      6  N   UNL     1       6.290   7.057  -3.034  0.00  0.00    -0.311 N 
ATOM     21  C   UNL     1       5.543   8.106  -3.549  0.00  0.00    +0.216 C 
ATOM     39  H   UNL     1       5.869   6.140  -2.925  0.00  0.00    +0.149 HD
BRANCH   6  24
ATOM     24  C   UNL     1       7.647   7.220  -2.566  0.00  0.00    +0.139 C 
BRANCH  24  27
ATOM     27  C   UNL     1       8.482   6.001  -2.828  0.00  0.00    -0.030 A 
ATOM     31  C   UNL     1       9.505   5.653  -1.946  0.00  0.00    +0.009 A 
ATOM     32  C   UNL     1       8.234   5.215  -3.954  0.00  0.00    +0.009 A 
ATOM     33  C   UNL     1      10.279   4.519  -2.190  0.00  0.00    +0.046 A 
ATOM     34  C   UNL     1       9.008   4.081  -4.197  0.00  0.00    +0.046 A 
ATOM     35  C   UNL     1      10.032   3.733  -3.315  0.00  0.00    +0.120 A 
BRANCH  35   4
ATOM      4  O   UNL     1      10.786   2.625  -3.551  0.00  0.00    -0.495 OA
ATOM     36  C   UNL     1      11.592   2.148  -2.473  0.00  0.00    +0.277 C 
ENDBRANCH  35   4
ENDBRANCH  24  27
ENDBRANCH   6  24
ENDBRANCH  18  21
ENDBRANCH  13  18
TORSDOF 8
ENDMDL
MODEL 6
REMARK VINA RESULT:      -6.9     29.415     32.727
REMARK  Name = 45361402
REMARK  12 active torsions:
REMARK  status: ('A' for Active; 'I' for Inactive)
REMARK    1  A    between atoms: O_1  and  C_10
REMARK    2  A    between atoms: O_4  and  C_35
REMARK    3  A    between atoms: O_4  and  C_36
REMARK    4  A    between atoms: N_5  and  C_14
REMARK    5  A    between atoms: N_6  and  C_24
REMARK    6  A    between atoms: C_7  and  C_17
REMARK    7  A    between atoms: C_9  and  C_19
REMARK    8  A    between atoms: C_13  and  C_18
REMARK    9  A    between atoms: C_18  and  C_20
REMARK   10  A    between atoms: C_18  and  C_21
REMARK   11  A    between atoms: C_22  and  C_23
REMARK   12  A    between atoms: C_24  and  C_27
REMARK                            x       y       z     vdW  Elec       q    Type
REMARK                         _______ _______ _______ _____ _____    ______ ____
ROOT
ATOM      7  C   UNL     1      19.256   9.469  21.993  0.00  0.00    -0.027 C 
ATOM      8  C   UNL     1      18.461   8.228  21.468  0.00  0.00    +0.028 C 
ATOM      9  C   UNL     1      19.435   7.158  20.855  0.00  0.00    +0.012 C 
ATOM     10  C   UNL     1      17.281   8.660  20.551  0.00  0.00    +0.122 C 
ATOM     11  C   UNL     1      18.281  10.449  22.690  0.00  0.00    +0.007 C 
ATOM     12  C   UNL     1      20.285   9.001  23.047  0.00  0.00    +0.009 C 
ATOM     13  C   UNL     1      16.368   9.717  21.214  0.00  0.00    +0.029 C 
ATOM     14  C   UNL     1      20.513   6.750  21.900  0.00  0.00    +0.076 C 
ATOM     15  C   UNL     1      17.147  10.904  21.782  0.00  0.00    +0.007 C 
ATOM     16  C   UNL     1      21.243   7.942  22.517  0.00  0.00    +0.023 C 
ATOM     17  C   UNL     1      19.994  10.225  20.859  0.00  0.00    +0.011 C 
ATOM     19  C   UNL     1      18.722   5.895  20.345  0.00  0.00    +0.010 C 
ENDROOT
BRANCH  14   5
ATOM      3  O   UNL     1      21.728   4.496  23.197  0.00  0.00    -0.270 OA
ATOM      5  N   UNL     1      21.497   5.853  21.332  0.00  0.00    -0.308 N 
ATOM     22  C   UNL     1      22.026   4.789  22.043  0.00  0.00    +0.244 C 
ATOM     37  H   UNL     1      21.874   6.103  20.424  0.00  0.00    +0.149 HD
BRANCH  22  23
ATOM     23  C   UNL     1      23.045   3.979  21.328  0.00  0.00    +0.037 A 
ATOM     25  C   UNL     1      23.861   4.576  20.366  0.00  0.00    +0.013 A 
ATOM     26  C   UNL     1      23.187   2.623  21.618  0.00  0.00    +0.013 A 
ATOM     28  C   UNL     1      24.818   3.815  19.695  0.00  0.00    +0.001 A 
ATOM     29  C   UNL     1      24.145   1.862  20.947  0.00  0.00    +0.001 A 
ATOM     30  C   UNL     1      24.961   2.459  19.985  0.00  0.00    +0.000 A 
ENDBRANCH  22  23
ENDBRANCH  14   5
BRANCH  10   1
ATOM      1  O   UNL     1      16.456   7.528  20.270  0.00  0.00    -0.391 OA
ATOM     38  H   UNL     1      16.954   6.928  19.690  0.00  0.00    +0.210 HD
ENDBRANCH  10   1
BRANCH  13  18
ATOM     18  C   UNL     1      15.291  10.225  20.249  0.00  0.00    +0.077 C 
ATOM     20  C   UNL     1      15.346  11.745  20.154  0.00  0.00    +0.017 C 
BRANCH  18  21
ATOM      2  O   UNL     1      13.662   8.564  20.923  0.00  0.00    -0.276 OA
ATOM      6  N   UNL     1      13.009  10.788  20.841  0.00  0.00    -0.311 N 
ATOM     21  C   UNL     1      13.916   9.747  20.706  0.00  0.00    +0.216 C 
ATOM     39  H   UNL     1      13.311  11.745  20.694  0.00  0.00    +0.149 HD
BRANCH   6  24
ATOM     24  C   UNL     1      11.642  10.584  21.259  0.00  0.00    +0.139 C 
BRANCH  24  27
ATOM     27  C   UNL     1      11.288  11.423  22.453  0.00  0.00    -0.030 A 
ATOM     31  C   UNL     1      10.957  12.768  22.287  0.00  0.00    +0.009 A 
ATOM     32  C   UNL     1      11.291  10.856  23.728  0.00  0.00    +0.009 A 
ATOM     33  C   UNL     1      10.627  13.546  23.396  0.00  0.00    +0.046 A 
ATOM     34  C   UNL     1      10.960  11.635  24.837  0.00  0.00    +0.046 A 
ATOM     35  C   UNL     1      10.629  12.980  24.672  0.00  0.00    +0.120 A 
BRANCH  35   4
ATOM      4  O   UNL     1      10.305  13.740  25.754  0.00  0.00    -0.495 OA
ATOM     36  C   UNL     1      11.323  14.594  26.274  0.00  0.00    +0.277 C 
ENDBRANCH  35   4
ENDBRANCH  24  27
ENDBRANCH   6  24
ENDBRANCH  18  21
ENDBRANCH  13  18
TORSDOF 8
ENDMDL
MODEL 7
REMARK VINA RESULT:      -6.6     18.814     22.133
REMARK  Name = 45361402
REMARK  12 active torsions:
REMARK  status: ('A' for Active; 'I' for Inactive)
REMARK    1  A    between atoms: O_1  and  C_10
REMARK    2  A    between atoms: O_4  and  C_35
REMARK    3  A    between atoms: O_4  and  C_36
REMARK    4  A    between atoms: N_5  and  C_14
REMARK    5  A    between atoms: N_6  and  C_24
REMARK    6  A    between atoms: C_7  and  C_17
REMARK    7  A    between atoms: C_9  and  C_19
REMARK    8  A    between atoms: C_13  and  C_18
REMARK    9  A    between atoms: C_18  and  C_20
REMARK   10  A    between atoms: C_18  and  C_21
REMARK   11  A    between atoms: C_22  and  C_23
REMARK   12  A    between atoms: C_24  and  C_27
REMARK                            x       y       z     vdW  Elec       q    Type
REMARK                         _______ _______ _______ _____ _____    ______ ____
ROOT
ATOM      7  C   UNL     1     -12.747   7.658  20.806  0.00  0.00    -0.027 C 
ATOM      8  C   UNL     1     -13.469   8.066  19.479  0.00  0.00    +0.028 C 
ATOM      9  C   UNL     1     -13.016   9.496  19.013  0.00  0.00    +0.012 C 
ATOM     10  C   UNL     1     -15.007   7.855  19.587  0.00  0.00    +0.122 C 
ATOM     11  C   UNL     1     -13.129   6.205  21.176  0.00  0.00    +0.007 C 
ATOM     12  C   UNL     1     -11.218   7.700  20.581  0.00  0.00    +0.009 C 
ATOM     13  C   UNL     1     -15.380   6.430  20.057  0.00  0.00    +0.029 C 
ATOM     14  C   UNL     1     -11.469   9.548  18.863  0.00  0.00    +0.076 C 
ATOM     15  C   UNL     1     -14.631   6.004  21.320  0.00  0.00    +0.007 C 
ATOM     16  C   UNL     1     -10.721   9.057  20.102  0.00  0.00    +0.023 C 
ATOM     17  C   UNL     1     -13.114   8.585  21.992  0.00  0.00    +0.011 C 
ATOM     19  C   UNL     1     -13.667   9.950  17.696  0.00  0.00    +0.010 C 
ENDROOT
BRANCH  14   5
ATOM      3  O   UNL     1      -9.691  10.286  16.733  0.00  0.00    -0.270 OA
ATOM      5  N   UNL     1     -11.005  10.883  18.547  0.00  0.00    -0.308 N 
ATOM     22  C   UNL     1     -10.144  11.137  17.493  0.00  0.00    +0.244 C 
ATOM     37  H   UNL     1     -11.247  11.618  19.202  0.00  0.00    +0.149 HD
BRANCH  22  23
ATOM     23  C   UNL     1      -9.742  12.556  17.317  0.00  0.00    +0.037 A 
ATOM     25  C   UNL     1     -10.529  13.576  17.853  0.00  0.00    +0.013 A 
ATOM     26  C   UNL     1      -8.577  12.870  16.618  0.00  0.00    +0.013 A 
ATOM     28  C   UNL     1     -10.151  14.908  17.689  0.00  0.00    +0.001 A 
ATOM     29  C   UNL     1      -8.198  14.202  16.453  0.00  0.00    +0.001 A 
ATOM     30  C   UNL     1      -8.986  15.222  16.989  0.00  0.00    +0.000 A 
ENDBRANCH  22  23
ENDBRANCH  14   5
BRANCH  10   1
ATOM      1  O   UNL     1     -15.603   8.029  18.300  0.00  0.00    -0.391 OA
ATOM     38  H   UNL     1     -16.015   8.909  18.274  0.00  0.00    +0.210 HD
ENDBRANCH  10   1
BRANCH  13  18
ATOM     18  C   UNL     1     -16.890   6.282  20.281  0.00  0.00    +0.077 C 
ATOM     20  C   UNL     1     -17.252   6.699  21.702  0.00  0.00    +0.017 C 
BRANCH  18  21
ATOM      2  O   UNL     1     -17.192   4.319  18.894  0.00  0.00    -0.276 OA
ATOM      6  N   UNL     1     -17.860   4.223  21.113  0.00  0.00    -0.311 N 
ATOM     21  C   UNL     1     -17.319   4.845  19.997  0.00  0.00    +0.216 C 
ATOM     39  H   UNL     1     -17.882   4.708  22.003  0.00  0.00    +0.149 HD
BRANCH   6  24
ATOM     24  C   UNL     1     -18.341   2.861  21.091  0.00  0.00    +0.139 C 
BRANCH  24  27
ATOM     27  C   UNL     1     -18.138   2.172  22.409  0.00  0.00    -0.030 A 
ATOM     31  C   UNL     1     -17.512   2.845  23.459  0.00  0.00    +0.009 A 
ATOM     32  C   UNL     1     -18.575   0.858  22.584  0.00  0.00    +0.009 A 
ATOM     33  C   UNL     1     -17.325   2.204  24.683  0.00  0.00    +0.046 A 
ATOM     34  C   UNL     1     -18.388   0.219  23.809  0.00  0.00    +0.046 A 
ATOM     35  C   UNL     1     -17.763   0.892  24.859  0.00  0.00    +0.120 A 
BRANCH  35   4
ATOM      4  O   UNL     1     -17.582   0.268  26.055  0.00  0.00    -0.495 OA
ATOM     36  C   UNL     1     -16.730   0.914  27.001  0.00  0.00    +0.277 C 
ENDBRANCH  35   4
ENDBRANCH  24  27
ENDBRANCH   6  24
ENDBRANCH  18  21
ENDBRANCH  13  18
TORSDOF 8
ENDMDL
MODEL 8
REMARK VINA RESULT:      -6.6     21.420     25.584
REMARK  Name = 45361402
REMARK  12 active torsions:
REMARK  status: ('A' for Active; 'I' for Inactive)
REMARK    1  A    between atoms: O_1  and  C_10
REMARK    2  A    between atoms: O_4  and  C_35
REMARK    3  A    between atoms: O_4  and  C_36
REMARK    4  A    between atoms: N_5  and  C_14
REMARK    5  A    between atoms: N_6  and  C_24
REMARK    6  A    between atoms: C_7  and  C_17
REMARK    7  A    between atoms: C_9  and  C_19
REMARK    8  A    between atoms: C_13  and  C_18
REMARK    9  A    between atoms: C_18  and  C_20
REMARK   10  A    between atoms: C_18  and  C_21
REMARK   11  A    between atoms: C_22  and  C_23
REMARK   12  A    between atoms: C_24  and  C_27
REMARK                            x       y       z     vdW  Elec       q    Type
REMARK                         _______ _______ _______ _____ _____    ______ ____
ROOT
ATOM      7  C   UNL     1      -7.688 -11.716  39.349  0.00  0.00    -0.027 C 
ATOM      8  C   UNL     1      -8.475 -10.445  38.889  0.00  0.00    +0.028 C 
ATOM      9  C   UNL     1      -9.264 -10.726  37.559  0.00  0.00    +0.012 C 
ATOM     10  C   UNL     1      -7.556  -9.189  38.868  0.00  0.00    +0.122 C 
ATOM     11  C   UNL     1      -7.016 -11.442  40.715  0.00  0.00    +0.007 C 
ATOM     12  C   UNL     1      -8.682 -12.884  39.540  0.00  0.00    +0.009 C 
ATOM     13  C   UNL     1      -6.807  -8.978  40.203  0.00  0.00    +0.029 C 
ATOM     14  C   UNL     1     -10.206 -11.950  37.741  0.00  0.00    +0.076 C 
ATOM     15  C   UNL     1      -6.085 -10.236  40.687  0.00  0.00    +0.007 C 
ATOM     16  C   UNL     1      -9.496 -13.187  38.290  0.00  0.00    +0.023 C 
ATOM     17  C   UNL     1      -6.595 -12.138  38.334  0.00  0.00    +0.011 C 
ATOM     19  C   UNL     1     -10.086  -9.524  37.065  0.00  0.00    +0.010 C 
ENDROOT
BRANCH  14   5
ATOM      3  O   UNL     1     -13.028 -11.889  37.215  0.00  0.00    -0.270 OA
ATOM      5  N   UNL     1     -10.863 -12.309  36.502  0.00  0.00    -0.308 N 
ATOM     22  C   UNL     1     -12.237 -12.246  36.347  0.00  0.00    +0.244 C 
ATOM     37  H   UNL     1     -10.283 -12.723  35.780  0.00  0.00    +0.149 HD
BRANCH  22  23
ATOM     23  C   UNL     1     -12.757 -12.674  35.023  0.00  0.00    +0.037 A 
ATOM     25  C   UNL     1     -12.184 -13.764  34.368  0.00  0.00    +0.013 A 
ATOM     26  C   UNL     1     -13.818 -11.987  34.434  0.00  0.00    +0.013 A 
ATOM     28  C   UNL     1     -12.673 -14.167  33.125  0.00  0.00    +0.001 A 
ATOM     29  C   UNL     1     -14.307 -12.389  33.192  0.00  0.00    +0.001 A 
ATOM     30  C   UNL     1     -13.734 -13.480  32.537  0.00  0.00    +0.000 A 
ENDBRANCH  22  23
ENDBRANCH  14   5
BRANCH  10   1
ATOM      1  O   UNL     1      -8.351  -8.021  38.656  0.00  0.00    -0.391 OA
ATOM     38  H   UNL     1      -7.910  -7.472  37.986  0.00  0.00    +0.210 HD
ENDBRANCH  10   1
BRANCH  13  18
ATOM     18  C   UNL     1      -5.811  -7.816  40.120  0.00  0.00    +0.077 C 
ATOM     20  C   UNL     1      -4.416  -8.291  40.509  0.00  0.00    +0.017 C 
BRANCH  18  21
ATOM      2  O   UNL     1      -5.508  -5.812  41.446  0.00  0.00    -0.276 OA
ATOM      6  N   UNL     1      -7.638  -6.711  41.266  0.00  0.00    -0.311 N 
ATOM     21  C   UNL     1      -6.275  -6.668  41.012  0.00  0.00    +0.216 C 
ATOM     39  H   UNL     1      -8.214  -7.421  40.825  0.00  0.00    +0.149 HD
BRANCH   6  24
ATOM     24  C   UNL     1      -8.311  -5.731  42.087  0.00  0.00    +0.139 C 
BRANCH  24  27
ATOM     27  C   UNL     1      -8.872  -4.603  41.271  0.00  0.00    -0.030 A 
ATOM     31  C   UNL     1      -8.751  -3.288  41.721  0.00  0.00    +0.009 A 
ATOM     32  C   UNL     1      -9.513  -4.870  40.060  0.00  0.00    +0.009 A 
ATOM     33  C   UNL     1      -9.270  -2.241  40.961  0.00  0.00    +0.046 A 
ATOM     34  C   UNL     1     -10.032  -3.822  39.300  0.00  0.00    +0.046 A 
ATOM     35  C   UNL     1      -9.911  -2.507  39.751  0.00  0.00    +0.120 A 
BRANCH  35   4
ATOM      4  O   UNL     1     -10.416  -1.484  39.009  0.00  0.00    -0.495 OA
ATOM     36  C   UNL     1      -9.501  -0.778  38.171  0.00  0.00    +0.277 C 
ENDBRANCH  35   4
ENDBRANCH  24  27
ENDBRANCH   6  24
ENDBRANCH  18  21
ENDBRANCH  13  18
TORSDOF 8
ENDMDL
MODEL 9
REMARK VINA RESULT:      -6.6     23.281     27.221
REMARK  Name = 45361402
REMARK  12 active torsions:
REMARK  status: ('A' for Active; 'I' for Inactive)
REMARK    1  A    between atoms: O_1  and  C_10
REMARK    2  A    between atoms: O_4  and  C_35
REMARK    3  A    between atoms: O_4  and  C_36
REMARK    4  A    between atoms: N_5  and  C_14
REMARK    5  A    between atoms: N_6  and  C_24
REMARK    6  A    between atoms: C_7  and  C_17
REMARK    7  A    between atoms: C_9  and  C_19
REMARK    8  A    between atoms: C_13  and  C_18
REMARK    9  A    between atoms: C_18  and  C_20
REMARK   10  A    between atoms: C_18  and  C_21
REMARK   11  A    between atoms: C_22  and  C_23
REMARK   12  A    between atoms: C_24  and  C_27
REMARK                            x       y       z     vdW  Elec       q    Type
REMARK                         _______ _______ _______ _____ _____    ______ ____
ROOT
ATOM      7  C   UNL     1      13.396   6.957   1.442  0.00  0.00    -0.027 C 
ATOM      8  C   UNL     1      12.410   5.756   1.265  0.00  0.00    +0.028 C 
ATOM      9  C   UNL     1      11.937   5.210   2.661  0.00  0.00    +0.012 C 
ATOM     10  C   UNL     1      12.988   4.690   0.291  0.00  0.00    +0.122 C 
ATOM     11  C   UNL     1      13.752   7.542   0.054  0.00  0.00    +0.007 C 
ATOM     12  C   UNL     1      12.696   8.070   2.256  0.00  0.00    +0.009 C 
ATOM     13  C   UNL     1      13.438   5.298  -1.058  0.00  0.00    +0.029 C 
ATOM     14  C   UNL     1      11.303   6.354   3.500  0.00  0.00    +0.076 C 
ATOM     15  C   UNL     1      14.355   6.510  -0.889  0.00  0.00    +0.007 C 
ATOM     16  C   UNL     1      12.193   7.592   3.611  0.00  0.00    +0.023 C 
ATOM     17  C   UNL     1      14.708   6.548   2.159  0.00  0.00    +0.011 C 
ATOM     19  C   UNL     1      10.940   4.043   2.560  0.00  0.00    +0.010 C 
ENDROOT
BRANCH  14   5
ATOM      3  O   UNL     1       9.032   7.178   5.051  0.00  0.00    -0.270 OA
ATOM      5  N   UNL     1      10.962   5.913   4.837  0.00  0.00    -0.308 N 
ATOM     22  C   UNL     1       9.839   6.372   5.503  0.00  0.00    +0.244 C 
ATOM     37  H   UNL     1      11.645   5.337   5.316  0.00  0.00    +0.149 HD
BRANCH  22  23
ATOM     23  C   UNL     1       9.644   5.843   6.878  0.00  0.00    +0.037 A 
ATOM     25  C   UNL     1       9.181   6.685   7.890  0.00  0.00    +0.013 A 
ATOM     26  C   UNL     1       9.923   4.506   7.157  0.00  0.00    +0.013 A 
ATOM     28  C   UNL     1       8.997   6.188   9.180  0.00  0.00    +0.001 A 
ATOM     29  C   UNL     1       9.739   4.009   8.447  0.00  0.00    +0.001 A 
ATOM     30  C   UNL     1       9.276   4.850   9.459  0.00  0.00    +0.000 A 
ENDBRANCH  22  23
ENDBRANCH  14   5
BRANCH  10   1
ATOM      1  O   UNL     1      11.979   3.725  -0.013  0.00  0.00    -0.391 OA
ATOM     38  H   UNL     1      12.306   3.162  -0.735  0.00  0.00    +0.210 HD
ENDBRANCH  10   1
BRANCH  13  18
ATOM     18  C   UNL     1      14.123   4.257  -1.951  0.00  0.00    +0.077 C 
ATOM     20  C   UNL     1      15.532   4.716  -2.306  0.00  0.00    +0.017 C 
BRANCH  18  21
ATOM      2  O   UNL     1      13.642   4.382  -4.321  0.00  0.00    -0.276 OA
ATOM      6  N   UNL     1      12.101   3.348  -2.930  0.00  0.00    -0.311 N 
ATOM     21  C   UNL     1      13.286   4.015  -3.204  0.00  0.00    +0.216 C 
ATOM     39  H   UNL     1      11.904   3.031  -1.987  0.00  0.00    +0.149 HD
BRANCH   6  24
ATOM     24  C   UNL     1      11.141   3.008  -3.955  0.00  0.00    +0.139 C 
BRANCH  24  27
ATOM     27  C   UNL     1       9.988   3.969  -3.986  0.00  0.00    -0.030 A 
ATOM     31  C   UNL     1       9.270   4.160  -5.167  0.00  0.00    +0.009 A 
ATOM     32  C   UNL     1       9.634   4.670  -2.833  0.00  0.00    +0.009 A 
ATOM     33  C   UNL     1       8.199   5.051  -5.194  0.00  0.00    +0.046 A 
ATOM     34  C   UNL     1       8.562   5.561  -2.861  0.00  0.00    +0.046 A 
ATOM     35  C   UNL     1       7.843   5.752  -4.042  0.00  0.00    +0.120 A 
BRANCH  35   4
ATOM      4  O   UNL     1       6.796   6.621  -4.069  0.00  0.00    -0.495 OA
ATOM     36  C   UNL     1       6.925   7.816  -3.300  0.00  0.00    +0.277 C 
ENDBRANCH  35   4
ENDBRANCH  24  27
ENDBRANCH   6  24
ENDBRANCH  18  21
ENDBRANCH  13  18
TORSDOF 8
ENDMDL
MODEL 10
REMARK VINA RESULT:      -6.6      4.883      9.163
REMARK  Name = 45361402
REMARK  12 active torsions:
REMARK  status: ('A' for Active; 'I' for Inactive)
REMARK    1  A    between atoms: O_1  and  C_10
REMARK    2  A    between atoms: O_4  and  C_35
REMARK    3  A    between atoms: O_4  and  C_36
REMARK    4  A    between atoms: N_5  and  C_14
REMARK    5  A    between atoms: N_6  and  C_24
REMARK    6  A    between atoms: C_7  and  C_17
REMARK    7  A    between atoms: C_9  and  C_19
REMARK    8  A    between atoms: C_13  and  C_18
REMARK    9  A    between atoms: C_18  and  C_20
REMARK   10  A    between atoms: C_18  and  C_21
REMARK   11  A    between atoms: C_22  and  C_23
REMARK   12  A    between atoms: C_24  and  C_27
REMARK                            x       y       z     vdW  Elec       q    Type
REMARK                         _______ _______ _______ _____ _____    ______ ____
ROOT
ATOM      7  C   UNL     1      -5.664 -11.383   7.955  0.00  0.00    -0.027 C 
ATOM      8  C   UNL     1      -5.603  -9.898   8.442  0.00  0.00    +0.028 C 
ATOM      9  C   UNL     1      -5.335  -9.827   9.989  0.00  0.00    +0.012 C 
ATOM     10  C   UNL     1      -6.834  -9.088   7.939  0.00  0.00    +0.122 C 
ATOM     11  C   UNL     1      -5.816 -11.416   6.415  0.00  0.00    +0.007 C 
ATOM     12  C   UNL     1      -4.334 -12.086   8.311  0.00  0.00    +0.009 C 
ATOM     13  C   UNL     1      -7.041  -9.209   6.412  0.00  0.00    +0.029 C 
ATOM     14  C   UNL     1      -4.035 -10.601  10.346  0.00  0.00    +0.076 C 
ATOM     15  C   UNL     1      -7.041 -10.657   5.922  0.00  0.00    +0.007 C 
ATOM     16  C   UNL     1      -4.007 -12.028   9.797  0.00  0.00    +0.023 C 
ATOM     17  C   UNL     1      -6.842 -12.168   8.586  0.00  0.00    +0.011 C 
ATOM     19  C   UNL     1      -5.234  -8.392  10.531  0.00  0.00    +0.010 C 
ENDROOT
BRANCH  14   5
ATOM      3  O   UNL     1      -1.574 -10.079  11.729  0.00  0.00    -0.270 OA
ATOM      5  N   UNL     1      -3.819 -10.656  11.776  0.00  0.00    -0.308 N 
ATOM     22  C   UNL     1      -2.588 -10.386  12.350  0.00  0.00    +0.244 C 
ATOM     37  H   UNL     1      -4.582 -11.015  12.340  0.00  0.00    +0.149 HD
BRANCH  22  23
ATOM     23  C   UNL     1      -2.525 -10.511  13.828  0.00  0.00    +0.037 A 
ATOM     25  C   UNL     1      -1.338 -10.221  14.503  0.00  0.00    +0.013 A 
ATOM     26  C   UNL     1      -3.651 -10.916  14.544  0.00  0.00    +0.013 A 
ATOM     28  C   UNL     1      -1.279 -10.337  15.891  0.00  0.00    +0.001 A 
ATOM     29  C   UNL     1      -3.592 -11.032  15.932  0.00  0.00    +0.001 A 
ATOM     30  C   UNL     1      -2.405 -10.742  16.607  0.00  0.00    +0.000 A 
ENDBRANCH  22  23
ENDBRANCH  14   5
BRANCH  10   1
ATOM      1  O   UNL     1      -6.637  -7.701   8.216  0.00  0.00    -0.391 OA
ATOM     38  H   UNL     1      -7.439  -7.222   7.948  0.00  0.00    +0.210 HD
ENDBRANCH  10   1
BRANCH  13  18
ATOM     18  C   UNL     1      -8.329  -8.513   5.956  0.00  0.00    +0.077 C 
ATOM     20  C   UNL     1      -9.512  -9.006   6.781  0.00  0.00    +0.017 C 
BRANCH  18  21
ATOM      2  O   UNL     1      -9.349  -9.589   4.041  0.00  0.00    -0.276 OA
ATOM      6  N   UNL     1      -7.760  -7.941   3.671  0.00  0.00    -0.311 N 
ATOM     21  C   UNL     1      -8.552  -8.756   4.466  0.00  0.00    +0.216 C 
ATOM     39  H   UNL     1      -7.164  -7.240   4.098  0.00  0.00    +0.149 HD
BRANCH   6  24
ATOM     24  C   UNL     1      -7.792  -7.989   2.227  0.00  0.00    +0.139 C 
BRANCH  24  27
ATOM     27  C   UNL     1      -9.028  -7.345   1.671  0.00  0.00    -0.030 A 
ATOM     31  C   UNL     1      -9.726  -7.957   0.629  0.00  0.00    +0.009 A 
ATOM     32  C   UNL     1      -9.480  -6.134   2.197  0.00  0.00    +0.009 A 
ATOM     33  C   UNL     1     -10.875  -7.358   0.114  0.00  0.00    +0.046 A 
ATOM     34  C   UNL     1     -10.631  -5.536   1.682  0.00  0.00    +0.046 A 
ATOM     35  C   UNL     1     -11.328  -6.148   0.641  0.00  0.00    +0.120 A 
BRANCH  35   4
ATOM      4  O   UNL     1     -12.452  -5.566   0.139  0.00  0.00    -0.495 OA
ATOM     36  C   UNL     1     -12.725  -5.771  -1.247  0.00  0.00    +0.277 C 
ENDBRANCH  35   4
ENDBRANCH  24  27
ENDBRANCH   6  24
ENDBRANCH  18  21
ENDBRANCH  13  18
TORSDOF 8
ENDMDL
