MODEL 1
REMARK VINA RESULT:      -6.4      0.000      0.000
REMARK  Name = 75536650
REMARK  7 active torsions:
REMARK  status: ('A' for Active; 'I' for Inactive)
REMARK    1  A    between atoms: O_4  and  C_9
REMARK    2  A    between atoms: N_6  and  C_8
REMARK    3  A    between atoms: N_6  and  C_13
REMARK    4  A    between atoms: N_7  and  C_12
REMARK    5  A    between atoms: C_10  and  C_12
REMARK    6  A    between atoms: C_13  and  C_14
REMARK    7  A    between atoms: C_15  and  C_17
REMARK                            x       y       z     vdW  Elec       q    Type
REMARK                         _______ _______ _______ _____ _____    ______ ____
ROOT
ATOM      3  O   UNL     1      15.933   6.168  19.009  0.00  0.00    -0.371 OA
ATOM      8  C   UNL     1      17.018   6.410  21.107  0.00  0.00    +0.111 C 
ATOM      9  C   UNL     1      15.745   7.237  21.110  0.00  0.00    +0.164 C 
ATOM     10  C   UNL     1      14.962   6.571  19.988  0.00  0.00    +0.165 C 
ATOM     11  C   UNL     1      17.235   6.197  19.619  0.00  0.00    +0.181 C 
ENDROOT
BRANCH   9   4
ATOM      4  O   UNL     1      15.057   7.175  22.343  0.00  0.00    -0.388 OA
ATOM     26  H   UNL     1      14.248   7.710  22.270  0.00  0.00    +0.210 HD
ENDBRANCH   9   4
BRANCH   8   6
ATOM      6  N   UNL     1      18.142   7.068  21.754  0.00  0.00    -0.304 NA
ATOM     25  H   UNL     1      18.366   6.568  22.616  0.00  0.00    +0.123 HD
BRANCH   6  13
ATOM     13  C   UNL     1      19.316   7.074  20.890  0.00  0.00    +0.124 C 
BRANCH  13  14
ATOM      1  S   UNL     1      21.146   6.102  22.746  0.00  0.00    -0.100 S 
ATOM     14  C   UNL     1      20.294   5.992  21.264  0.00  0.00    +0.004 A 
ATOM     16  C   UNL     1      20.630   4.859  20.557  0.00  0.00    +0.012 A 
ATOM     18  C   UNL     1      21.600   4.070  21.240  0.00  0.00    +0.008 A 
ATOM     19  C   UNL     1      21.968   4.631  22.444  0.00  0.00    +0.045 A 
ENDBRANCH  13  14
ENDBRANCH   6  13
ENDBRANCH   8   6
BRANCH  10  12
ATOM     12  C   UNL     1      13.935   7.487  19.346  0.00  0.00    +0.138 C 
BRANCH  12   7
ATOM      5  O   UNL     1      12.825  10.107  18.964  0.00  0.00    -0.270 OA
ATOM      7  N   UNL     1      13.256   8.280  20.328  0.00  0.00    -0.309 N 
ATOM     15  C   UNL     1      12.748   9.546  20.054  0.00  0.00    +0.244 C 
ATOM     27  H   UNL     1      13.220   7.905  21.270  0.00  0.00    +0.149 HD
BRANCH  15  17
ATOM      2  F   UNL     1      10.275  12.207  24.336  0.00  0.00    -0.205 F 
ATOM     17  C   UNL     1      12.094  10.251  21.187  0.00  0.00    +0.037 A 
ATOM     20  C   UNL     1      11.961  11.639  21.163  0.00  0.00    +0.016 A 
ATOM     21  C   UNL     1      11.611   9.523  22.275  0.00  0.00    +0.016 A 
ATOM     22  C   UNL     1      11.347  12.301  22.225  0.00  0.00    +0.039 A 
ATOM     23  C   UNL     1      10.997  10.185  23.339  0.00  0.00    +0.039 A 
ATOM     24  C   UNL     1      10.865  11.573  23.314  0.00  0.00    +0.123 A 
ENDBRANCH  15  17
ENDBRANCH  12   7
ENDBRANCH  10  12
TORSDOF 7
ENDMDL
MODEL 2
REMARK VINA RESULT:      -6.3     27.558     29.481
REMARK  Name = 75536650
REMARK  7 active torsions:
REMARK  status: ('A' for Active; 'I' for Inactive)
REMARK    1  A    between atoms: O_4  and  C_9
REMARK    2  A    between atoms: N_6  and  C_8
REMARK    3  A    between atoms: N_6  and  C_13
REMARK    4  A    between atoms: N_7  and  C_12
REMARK    5  A    between atoms: C_10  and  C_12
REMARK    6  A    between atoms: C_13  and  C_14
REMARK    7  A    between atoms: C_15  and  C_17
REMARK                            x       y       z     vdW  Elec       q    Type
REMARK                         _______ _______ _______ _____ _____    ______ ____
ROOT
ATOM      3  O   UNL     1      -4.061 -11.736  18.551  0.00  0.00    -0.371 OA
ATOM      8  C   UNL     1      -6.323 -11.055  18.308  0.00  0.00    +0.111 C 
ATOM      9  C   UNL     1      -5.512 -10.502  17.149  0.00  0.00    +0.164 C 
ATOM     10  C   UNL     1      -4.305 -11.430  17.168  0.00  0.00    +0.165 C 
ATOM     11  C   UNL     1      -5.229 -11.382  19.310  0.00  0.00    +0.181 C 
ENDROOT
BRANCH   9   4
ATOM      4  O   UNL     1      -6.206 -10.565  15.919  0.00  0.00    -0.388 OA
ATOM     26  H   UNL     1      -7.004 -10.015  15.989  0.00  0.00    +0.210 HD
ENDBRANCH   9   4
BRANCH   8   6
ATOM      6  N   UNL     1      -7.308 -10.121  18.829  0.00  0.00    -0.304 NA
ATOM     25  H   UNL     1      -7.133  -9.198  18.428  0.00  0.00    +0.123 HD
BRANCH   6  13
ATOM     13  C   UNL     1      -8.661 -10.539  18.486  0.00  0.00    +0.124 C 
BRANCH  13  14
ATOM      1  S   UNL     1     -11.122  -9.342  17.988  0.00  0.00    -0.100 S 
ATOM     14  C   UNL     1      -9.425  -9.448  17.784  0.00  0.00    +0.004 A 
ATOM     16  C   UNL     1      -8.942  -8.462  16.953  0.00  0.00    +0.012 A 
ATOM     18  C   UNL     1      -9.978  -7.608  16.477  0.00  0.00    +0.008 A 
ATOM     19  C   UNL     1     -11.214  -7.974  16.963  0.00  0.00    +0.045 A 
ENDBRANCH  13  14
ENDBRANCH   6  13
ENDBRANCH   8   6
BRANCH  10  12
ATOM     12  C   UNL     1      -3.063 -10.811  16.552  0.00  0.00    +0.138 C 
BRANCH  12   7
ATOM      5  O   UNL     1      -1.731 -11.792  14.205  0.00  0.00    -0.270 OA
ATOM      7  N   UNL     1      -3.300 -10.401  15.198  0.00  0.00    -0.309 N 
ATOM     15  C   UNL     1      -2.604 -10.933  14.117  0.00  0.00    +0.244 C 
ATOM     27  H   UNL     1      -3.960  -9.643  15.062  0.00  0.00    +0.149 HD
BRANCH  15  17
ATOM      2  F   UNL     1      -3.908  -8.861   9.064  0.00  0.00    -0.205 F 
ATOM     17  C   UNL     1      -2.949 -10.385  12.780  0.00  0.00    +0.037 A 
ATOM     20  C   UNL     1      -1.936 -10.009  11.897  0.00  0.00    +0.016 A 
ATOM     21  C   UNL     1      -4.286 -10.246  12.407  0.00  0.00    +0.016 A 
ATOM     22  C   UNL     1      -2.259  -9.495  10.642  0.00  0.00    +0.039 A 
ATOM     23  C   UNL     1      -4.609  -9.731  11.151  0.00  0.00    +0.039 A 
ATOM     24  C   UNL     1      -3.596  -9.355  10.269  0.00  0.00    +0.123 A 
ENDBRANCH  15  17
ENDBRANCH  12   7
ENDBRANCH  10  12
TORSDOF 7
ENDMDL
MODEL 3
REMARK VINA RESULT:      -6.2     29.165     31.585
REMARK  Name = 75536650
REMARK  7 active torsions:
REMARK  status: ('A' for Active; 'I' for Inactive)
REMARK    1  A    between atoms: O_4  and  C_9
REMARK    2  A    between atoms: N_6  and  C_8
REMARK    3  A    between atoms: N_6  and  C_13
REMARK    4  A    between atoms: N_7  and  C_12
REMARK    5  A    between atoms: C_10  and  C_12
REMARK    6  A    between atoms: C_13  and  C_14
REMARK    7  A    between atoms: C_15  and  C_17
REMARK                            x       y       z     vdW  Elec       q    Type
REMARK                         _______ _______ _______ _____ _____    ______ ____
ROOT
ATOM      3  O   UNL     1     -17.578   1.876  25.258  0.00  0.00    -0.371 OA
ATOM      8  C   UNL     1     -16.496   3.278  26.839  0.00  0.00    +0.111 C 
ATOM      9  C   UNL     1     -16.117   3.727  25.439  0.00  0.00    +0.164 C 
ATOM     10  C   UNL     1     -17.250   3.122  24.622  0.00  0.00    +0.165 C 
ATOM     11  C   UNL     1     -17.005   1.871  26.577  0.00  0.00    +0.181 C 
ENDROOT
BRANCH   9   4
ATOM      4  O   UNL     1     -16.067   5.134  25.312  0.00  0.00    -0.388 OA
ATOM     26  H   UNL     1     -15.763   5.507  26.156  0.00  0.00    +0.210 HD
ENDBRANCH   9   4
BRANCH   8   6
ATOM      6  N   UNL     1     -15.389   3.313  27.782  0.00  0.00    -0.304 NA
ATOM     25  H   UNL     1     -15.333   4.246  28.192  0.00  0.00    +0.123 HD
BRANCH   6  13
ATOM     13  C   UNL     1     -15.577   2.337  28.849  0.00  0.00    +0.124 C 
BRANCH  13  14
ATOM      1  S   UNL     1     -13.825   1.575  30.871  0.00  0.00    -0.100 S 
ATOM     14  C   UNL     1     -14.835   2.724  30.101  0.00  0.00    +0.004 A 
ATOM     16  C   UNL     1     -14.844   3.932  30.763  0.00  0.00    +0.012 A 
ATOM     18  C   UNL     1     -14.010   3.914  31.918  0.00  0.00    +0.008 A 
ATOM     19  C   UNL     1     -13.397   2.693  32.095  0.00  0.00    +0.045 A 
ENDBRANCH  13  14
ENDBRANCH   6  13
ENDBRANCH   8   6
BRANCH  10  12
ATOM     12  C   UNL     1     -16.879   2.876  23.170  0.00  0.00    +0.138 C 
BRANCH  12   7
ATOM      5  O   UNL     1     -17.034   5.261  21.580  0.00  0.00    -0.270 OA
ATOM      7  N   UNL     1     -15.783   3.706  22.764  0.00  0.00    -0.309 N 
ATOM     15  C   UNL     1     -15.951   4.850  21.989  0.00  0.00    +0.244 C 
ATOM     27  H   UNL     1     -14.853   3.384  23.009  0.00  0.00    +0.149 HD
BRANCH  15  17
ATOM      2  F   UNL     1     -11.273   7.640  20.626  0.00  0.00    -0.205 F 
ATOM     17  C   UNL     1     -14.713   5.588  21.629  0.00  0.00    +0.037 A 
ATOM     20  C   UNL     1     -13.471   5.122  22.062  0.00  0.00    +0.016 A 
ATOM     21  C   UNL     1     -14.792   6.747  20.857  0.00  0.00    +0.016 A 
ATOM     22  C   UNL     1     -12.309   5.814  21.724  0.00  0.00    +0.039 A 
ATOM     23  C   UNL     1     -13.629   7.440  20.519  0.00  0.00    +0.039 A 
ATOM     24  C   UNL     1     -12.388   6.974  20.952  0.00  0.00    +0.123 A 
ENDBRANCH  15  17
ENDBRANCH  12   7
ENDBRANCH  10  12
TORSDOF 7
ENDMDL
MODEL 4
REMARK VINA RESULT:      -6.2      2.439      3.649
REMARK  Name = 75536650
REMARK  7 active torsions:
REMARK  status: ('A' for Active; 'I' for Inactive)
REMARK    1  A    between atoms: O_4  and  C_9
REMARK    2  A    between atoms: N_6  and  C_8
REMARK    3  A    between atoms: N_6  and  C_13
REMARK    4  A    between atoms: N_7  and  C_12
REMARK    5  A    between atoms: C_10  and  C_12
REMARK    6  A    between atoms: C_13  and  C_14
REMARK    7  A    between atoms: C_15  and  C_17
REMARK                            x       y       z     vdW  Elec       q    Type
REMARK                         _______ _______ _______ _____ _____    ______ ____
ROOT
ATOM      3  O   UNL     1      13.057   9.885  19.217  0.00  0.00    -0.371 OA
ATOM      8  C   UNL     1      14.137   8.141  18.020  0.00  0.00    +0.111 C 
ATOM      9  C   UNL     1      12.823   7.621  18.574  0.00  0.00    +0.164 C 
ATOM     10  C   UNL     1      12.070   8.922  18.811  0.00  0.00    +0.165 C 
ATOM     11  C   UNL     1      14.358   9.375  18.879  0.00  0.00    +0.181 C 
ENDROOT
BRANCH   9   4
ATOM      4  O   UNL     1      12.144   6.776  17.666  0.00  0.00    -0.388 OA
ATOM     26  H   UNL     1      11.635   6.124  18.176  0.00  0.00    +0.210 HD
ENDBRANCH   9   4
BRANCH   8   6
ATOM      6  N   UNL     1      15.228   7.184  18.111  0.00  0.00    -0.304 NA
ATOM     25  H   UNL     1      16.101   7.653  17.865  0.00  0.00    +0.123 HD
BRANCH   6  13
ATOM     13  C   UNL     1      15.343   6.646  19.461  0.00  0.00    +0.124 C 
BRANCH  13  14
ATOM      1  S   UNL     1      17.156   7.895  21.162  0.00  0.00    -0.100 S 
ATOM     14  C   UNL     1      16.755   6.723  19.978  0.00  0.00    +0.004 A 
ATOM     16  C   UNL     1      17.840   5.952  19.626  0.00  0.00    +0.012 A 
ATOM     18  C   UNL     1      19.017   6.327  20.337  0.00  0.00    +0.008 A 
ATOM     19  C   UNL     1      18.786   7.371  21.205  0.00  0.00    +0.045 A 
ENDBRANCH  13  14
ENDBRANCH   6  13
ENDBRANCH   8   6
BRANCH  10  12
ATOM     12  C   UNL     1      10.995   8.809  19.878  0.00  0.00    +0.138 C 
BRANCH  12   7
ATOM      5  O   UNL     1      12.399   8.303  22.330  0.00  0.00    -0.270 OA
ATOM      7  N   UNL     1      11.217   9.741  20.944  0.00  0.00    -0.309 N 
ATOM     15  C   UNL     1      11.912   9.407  22.103  0.00  0.00    +0.244 C 
ATOM     27  H   UNL     1      10.780  10.651  20.851  0.00  0.00    +0.149 HD
BRANCH  15  17
ATOM      2  F   UNL     1      12.372  13.452  25.971  0.00  0.00    -0.205 F 
ATOM     17  C   UNL     1      12.034  10.477  23.126  0.00  0.00    +0.037 A 
ATOM     20  C   UNL     1      13.221  11.201  23.242  0.00  0.00    +0.016 A 
ATOM     21  C   UNL     1      10.961  10.759  23.973  0.00  0.00    +0.016 A 
ATOM     22  C   UNL     1      13.336  12.206  24.202  0.00  0.00    +0.039 A 
ATOM     23  C   UNL     1      11.076  11.764  24.934  0.00  0.00    +0.039 A 
ATOM     24  C   UNL     1      12.263  12.487  25.048  0.00  0.00    +0.123 A 
ENDBRANCH  15  17
ENDBRANCH  12   7
ENDBRANCH  10  12
TORSDOF 7
ENDMDL
MODEL 5
REMARK VINA RESULT:      -6.1      5.514     10.391
REMARK  Name = 75536650
REMARK  7 active torsions:
REMARK  status: ('A' for Active; 'I' for Inactive)
REMARK    1  A    between atoms: O_4  and  C_9
REMARK    2  A    between atoms: N_6  and  C_8
REMARK    3  A    between atoms: N_6  and  C_13
REMARK    4  A    between atoms: N_7  and  C_12
REMARK    5  A    between atoms: C_10  and  C_12
REMARK    6  A    between atoms: C_13  and  C_14
REMARK    7  A    between atoms: C_15  and  C_17
REMARK                            x       y       z     vdW  Elec       q    Type
REMARK                         _______ _______ _______ _____ _____    ______ ____
ROOT
ATOM      3  O   UNL     1      18.433   7.301  21.780  0.00  0.00    -0.371 OA
ATOM      8  C   UNL     1      16.888   6.478  20.176  0.00  0.00    +0.111 C 
ATOM      9  C   UNL     1      18.298   6.163  19.711  0.00  0.00    +0.164 C 
ATOM     10  C   UNL     1      19.065   6.256  21.023  0.00  0.00    +0.165 C 
ATOM     11  C   UNL     1      17.146   7.571  21.200  0.00  0.00    +0.181 C 
ENDROOT
BRANCH   9   4
ATOM      4  O   UNL     1      18.406   4.880  19.127  0.00  0.00    -0.388 OA
ATOM     26  H   UNL     1      17.752   4.814  18.411  0.00  0.00    +0.210 HD
ENDBRANCH   9   4
BRANCH   8   6
ATOM      6  N   UNL     1      16.002   6.904  19.104  0.00  0.00    -0.304 NA
ATOM     25  H   UNL     1      15.252   6.220  19.003  0.00  0.00    +0.123 HD
BRANCH   6  13
ATOM     13  C   UNL     1      15.419   8.209  19.392  0.00  0.00    +0.124 C 
BRANCH  13  14
ATOM      1  S   UNL     1      12.809   7.405  18.862  0.00  0.00    -0.100 S 
ATOM     14  C   UNL     1      14.151   8.441  18.614  0.00  0.00    +0.004 A 
ATOM     16  C   UNL     1      13.886   9.415  17.677  0.00  0.00    +0.012 A 
ATOM     18  C   UNL     1      12.564   9.310  17.155  0.00  0.00    +0.008 A 
ATOM     19  C   UNL     1      11.869   8.260  17.714  0.00  0.00    +0.045 A 
ENDBRANCH  13  14
ENDBRANCH   6  13
ENDBRANCH   8   6
BRANCH  10  12
ATOM     12  C   UNL     1      20.538   6.577  20.835  0.00  0.00    +0.138 C 
BRANCH  12   7
ATOM      5  O   UNL     1      21.408   5.251  23.229  0.00  0.00    -0.270 OA
ATOM      7  N   UNL     1      21.344   5.393  20.914  0.00  0.00    -0.309 N 
ATOM     15  C   UNL     1      21.720   4.817  22.123  0.00  0.00    +0.244 C 
ATOM     27  H   UNL     1      21.695   5.024  20.037  0.00  0.00    +0.149 HD
BRANCH  15  17
ATOM      2  F   UNL     1      24.965   0.246  21.794  0.00  0.00    -0.205 F 
ATOM     17  C   UNL     1      22.578   3.608  22.035  0.00  0.00    +0.037 A 
ATOM     20  C   UNL     1      23.144   3.239  20.815  0.00  0.00    +0.016 A 
ATOM     21  C   UNL     1      22.819   2.839  23.175  0.00  0.00    +0.016 A 
ATOM     22  C   UNL     1      23.950   2.105  20.732  0.00  0.00    +0.039 A 
ATOM     23  C   UNL     1      23.626   1.704  23.093  0.00  0.00    +0.039 A 
ATOM     24  C   UNL     1      24.191   1.336  21.872  0.00  0.00    +0.123 A 
ENDBRANCH  15  17
ENDBRANCH  12   7
ENDBRANCH  10  12
TORSDOF 7
ENDMDL
MODEL 6
REMARK VINA RESULT:      -6.0     16.875     18.722
REMARK  Name = 75536650
REMARK  7 active torsions:
REMARK  status: ('A' for Active; 'I' for Inactive)
REMARK    1  A    between atoms: O_4  and  C_9
REMARK    2  A    between atoms: N_6  and  C_8
REMARK    3  A    between atoms: N_6  and  C_13
REMARK    4  A    between atoms: N_7  and  C_12
REMARK    5  A    between atoms: C_10  and  C_12
REMARK    6  A    between atoms: C_13  and  C_14
REMARK    7  A    between atoms: C_15  and  C_17
REMARK                            x       y       z     vdW  Elec       q    Type
REMARK                         _______ _______ _______ _____ _____    ______ ____
ROOT
ATOM      3  O   UNL     1      13.289   5.273   0.139  0.00  0.00    -0.371 OA
ATOM      8  C   UNL     1      15.238   5.825   1.378  0.00  0.00    +0.111 C 
ATOM      9  C   UNL     1      14.584   4.605   2.002  0.00  0.00    +0.164 C 
ATOM     10  C   UNL     1      13.738   4.102   0.841  0.00  0.00    +0.165 C 
ATOM     11  C   UNL     1      14.095   6.390   0.552  0.00  0.00    +0.181 C 
ENDROOT
BRANCH   9   4
ATOM      4  O   UNL     1      15.525   3.639   2.427  0.00  0.00    -0.388 OA
ATOM     26  H   UNL     1      15.452   2.864   1.844  0.00  0.00    +0.210 HD
ENDBRANCH   9   4
BRANCH   8   6
ATOM      6  N   UNL     1      15.754   6.772   2.353  0.00  0.00    -0.304 NA
ATOM     25  H   UNL     1      16.567   7.246   1.957  0.00  0.00    +0.123 HD
BRANCH   6  13
ATOM     13  C   UNL     1      14.748   7.768   2.702  0.00  0.00    +0.124 C 
BRANCH  13  14
ATOM      1  S   UNL     1      15.346   7.765   5.419  0.00  0.00    -0.100 S 
ATOM     14  C   UNL     1      14.251   7.593   4.113  0.00  0.00    +0.004 A 
ATOM     16  C   UNL     1      12.976   7.298   4.542  0.00  0.00    +0.012 A 
ATOM     18  C   UNL     1      12.896   7.212   5.962  0.00  0.00    +0.008 A 
ATOM     19  C   UNL     1      14.113   7.444   6.563  0.00  0.00    +0.045 A 
ENDBRANCH  13  14
ENDBRANCH   6  13
ENDBRANCH   8   6
BRANCH  10  12
ATOM     12  C   UNL     1      12.541   3.279   1.283  0.00  0.00    +0.138 C 
BRANCH  12   7
ATOM      5  O   UNL     1      10.120   4.822   1.231  0.00  0.00    -0.270 OA
ATOM      7  N   UNL     1      11.882   3.877   2.408  0.00  0.00    -0.309 N 
ATOM     15  C   UNL     1      10.706   4.612   2.289  0.00  0.00    +0.244 C 
ATOM     27  H   UNL     1      12.353   3.801   3.303  0.00  0.00    +0.149 HD
BRANCH  15  17
ATOM      2  F   UNL     1       8.651   6.795   7.036  0.00  0.00    -0.205 F 
ATOM     17  C   UNL     1      10.163   5.189   3.545  0.00  0.00    +0.037 A 
ATOM     20  C   UNL     1      10.292   4.492   4.747  0.00  0.00    +0.016 A 
ATOM     21  C   UNL     1       9.523   6.428   3.523  0.00  0.00    +0.016 A 
ATOM     22  C   UNL     1       9.782   5.034   5.926  0.00  0.00    +0.039 A 
ATOM     23  C   UNL     1       9.012   6.970   4.703  0.00  0.00    +0.039 A 
ATOM     24  C   UNL     1       9.142   6.274   5.904  0.00  0.00    +0.123 A 
ENDBRANCH  15  17
ENDBRANCH  12   7
ENDBRANCH  10  12
TORSDOF 7
ENDMDL
MODEL 7
REMARK VINA RESULT:      -6.0      3.495      5.429
REMARK  Name = 75536650
REMARK  7 active torsions:
REMARK  status: ('A' for Active; 'I' for Inactive)
REMARK    1  A    between atoms: O_4  and  C_9
REMARK    2  A    between atoms: N_6  and  C_8
REMARK    3  A    between atoms: N_6  and  C_13
REMARK    4  A    between atoms: N_7  and  C_12
REMARK    5  A    between atoms: C_10  and  C_12
REMARK    6  A    between atoms: C_13  and  C_14
REMARK    7  A    between atoms: C_15  and  C_17
REMARK                            x       y       z     vdW  Elec       q    Type
REMARK                         _______ _______ _______ _____ _____    ______ ____
ROOT
ATOM      3  O   UNL     1      22.052   7.365  21.944  0.00  0.00    -0.371 OA
ATOM      8  C   UNL     1      21.928   5.539  20.431  0.00  0.00    +0.111 C 
ATOM      9  C   UNL     1      20.525   5.908  20.877  0.00  0.00    +0.164 C 
ATOM     10  C   UNL     1      20.738   7.335  21.363  0.00  0.00    +0.165 C 
ATOM     11  C   UNL     1      22.770   6.197  21.511  0.00  0.00    +0.181 C 
ENDROOT
BRANCH   9   4
ATOM      4  O   UNL     1      19.583   5.844  19.825  0.00  0.00    -0.388 OA
ATOM     26  H   UNL     1      19.854   5.138  19.214  0.00  0.00    +0.210 HD
ENDBRANCH   9   4
BRANCH   8   6
ATOM      6  N   UNL     1      22.152   4.106  20.333  0.00  0.00    -0.304 NA
ATOM     25  H   UNL     1      23.094   3.941  19.977  0.00  0.00    +0.123 HD
BRANCH   6  13
ATOM     13  C   UNL     1      22.017   3.464  21.635  0.00  0.00    +0.124 C 
BRANCH  13  14
ATOM      1  S   UNL     1      23.585   2.138  23.512  0.00  0.00    -0.100 S 
ATOM     14  C   UNL     1      23.134   2.488  21.897  0.00  0.00    +0.004 A 
ATOM     16  C   UNL     1      23.895   1.791  20.985  0.00  0.00    +0.012 A 
ATOM     18  C   UNL     1      24.862   0.959  21.620  0.00  0.00    +0.008 A 
ATOM     19  C   UNL     1      24.803   1.052  22.993  0.00  0.00    +0.045 A 
ENDBRANCH  13  14
ENDBRANCH   6  13
ENDBRANCH   8   6
BRANCH  10  12
ATOM     12  C   UNL     1      19.712   7.780  22.390  0.00  0.00    +0.138 C 
BRANCH  12   7
ATOM      5  O   UNL     1      17.664   9.619  21.573  0.00  0.00    -0.270 OA
ATOM      7  N   UNL     1      18.380   7.449  21.974  0.00  0.00    -0.309 N 
ATOM     15  C   UNL     1      17.449   8.410  21.594  0.00  0.00    +0.244 C 
ATOM     27  H   UNL     1      18.114   6.472  22.036  0.00  0.00    +0.149 HD
BRANCH  15  17
ATOM      2  F   UNL     1      12.363   6.511  20.158  0.00  0.00    -0.205 F 
ATOM     17  C   UNL     1      16.103   7.908  21.214  0.00  0.00    +0.037 A 
ATOM     20  C   UNL     1      15.009   8.144  22.047  0.00  0.00    +0.016 A 
ATOM     21  C   UNL     1      15.933   7.199  20.025  0.00  0.00    +0.016 A 
ATOM     22  C   UNL     1      13.746   7.673  21.691  0.00  0.00    +0.039 A 
ATOM     23  C   UNL     1      14.669   6.727  19.669  0.00  0.00    +0.039 A 
ATOM     24  C   UNL     1      13.576   6.964  20.502  0.00  0.00    +0.123 A 
ENDBRANCH  15  17
ENDBRANCH  12   7
ENDBRANCH  10  12
TORSDOF 7
ENDMDL
MODEL 8
REMARK VINA RESULT:      -6.0     28.951     31.280
REMARK  Name = 75536650
REMARK  7 active torsions:
REMARK  status: ('A' for Active; 'I' for Inactive)
REMARK    1  A    between atoms: O_4  and  C_9
REMARK    2  A    between atoms: N_6  and  C_8
REMARK    3  A    between atoms: N_6  and  C_13
REMARK    4  A    between atoms: N_7  and  C_12
REMARK    5  A    between atoms: C_10  and  C_12
REMARK    6  A    between atoms: C_13  and  C_14
REMARK    7  A    between atoms: C_15  and  C_17
REMARK                            x       y       z     vdW  Elec       q    Type
REMARK                         _______ _______ _______ _____ _____    ______ ____
ROOT
ATOM      3  O   UNL     1     -11.511  -8.759  16.006  0.00  0.00    -0.371 OA
ATOM      8  C   UNL     1     -11.866  -6.719  14.846  0.00  0.00    +0.111 C 
ATOM      9  C   UNL     1     -10.774  -6.515  15.881  0.00  0.00    +0.164 C 
ATOM     10  C   UNL     1     -10.328  -7.951  16.120  0.00  0.00    +0.165 C 
ATOM     11  C   UNL     1     -12.533  -7.985  15.356  0.00  0.00    +0.181 C 
ENDROOT
BRANCH   9   4
ATOM      4  O   UNL     1      -9.716  -5.706  15.407  0.00  0.00    -0.388 OA
ATOM     26  H   UNL     1      -9.947  -4.776  15.567  0.00  0.00    +0.210 HD
ENDBRANCH   9   4
BRANCH   8   6
ATOM      6  N   UNL     1     -12.786  -5.597  14.741  0.00  0.00    -0.304 NA
ATOM     25  H   UNL     1     -12.249  -4.729  14.724  0.00  0.00    +0.123 HD
BRANCH   6  13
ATOM     13  C   UNL     1     -13.585  -5.685  13.525  0.00  0.00    +0.124 C 
BRANCH  13  14
ATOM      1  S   UNL     1     -12.472  -6.007  10.996  0.00  0.00    -0.100 S 
ATOM     14  C   UNL     1     -12.892  -5.047  12.350  0.00  0.00    +0.004 A 
ATOM     16  C   UNL     1     -12.520  -3.731  12.187  0.00  0.00    +0.012 A 
ATOM     18  C   UNL     1     -11.881  -3.507  10.932  0.00  0.00    +0.008 A 
ATOM     19  C   UNL     1     -11.790  -4.662  10.186  0.00  0.00    +0.045 A 
ENDBRANCH  13  14
ENDBRANCH   6  13
ENDBRANCH   8   6
BRANCH  10  12
ATOM     12  C   UNL     1      -9.690  -8.163  17.482  0.00  0.00    +0.138 C 
BRANCH  12   7
ATOM      5  O   UNL     1      -8.715 -10.709  18.380  0.00  0.00    -0.270 OA
ATOM      7  N   UNL     1      -8.350  -8.658  17.360  0.00  0.00    -0.309 N 
ATOM     15  C   UNL     1      -7.965  -9.911  17.826  0.00  0.00    +0.244 C 
ATOM     27  H   UNL     1      -7.663  -8.018  16.975  0.00  0.00    +0.149 HD
BRANCH  15  17
ATOM      2  F   UNL     1      -2.554 -11.254  17.154  0.00  0.00    -0.205 F 
ATOM     17  C   UNL     1      -6.533 -10.266  17.647  0.00  0.00    +0.037 A 
ATOM     20  C   UNL     1      -5.840  -9.827  16.519  0.00  0.00    +0.016 A 
ATOM     21  C   UNL     1      -5.882 -11.039  18.609  0.00  0.00    +0.016 A 
ATOM     22  C   UNL     1      -4.496 -10.160  16.352  0.00  0.00    +0.039 A 
ATOM     23  C   UNL     1      -4.537 -11.373  18.441  0.00  0.00    +0.039 A 
ATOM     24  C   UNL     1      -3.845 -10.933  17.313  0.00  0.00    +0.123 A 
ENDBRANCH  15  17
ENDBRANCH  12   7
ENDBRANCH  10  12
TORSDOF 7
ENDMDL
MODEL 9
REMARK VINA RESULT:      -6.0     27.480     29.007
REMARK  Name = 75536650
REMARK  7 active torsions:
REMARK  status: ('A' for Active; 'I' for Inactive)
REMARK    1  A    between atoms: O_4  and  C_9
REMARK    2  A    between atoms: N_6  and  C_8
REMARK    3  A    between atoms: N_6  and  C_13
REMARK    4  A    between atoms: N_7  and  C_12
REMARK    5  A    between atoms: C_10  and  C_12
REMARK    6  A    between atoms: C_13  and  C_14
REMARK    7  A    between atoms: C_15  and  C_17
REMARK                            x       y       z     vdW  Elec       q    Type
REMARK                         _______ _______ _______ _____ _____    ______ ____
ROOT
ATOM      3  O   UNL     1      -4.969 -12.001  15.913  0.00  0.00    -0.371 OA
ATOM      8  C   UNL     1      -3.034 -11.270  14.746  0.00  0.00    +0.111 C 
ATOM      9  C   UNL     1      -2.913 -10.870  16.206  0.00  0.00    +0.164 C 
ATOM     10  C   UNL     1      -3.897 -11.832  16.855  0.00  0.00    +0.165 C 
ATOM     11  C   UNL     1      -4.526 -11.528  14.629  0.00  0.00    +0.181 C 
ENDROOT
BRANCH   9   4
ATOM      4  O   UNL     1      -1.602 -11.037  16.710  0.00  0.00    -0.388 OA
ATOM     26  H   UNL     1      -1.606 -10.808  17.655  0.00  0.00    +0.210 HD
ENDBRANCH   9   4
BRANCH   8   6
ATOM      6  N   UNL     1      -2.561 -10.252  13.821  0.00  0.00    -0.304 NA
ATOM     25  H   UNL     1      -1.857  -9.681  14.290  0.00  0.00    +0.123 HD
BRANCH   6  13
ATOM     13  C   UNL     1      -1.969 -10.856  12.634  0.00  0.00    +0.124 C 
BRANCH  13  14
ATOM      1  S   UNL     1      -3.725 -11.767  10.679  0.00  0.00    -0.100 S 
ATOM     14  C   UNL     1      -2.760 -10.544  11.392  0.00  0.00    +0.004 A 
ATOM     16  C   UNL     1      -2.833  -9.357  10.698  0.00  0.00    +0.012 A 
ATOM     18  C   UNL     1      -3.693  -9.452   9.565  0.00  0.00    +0.008 A 
ATOM     19  C   UNL     1      -4.243 -10.708   9.437  0.00  0.00    +0.045 A 
ENDBRANCH  13  14
ENDBRANCH   6  13
ENDBRANCH   8   6
BRANCH  10  12
ATOM     12  C   UNL     1      -4.450 -11.325  18.176  0.00  0.00    +0.138 C 
BRANCH  12   7
ATOM      5  O   UNL     1      -6.945 -12.030  19.409  0.00  0.00    -0.270 OA
ATOM      7  N   UNL     1      -5.711 -10.666  17.996  0.00  0.00    -0.309 N 
ATOM     15  C   UNL     1      -6.874 -11.078  18.637  0.00  0.00    +0.244 C 
ATOM     27  H   UNL     1      -5.737  -9.914  17.315  0.00  0.00    +0.149 HD
BRANCH  15  17
ATOM      2  F   UNL     1     -11.524  -8.159  17.457  0.00  0.00    -0.205 F 
ATOM     17  C   UNL     1      -8.105 -10.306  18.325  0.00  0.00    +0.037 A 
ATOM     20  C   UNL     1      -9.310 -10.631  18.948  0.00  0.00    +0.016 A 
ATOM     21  C   UNL     1      -8.055  -9.256  17.408  0.00  0.00    +0.016 A 
ATOM     22  C   UNL     1     -10.465  -9.907  18.656  0.00  0.00    +0.039 A 
ATOM     23  C   UNL     1      -9.211  -8.531  17.115  0.00  0.00    +0.039 A 
ATOM     24  C   UNL     1     -10.415  -8.856  17.739  0.00  0.00    +0.123 A 
ENDBRANCH  15  17
ENDBRANCH  12   7
ENDBRANCH  10  12
TORSDOF 7
ENDMDL
MODEL 10
REMARK VINA RESULT:      -6.0     29.433     31.914
REMARK  Name = 75536650
REMARK  7 active torsions:
REMARK  status: ('A' for Active; 'I' for Inactive)
REMARK    1  A    between atoms: O_4  and  C_9
REMARK    2  A    between atoms: N_6  and  C_8
REMARK    3  A    between atoms: N_6  and  C_13
REMARK    4  A    between atoms: N_7  and  C_12
REMARK    5  A    between atoms: C_10  and  C_12
REMARK    6  A    between atoms: C_13  and  C_14
REMARK    7  A    between atoms: C_15  and  C_17
REMARK                            x       y       z     vdW  Elec       q    Type
REMARK                         _______ _______ _______ _____ _____    ______ ____
ROOT
ATOM      3  O   UNL     1      -9.536  -7.551   5.647  0.00  0.00    -0.371 OA
ATOM      8  C   UNL     1      -9.654  -6.168   7.574  0.00  0.00    +0.111 C 
ATOM      9  C   UNL     1      -8.363  -6.966   7.615  0.00  0.00    +0.164 C 
ATOM     10  C   UNL     1      -8.206  -7.343   6.149  0.00  0.00    +0.165 C 
ATOM     11  C   UNL     1     -10.469  -6.968   6.573  0.00  0.00    +0.181 C 
ENDROOT
BRANCH   9   4
ATOM      4  O   UNL     1      -7.266  -6.206   8.084  0.00  0.00    -0.388 OA
ATOM     26  H   UNL     1      -6.984  -6.571   8.940  0.00  0.00    +0.210 HD
ENDBRANCH   9   4
BRANCH   8   6
ATOM      6  N   UNL     1     -10.306  -6.046   8.868  0.00  0.00    -0.304 NA
ATOM     25  H   UNL     1      -9.646  -6.318   9.598  0.00  0.00    +0.123 HD
BRANCH   6  13
ATOM     13  C   UNL     1     -10.744  -4.677   9.109  0.00  0.00    +0.124 C 
BRANCH  13  14
ATOM      1  S   UNL     1     -12.352  -5.995  10.957  0.00  0.00    -0.100 S 
ATOM     14  C   UNL     1     -11.632  -4.577  10.321  0.00  0.00    +0.004 A 
ATOM     16  C   UNL     1     -11.975  -3.455  11.042  0.00  0.00    +0.012 A 
ATOM     18  C   UNL     1     -12.841  -3.763  12.131  0.00  0.00    +0.008 A 
ATOM     19  C   UNL     1     -13.127  -5.109  12.200  0.00  0.00    +0.045 A 
ENDBRANCH  13  14
ENDBRANCH   6  13
ENDBRANCH   8   6
BRANCH  10  12
ATOM     12  C   UNL     1      -7.376  -8.598   5.938  0.00  0.00    +0.138 C 
BRANCH  12   7
ATOM      5  O   UNL     1      -5.446 -10.710   6.175  0.00  0.00    -0.270 OA
ATOM      7  N   UNL     1      -6.518  -8.851   7.058  0.00  0.00    -0.309 N 
ATOM     15  C   UNL     1      -5.608  -9.903   7.087  0.00  0.00    +0.244 C 
ATOM     27  H   UNL     1      -6.651  -8.264   7.875  0.00  0.00    +0.149 HD
BRANCH  15  17
ATOM      2  F   UNL     1      -2.590 -10.446  11.791  0.00  0.00    -0.205 F 
ATOM     17  C   UNL     1      -4.810 -10.048   8.332  0.00  0.00    +0.037 A 
ATOM     20  C   UNL     1      -4.552 -11.315   8.854  0.00  0.00    +0.016 A 
ATOM     21  C   UNL     1      -4.317  -8.914   8.979  0.00  0.00    +0.016 A 
ATOM     22  C   UNL     1      -3.803 -11.451  10.021  0.00  0.00    +0.039 A 
ATOM     23  C   UNL     1      -3.567  -9.050  10.148  0.00  0.00    +0.039 A 
ATOM     24  C   UNL     1      -3.310 -10.317  10.669  0.00  0.00    +0.123 A 
ENDBRANCH  15  17
ENDBRANCH  12   7
ENDBRANCH  10  12
TORSDOF 7
ENDMDL
