MODEL 1
REMARK VINA RESULT:      -7.0      0.000      0.000
REMARK  Name = 38028470
REMARK  13 active torsions:
REMARK  status: ('A' for Active; 'I' for Inactive)
REMARK    1  A    between atoms: O_3  and  C_32
REMARK    2  A    between atoms: O_3  and  C_34
REMARK    3  A    between atoms: N_4  and  C_15
REMARK    4  A    between atoms: N_5  and  C_22
REMARK    5  A    between atoms: N_6  and  C_24
REMARK    6  A    between atoms: C_8  and  C_12
REMARK    7  A    between atoms: C_9  and  C_15
REMARK    8  A    between atoms: C_11  and  C_16
REMARK    9  A    between atoms: C_12  and  C_17
REMARK   10  A    between atoms: C_12  and  C_18
REMARK   11  A    between atoms: C_13  and  C_19
REMARK   12  A    between atoms: C_16  and  C_20
REMARK   13  A    between atoms: C_22  and  C_23
REMARK                            x       y       z     vdW  Elec       q    Type
REMARK                         _______ _______ _______ _____ _____    ______ ____
ROOT
ATOM      8  C   UNL     1      -5.184 -10.606  10.802  0.00  0.00    +0.000 C 
ATOM      9  C   UNL     1      -4.649  -9.671   9.689  0.00  0.00    +0.032 C 
ATOM     10  C   UNL     1      -4.631 -10.181  12.172  0.00  0.00    +0.012 C 
ATOM     11  C   UNL     1      -3.092 -10.207  12.212  0.00  0.00    +0.023 C 
ATOM     13  C   UNL     1      -2.486  -9.531  10.998  0.00  0.00    -0.073 C 
ATOM     14  C   UNL     1      -3.200  -9.288   9.884  0.00  0.00    -0.022 C 
ATOM     19  C   UNL     1      -1.050  -9.100  11.110  0.00  0.00    +0.039 C 
ENDROOT
BRANCH   8  12
ATOM     12  C   UNL     1      -6.716 -10.623  10.844  0.00  0.00    -0.013 C 
ATOM     17  C   UNL     1      -7.210 -11.706  11.796  0.00  0.00    +0.007 C 
ATOM     18  C   UNL     1      -7.251  -9.255  11.255  0.00  0.00    +0.007 C 
ENDBRANCH   8  12
BRANCH   9  15
ATOM     15  C   UNL     1      -4.828 -10.302   8.304  0.00  0.00    +0.113 C 
BRANCH  15   4
ATOM      2  O   UNL     1      -7.561 -10.113   7.466  0.00  0.00    -0.253 OA
ATOM      4  N   UNL     1      -5.375  -9.357   7.382  0.00  0.00    -0.299 N 
ATOM      6  N   UNL     1      -6.974  -8.296   6.099  0.00  0.00    -0.269 N 
ATOM     21  C   UNL     1      -6.733  -9.324   7.016  0.00  0.00    +0.304 C 
ATOM     35  H   UNL     1      -4.768  -8.628   7.019  0.00  0.00    +0.150 HD
ATOM     37  H   UNL     1      -6.174  -7.731   5.826  0.00  0.00    +0.156 HD
BRANCH   6  24
ATOM     24  C   UNL     1      -8.205  -7.941   5.498  0.00  0.00    +0.035 A 
ATOM     27  C   UNL     1      -9.177  -7.274   6.243  0.00  0.00    +0.027 A 
ATOM     28  C   UNL     1      -8.446  -8.257   4.162  0.00  0.00    +0.027 A 
ATOM     30  C   UNL     1     -10.390  -6.923   5.652  0.00  0.00    +0.047 A 
ATOM     31  C   UNL     1      -9.660  -7.906   3.569  0.00  0.00    +0.047 A 
ATOM     32  C   UNL     1     -10.632  -7.239   4.314  0.00  0.00    +0.120 A 
BRANCH  32   3
ATOM      3  O   UNL     1     -11.815  -6.896   3.737  0.00  0.00    -0.495 OA
ATOM     34  C   UNL     1     -11.771  -6.439   2.386  0.00  0.00    +0.277 C 
ENDBRANCH  32   3
ENDBRANCH   6  24
ENDBRANCH  15   4
ENDBRANCH   9  15
BRANCH  11  16
ATOM     16  C   UNL     1      -2.567 -11.638  12.362  0.00  0.00    +0.103 C 
BRANCH  16  20
ATOM      1  O   UNL     1      -2.122 -13.166  14.185  0.00  0.00    -0.276 OA
ATOM      5  N   UNL     1      -2.506 -10.919  14.641  0.00  0.00    -0.311 N 
ATOM     20  C   UNL     1      -2.369 -12.022  13.811  0.00  0.00    +0.214 C 
ATOM     36  H   UNL     1      -2.709 -10.010  14.238  0.00  0.00    +0.149 HD
BRANCH   5  22
ATOM     22  C   UNL     1      -2.370 -10.992  16.078  0.00  0.00    +0.141 C 
BRANCH  22  23
ATOM      7  N   UNL     1      -5.961 -10.023  16.763  0.00  0.00    -0.263 NA
ATOM     23  C   UNL     1      -3.693 -10.861  16.776  0.00  0.00    -0.012 A 
ATOM     25  C   UNL     1      -3.897 -11.415  18.034  0.00  0.00    +0.008 A 
ATOM     26  C   UNL     1      -4.747 -10.179  16.189  0.00  0.00    +0.115 A 
ATOM     29  C   UNL     1      -5.133 -11.276  18.658  0.00  0.00    +0.020 A 
ATOM     33  C   UNL     1      -6.123 -10.577  17.985  0.00  0.00    +0.111 A 
ENDBRANCH  22  23
ENDBRANCH   5  22
ENDBRANCH  16  20
ENDBRANCH  11  16
TORSDOF 9
ENDMDL
MODEL 2
REMARK VINA RESULT:      -6.9      5.227     10.467
REMARK  Name = 38028470
REMARK  13 active torsions:
REMARK  status: ('A' for Active; 'I' for Inactive)
REMARK    1  A    between atoms: O_3  and  C_32
REMARK    2  A    between atoms: O_3  and  C_34
REMARK    3  A    between atoms: N_4  and  C_15
REMARK    4  A    between atoms: N_5  and  C_22
REMARK    5  A    between atoms: N_6  and  C_24
REMARK    6  A    between atoms: C_8  and  C_12
REMARK    7  A    between atoms: C_9  and  C_15
REMARK    8  A    between atoms: C_11  and  C_16
REMARK    9  A    between atoms: C_12  and  C_17
REMARK   10  A    between atoms: C_12  and  C_18
REMARK   11  A    between atoms: C_13  and  C_19
REMARK   12  A    between atoms: C_16  and  C_20
REMARK   13  A    between atoms: C_22  and  C_23
REMARK                            x       y       z     vdW  Elec       q    Type
REMARK                         _______ _______ _______ _____ _____    ______ ____
ROOT
ATOM      8  C   UNL     1      -6.052 -10.411  15.354  0.00  0.00    +0.000 C 
ATOM      9  C   UNL     1      -6.886 -10.575  16.649  0.00  0.00    +0.032 C 
ATOM     10  C   UNL     1      -5.021 -11.543  15.232  0.00  0.00    +0.012 C 
ATOM     11  C   UNL     1      -4.056 -11.583  16.432  0.00  0.00    +0.023 C 
ATOM     13  C   UNL     1      -4.794 -11.479  17.751  0.00  0.00    -0.073 C 
ATOM     14  C   UNL     1      -6.063 -11.038  17.827  0.00  0.00    -0.022 C 
ATOM     19  C   UNL     1      -4.054 -11.934  18.978  0.00  0.00    +0.039 C 
ENDROOT
BRANCH   8  12
ATOM     12  C   UNL     1      -6.940 -10.382  14.105  0.00  0.00    -0.013 C 
ATOM     17  C   UNL     1      -6.086 -10.249  12.848  0.00  0.00    +0.007 C 
ATOM     18  C   UNL     1      -7.808 -11.634  14.040  0.00  0.00    +0.007 C 
ENDBRANCH   8  12
BRANCH   9  15
ATOM     15  C   UNL     1      -7.608  -9.273  17.010  0.00  0.00    +0.113 C 
BRANCH  15   4
ATOM      2  O   UNL     1     -10.179 -10.497  17.327  0.00  0.00    -0.253 OA
ATOM      4  N   UNL     1      -8.341  -9.419  18.229  0.00  0.00    -0.299 N 
ATOM      6  N   UNL     1     -10.074 -10.031  19.626  0.00  0.00    -0.269 N 
ATOM     21  C   UNL     1      -9.603 -10.034  18.309  0.00  0.00    +0.304 C 
ATOM     35  H   UNL     1      -7.901  -9.124  19.095  0.00  0.00    +0.150 HD
ATOM     37  H   UNL     1      -9.472  -9.603  20.324  0.00  0.00    +0.156 HD
BRANCH   6  24
ATOM     24  C   UNL     1     -11.296 -10.552  20.111  0.00  0.00    +0.035 A 
ATOM     27  C   UNL     1     -11.405 -11.912  20.406  0.00  0.00    +0.027 A 
ATOM     28  C   UNL     1     -12.391  -9.709  20.297  0.00  0.00    +0.027 A 
ATOM     30  C   UNL     1     -12.609 -12.427  20.885  0.00  0.00    +0.047 A 
ATOM     31  C   UNL     1     -13.595 -10.225  20.777  0.00  0.00    +0.047 A 
ATOM     32  C   UNL     1     -13.704 -11.584  21.071  0.00  0.00    +0.120 A 
BRANCH  32   3
ATOM      3  O   UNL     1     -14.879 -12.086  21.539  0.00  0.00    -0.495 OA
ATOM     34  C   UNL     1     -16.025 -11.241  21.459  0.00  0.00    +0.277 C 
ENDBRANCH  32   3
ENDBRANCH   6  24
ENDBRANCH  15   4
ENDBRANCH   9  15
BRANCH  11  16
ATOM     16  C   UNL     1      -2.984 -10.495  16.315  0.00  0.00    +0.103 C 
BRANCH  16  20
ATOM      1  O   UNL     1      -0.997 -11.441  15.309  0.00  0.00    -0.276 OA
ATOM      5  N   UNL     1      -2.439 -10.160  14.011  0.00  0.00    -0.311 N 
ATOM     20  C   UNL     1      -2.017 -10.768  15.185  0.00  0.00    +0.214 C 
ATOM     36  H   UNL     1      -3.301  -9.624  14.006  0.00  0.00    +0.149 HD
BRANCH   5  22
ATOM     22  C   UNL     1      -1.707 -10.252  12.769  0.00  0.00    +0.141 C 
BRANCH  22  23
ATOM      7  N   UNL     1      -3.780 -10.022   9.614  0.00  0.00    -0.263 NA
ATOM     23  C   UNL     1      -2.591 -10.651  11.623  0.00  0.00    -0.012 A 
ATOM     25  C   UNL     1      -3.044 -11.959  11.490  0.00  0.00    +0.008 A 
ATOM     26  C   UNL     1      -2.985  -9.729  10.667  0.00  0.00    +0.115 A 
ATOM     29  C   UNL     1      -3.864 -12.300  10.419  0.00  0.00    +0.020 A 
ATOM     33  C   UNL     1      -4.200 -11.303   9.517  0.00  0.00    +0.111 A 
ENDBRANCH  22  23
ENDBRANCH   5  22
ENDBRANCH  16  20
ENDBRANCH  11  16
TORSDOF 9
ENDMDL
MODEL 3
REMARK VINA RESULT:      -6.8     27.496     31.198
REMARK  Name = 38028470
REMARK  13 active torsions:
REMARK  status: ('A' for Active; 'I' for Inactive)
REMARK    1  A    between atoms: O_3  and  C_32
REMARK    2  A    between atoms: O_3  and  C_34
REMARK    3  A    between atoms: N_4  and  C_15
REMARK    4  A    between atoms: N_5  and  C_22
REMARK    5  A    between atoms: N_6  and  C_24
REMARK    6  A    between atoms: C_8  and  C_12
REMARK    7  A    between atoms: C_9  and  C_15
REMARK    8  A    between atoms: C_11  and  C_16
REMARK    9  A    between atoms: C_12  and  C_17
REMARK   10  A    between atoms: C_12  and  C_18
REMARK   11  A    between atoms: C_13  and  C_19
REMARK   12  A    between atoms: C_16  and  C_20
REMARK   13  A    between atoms: C_22  and  C_23
REMARK                            x       y       z     vdW  Elec       q    Type
REMARK                         _______ _______ _______ _____ _____    ______ ____
ROOT
ATOM      8  C   UNL     1      13.395   9.267  19.166  0.00  0.00    +0.000 C 
ATOM      9  C   UNL     1      12.611   8.007  19.610  0.00  0.00    +0.032 C 
ATOM     10  C   UNL     1      14.849   8.903  18.827  0.00  0.00    +0.012 C 
ATOM     11  C   UNL     1      15.583   8.266  20.023  0.00  0.00    +0.023 C 
ATOM     13  C   UNL     1      14.751   7.186  20.684  0.00  0.00    -0.073 C 
ATOM     14  C   UNL     1      13.426   7.077  20.477  0.00  0.00    -0.022 C 
ATOM     19  C   UNL     1      15.485   6.204  21.555  0.00  0.00    +0.039 C 
ENDROOT
BRANCH   8  12
ATOM     12  C   UNL     1      12.739   9.952  17.963  0.00  0.00    -0.013 C 
ATOM     17  C   UNL     1      13.750  10.829  17.233  0.00  0.00    +0.007 C 
ATOM     18  C   UNL     1      12.143   8.914  17.019  0.00  0.00    +0.007 C 
ENDBRANCH   8  12
BRANCH   9  15
ATOM     15  C   UNL     1      11.320   8.389  20.342  0.00  0.00    +0.113 C 
BRANCH  15   4
ATOM      2  O   UNL     1      11.294  11.077  21.331  0.00  0.00    -0.253 OA
ATOM      4  N   UNL     1      11.601   8.811  21.679  0.00  0.00    -0.299 N 
ATOM      6  N   UNL     1      11.886  10.262  23.451  0.00  0.00    -0.269 N 
ATOM     21  C   UNL     1      11.569  10.154  22.094  0.00  0.00    +0.304 C 
ATOM     35  H   UNL     1      11.768   8.100  22.385  0.00  0.00    +0.150 HD
ATOM     37  H   UNL     1      12.092   9.395  23.942  0.00  0.00    +0.156 HD
BRANCH   6  24
ATOM     24  C   UNL     1      11.959  11.438  24.234  0.00  0.00    +0.035 A 
ATOM     27  C   UNL     1      13.165  12.131  24.340  0.00  0.00    +0.027 A 
ATOM     28  C   UNL     1      10.826  11.905  24.900  0.00  0.00    +0.027 A 
ATOM     30  C   UNL     1      13.238  13.291  25.111  0.00  0.00    +0.047 A 
ATOM     31  C   UNL     1      10.899  13.066  25.671  0.00  0.00    +0.047 A 
ATOM     32  C   UNL     1      12.105  13.759  25.776  0.00  0.00    +0.120 A 
BRANCH  32   3
ATOM      3  O   UNL     1      12.176  14.890  26.528  0.00  0.00    -0.495 OA
ATOM     34  C   UNL     1      13.100  14.891  27.615  0.00  0.00    +0.277 C 
ENDBRANCH  32   3
ENDBRANCH   6  24
ENDBRANCH  15   4
ENDBRANCH   9  15
BRANCH  11  16
ATOM     16  C   UNL     1      16.009   9.330  21.039  0.00  0.00    +0.103 C 
BRANCH  16  20
ATOM      1  O   UNL     1      18.223  10.264  20.750  0.00  0.00    -0.276 OA
ATOM      5  N   UNL     1      17.959   8.300  21.964  0.00  0.00    -0.311 N 
ATOM     20  C   UNL     1      17.510   9.378  21.216  0.00  0.00    +0.214 C 
ATOM     36  H   UNL     1      17.292   7.617  22.309  0.00  0.00    +0.149 HD
BRANCH   5  22
ATOM     22  C   UNL     1      19.351   8.089  22.288  0.00  0.00    +0.141 C 
BRANCH  22  23
ATOM      7  N   UNL     1      21.561   5.078  21.697  0.00  0.00    -0.263 NA
ATOM     23  C   UNL     1      19.882   6.818  21.692  0.00  0.00    -0.012 A 
ATOM     25  C   UNL     1      19.240   6.206  20.622  0.00  0.00    +0.008 A 
ATOM     26  C   UNL     1      21.029   6.219  22.189  0.00  0.00    +0.115 A 
ATOM     29  C   UNL     1      19.756   5.029  20.089  0.00  0.00    +0.020 A 
ATOM     33  C   UNL     1      20.909   4.511  20.658  0.00  0.00    +0.111 A 
ENDBRANCH  22  23
ENDBRANCH   5  22
ENDBRANCH  16  20
ENDBRANCH  11  16
TORSDOF 9
ENDMDL
MODEL 4
REMARK VINA RESULT:      -6.8     20.422     24.299
REMARK  Name = 38028470
REMARK  13 active torsions:
REMARK  status: ('A' for Active; 'I' for Inactive)
REMARK    1  A    between atoms: O_3  and  C_32
REMARK    2  A    between atoms: O_3  and  C_34
REMARK    3  A    between atoms: N_4  and  C_15
REMARK    4  A    between atoms: N_5  and  C_22
REMARK    5  A    between atoms: N_6  and  C_24
REMARK    6  A    between atoms: C_8  and  C_12
REMARK    7  A    between atoms: C_9  and  C_15
REMARK    8  A    between atoms: C_11  and  C_16
REMARK    9  A    between atoms: C_12  and  C_17
REMARK   10  A    between atoms: C_12  and  C_18
REMARK   11  A    between atoms: C_13  and  C_19
REMARK   12  A    between atoms: C_16  and  C_20
REMARK   13  A    between atoms: C_22  and  C_23
REMARK                            x       y       z     vdW  Elec       q    Type
REMARK                         _______ _______ _______ _____ _____    ______ ____
ROOT
ATOM      8  C   UNL     1     -17.070   5.471  22.395  0.00  0.00    +0.000 C 
ATOM      9  C   UNL     1     -16.528   4.395  23.368  0.00  0.00    +0.032 C 
ATOM     10  C   UNL     1     -16.196   5.545  21.134  0.00  0.00    +0.012 C 
ATOM     11  C   UNL     1     -14.728   5.880  21.463  0.00  0.00    +0.023 C 
ATOM     13  C   UNL     1     -14.201   5.034  22.605  0.00  0.00    -0.073 C 
ATOM     14  C   UNL     1     -15.019   4.368  23.438  0.00  0.00    -0.022 C 
ATOM     19  C   UNL     1     -12.706   4.937  22.740  0.00  0.00    +0.039 C 
ENDROOT
BRANCH   8  12
ATOM     12  C   UNL     1     -18.526   5.200  22.001  0.00  0.00    -0.013 C 
ATOM     17  C   UNL     1     -19.003   6.232  20.985  0.00  0.00    +0.007 C 
ATOM     18  C   UNL     1     -18.672   3.787  21.446  0.00  0.00    +0.007 C 
ENDBRANCH   8  12
BRANCH   9  15
ATOM     15  C   UNL     1     -17.101   4.584  24.777  0.00  0.00    +0.113 C 
BRANCH  15   4
ATOM      2  O   UNL     1     -17.599   3.276  27.277  0.00  0.00    -0.253 OA
ATOM      4  N   UNL     1     -16.132   4.241  25.770  0.00  0.00    -0.299 N 
ATOM      6  N   UNL     1     -15.302   3.392  27.750  0.00  0.00    -0.269 N 
ATOM     21  C   UNL     1     -16.450   3.597  26.979  0.00  0.00    +0.304 C 
ATOM     35  H   UNL     1     -15.151   4.411  25.568  0.00  0.00    +0.150 HD
ATOM     37  H   UNL     1     -14.425   3.722  27.357  0.00  0.00    +0.156 HD
BRANCH   6  24
ATOM     24  C   UNL     1     -15.209   2.779  29.022  0.00  0.00    +0.035 A 
ATOM     27  C   UNL     1     -15.319   1.393  29.137  0.00  0.00    +0.027 A 
ATOM     28  C   UNL     1     -15.007   3.559  30.159  0.00  0.00    +0.027 A 
ATOM     30  C   UNL     1     -15.227   0.788  30.390  0.00  0.00    +0.047 A 
ATOM     31  C   UNL     1     -14.914   2.954  31.413  0.00  0.00    +0.047 A 
ATOM     32  C   UNL     1     -15.024   1.568  31.528  0.00  0.00    +0.120 A 
BRANCH  32   3
ATOM      3  O   UNL     1     -14.934   0.977  32.751  0.00  0.00    -0.495 OA
ATOM     34  C   UNL     1     -14.452   1.781  33.826  0.00  0.00    +0.277 C 
ENDBRANCH  32   3
ENDBRANCH   6  24
ENDBRANCH  15   4
ENDBRANCH   9  15
BRANCH  11  16
ATOM     16  C   UNL     1     -14.555   7.372  21.760  0.00  0.00    +0.103 C 
BRANCH  16  20
ATOM      1  O   UNL     1     -12.657   8.873  21.748  0.00  0.00    -0.276 OA
ATOM      5  N   UNL     1     -12.760   7.145  20.197  0.00  0.00    -0.311 N 
ATOM     20  C   UNL     1     -13.229   7.901  21.262  0.00  0.00    +0.214 C 
ATOM     36  H   UNL     1     -13.303   6.355  19.866  0.00  0.00    +0.149 HD
BRANCH   5  22
ATOM     22  C   UNL     1     -11.513   7.424  19.521  0.00  0.00    +0.141 C 
BRANCH  22  23
ATOM      7  N   UNL     1     -10.791   8.482  15.963  0.00  0.00    -0.263 NA
ATOM     23  C   UNL     1     -11.730   7.893  18.112  0.00  0.00    -0.012 A 
ATOM     25  C   UNL     1     -13.006   8.176  17.639  0.00  0.00    +0.008 A 
ATOM     26  C   UNL     1     -10.665   8.061  17.242  0.00  0.00    +0.115 A 
ATOM     29  C   UNL     1     -13.177   8.612  16.329  0.00  0.00    +0.020 A 
ATOM     33  C   UNL     1     -12.046   8.747  15.539  0.00  0.00    +0.111 A 
ENDBRANCH  22  23
ENDBRANCH   5  22
ENDBRANCH  16  20
ENDBRANCH  11  16
TORSDOF 9
ENDMDL
MODEL 5
REMARK VINA RESULT:      -6.7      2.976      9.684
REMARK  Name = 38028470
REMARK  13 active torsions:
REMARK  status: ('A' for Active; 'I' for Inactive)
REMARK    1  A    between atoms: O_3  and  C_32
REMARK    2  A    between atoms: O_3  and  C_34
REMARK    3  A    between atoms: N_4  and  C_15
REMARK    4  A    between atoms: N_5  and  C_22
REMARK    5  A    between atoms: N_6  and  C_24
REMARK    6  A    between atoms: C_8  and  C_12
REMARK    7  A    between atoms: C_9  and  C_15
REMARK    8  A    between atoms: C_11  and  C_16
REMARK    9  A    between atoms: C_12  and  C_17
REMARK   10  A    between atoms: C_12  and  C_18
REMARK   11  A    between atoms: C_13  and  C_19
REMARK   12  A    between atoms: C_16  and  C_20
REMARK   13  A    between atoms: C_22  and  C_23
REMARK                            x       y       z     vdW  Elec       q    Type
REMARK                         _______ _______ _______ _____ _____    ______ ____
ROOT
ATOM      8  C   UNL     1      -3.320 -12.429  12.376  0.00  0.00    +0.000 C 
ATOM      9  C   UNL     1      -2.190 -11.369  12.370  0.00  0.00    +0.032 C 
ATOM     10  C   UNL     1      -3.867 -12.639  10.955  0.00  0.00    +0.012 C 
ATOM     11  C   UNL     1      -4.422 -11.337  10.347  0.00  0.00    +0.023 C 
ATOM     13  C   UNL     1      -3.468 -10.174  10.541  0.00  0.00    -0.073 C 
ATOM     14  C   UNL     1      -2.469 -10.212  11.440  0.00  0.00    -0.022 C 
ATOM     19  C   UNL     1      -3.664  -8.983   9.645  0.00  0.00    +0.039 C 
ENDROOT
BRANCH   8  12
ATOM     12  C   UNL     1      -2.843 -13.767  12.950  0.00  0.00    -0.013 C 
ATOM     17  C   UNL     1      -3.901 -14.356  13.876  0.00  0.00    +0.007 C 
ATOM     18  C   UNL     1      -2.507 -14.739  11.825  0.00  0.00    +0.007 C 
ENDBRANCH   8  12
BRANCH   9  15
ATOM     15  C   UNL     1      -1.923 -10.838  13.782  0.00  0.00    +0.113 C 
BRANCH  15   4
ATOM      2  O   UNL     1      -3.361 -11.844  16.046  0.00  0.00    -0.253 OA
ATOM      4  N   UNL     1      -3.113 -10.288  14.351  0.00  0.00    -0.299 N 
ATOM      6  N   UNL     1      -4.902 -10.090  15.797  0.00  0.00    -0.269 N 
ATOM     21  C   UNL     1      -3.767 -10.838  15.468  0.00  0.00    +0.304 C 
ATOM     35  H   UNL     1      -3.472  -9.417  13.973  0.00  0.00    +0.150 HD
ATOM     37  H   UNL     1      -5.100  -9.282  15.213  0.00  0.00    +0.156 HD
BRANCH   6  24
ATOM     24  C   UNL     1      -5.817 -10.320  16.851  0.00  0.00    +0.035 A 
ATOM     27  C   UNL     1      -7.168 -10.519  16.569  0.00  0.00    +0.027 A 
ATOM     28  C   UNL     1      -5.368 -10.349  18.171  0.00  0.00    +0.027 A 
ATOM     30  C   UNL     1      -8.071 -10.747  17.607  0.00  0.00    +0.047 A 
ATOM     31  C   UNL     1      -6.272 -10.577  19.210  0.00  0.00    +0.047 A 
ATOM     32  C   UNL     1      -7.624 -10.776  18.928  0.00  0.00    +0.120 A 
BRANCH  32   3
ATOM      3  O   UNL     1      -8.504 -10.999  19.941  0.00  0.00    -0.495 OA
ATOM     34  C   UNL     1      -9.874 -10.690  19.689  0.00  0.00    +0.277 C 
ENDBRANCH  32   3
ENDBRANCH   6  24
ENDBRANCH  15   4
ENDBRANCH   9  15
BRANCH  11  16
ATOM     16  C   UNL     1      -5.808 -11.010  10.912  0.00  0.00    +0.103 C 
BRANCH  16  20
ATOM      1  O   UNL     1      -6.789 -11.468   8.748  0.00  0.00    -0.276 OA
ATOM      5  N   UNL     1      -7.859 -10.007  10.204  0.00  0.00    -0.311 N 
ATOM     20  C   UNL     1      -6.848 -10.877   9.823  0.00  0.00    +0.214 C 
ATOM     36  H   UNL     1      -7.823  -9.566  11.118  0.00  0.00    +0.149 HD
BRANCH   5  22
ATOM     22  C   UNL     1      -8.987  -9.689   9.359  0.00  0.00    +0.141 C 
BRANCH  22  23
ATOM      7  N   UNL     1     -10.296  -6.169   8.910  0.00  0.00    -0.263 NA
ATOM     23  C   UNL     1      -9.034  -8.230   9.009  0.00  0.00    -0.012 A 
ATOM     25  C   UNL     1      -7.925  -7.584   8.476  0.00  0.00    +0.008 A 
ATOM     26  C   UNL     1     -10.186  -7.484   9.204  0.00  0.00    +0.115 A 
ATOM     29  C   UNL     1      -7.998  -6.231   8.160  0.00  0.00    +0.020 A 
ATOM     33  C   UNL     1      -9.197  -5.576   8.394  0.00  0.00    +0.111 A 
ENDBRANCH  22  23
ENDBRANCH   5  22
ENDBRANCH  16  20
ENDBRANCH  11  16
TORSDOF 9
ENDMDL
MODEL 6
REMARK VINA RESULT:      -6.6     23.250     26.994
REMARK  Name = 38028470
REMARK  13 active torsions:
REMARK  status: ('A' for Active; 'I' for Inactive)
REMARK    1  A    between atoms: O_3  and  C_32
REMARK    2  A    between atoms: O_3  and  C_34
REMARK    3  A    between atoms: N_4  and  C_15
REMARK    4  A    between atoms: N_5  and  C_22
REMARK    5  A    between atoms: N_6  and  C_24
REMARK    6  A    between atoms: C_8  and  C_12
REMARK    7  A    between atoms: C_9  and  C_15
REMARK    8  A    between atoms: C_11  and  C_16
REMARK    9  A    between atoms: C_12  and  C_17
REMARK   10  A    between atoms: C_12  and  C_18
REMARK   11  A    between atoms: C_13  and  C_19
REMARK   12  A    between atoms: C_16  and  C_20
REMARK   13  A    between atoms: C_22  and  C_23
REMARK                            x       y       z     vdW  Elec       q    Type
REMARK                         _______ _______ _______ _____ _____    ______ ____
ROOT
ATOM      8  C   UNL     1       8.755   8.718   5.105  0.00  0.00    +0.000 C 
ATOM      9  C   UNL     1       8.680   8.476   6.633  0.00  0.00    +0.032 C 
ATOM     10  C   UNL     1       8.330   7.456   4.339  0.00  0.00    +0.012 C 
ATOM     11  C   UNL     1       9.213   6.241   4.684  0.00  0.00    +0.023 C 
ATOM     13  C   UNL     1       9.406   6.093   6.180  0.00  0.00    -0.073 C 
ATOM     14  C   UNL     1       9.151   7.098   7.036  0.00  0.00    -0.022 C 
ATOM     19  C   UNL     1       9.859   4.747   6.674  0.00  0.00    +0.039 C 
ENDROOT
BRANCH   8  12
ATOM     12  C   UNL     1       7.884   9.903   4.673  0.00  0.00    -0.013 C 
ATOM     17  C   UNL     1       8.752  11.026   4.116  0.00  0.00    +0.007 C 
ATOM     18  C   UNL     1       6.851   9.457   3.644  0.00  0.00    +0.007 C 
ENDBRANCH   8  12
BRANCH   9  15
ATOM     15  C   UNL     1       9.479   9.534   7.400  0.00  0.00    +0.113 C 
BRANCH  15   4
ATOM      2  O   UNL     1      11.730  10.288   5.797  0.00  0.00    -0.253 OA
ATOM      4  N   UNL     1      10.834   9.116   7.580  0.00  0.00    -0.299 N 
ATOM      6  N   UNL     1      13.100   8.960   7.166  0.00  0.00    -0.269 N 
ATOM     21  C   UNL     1      11.892   9.529   6.750  0.00  0.00    +0.304 C 
ATOM     35  H   UNL     1      11.060   8.544   8.387  0.00  0.00    +0.150 HD
ATOM     37  H   UNL     1      13.060   8.348   7.977  0.00  0.00    +0.156 HD
BRANCH   6  24
ATOM     24  C   UNL     1      14.382   9.131   6.593  0.00  0.00    +0.035 A 
ATOM     27  C   UNL     1      15.023   8.051   5.987  0.00  0.00    +0.027 A 
ATOM     28  C   UNL     1      15.004  10.378   6.633  0.00  0.00    +0.027 A 
ATOM     30  C   UNL     1      16.287   8.218   5.421  0.00  0.00    +0.047 A 
ATOM     31  C   UNL     1      16.268  10.546   6.066  0.00  0.00    +0.047 A 
ATOM     32  C   UNL     1      16.909   9.466   5.460  0.00  0.00    +0.120 A 
BRANCH  32   3
ATOM      3  O   UNL     1      18.142   9.629   4.908  0.00  0.00    -0.495 OA
ATOM     34  C   UNL     1      18.535   8.691   3.907  0.00  0.00    +0.277 C 
ENDBRANCH  32   3
ENDBRANCH   6  24
ENDBRANCH  15   4
ENDBRANCH   9  15
BRANCH  11  16
ATOM     16  C   UNL     1      10.562   6.315   3.961  0.00  0.00    +0.103 C 
BRANCH  16  20
ATOM      1  O   UNL     1      10.034   5.513   1.740  0.00  0.00    -0.276 OA
ATOM      5  N   UNL     1      11.468   4.281   3.091  0.00  0.00    -0.311 N 
ATOM     20  C   UNL     1      10.637   5.352   2.798  0.00  0.00    +0.214 C 
ATOM     36  H   UNL     1      11.927   4.236   3.995  0.00  0.00    +0.149 HD
BRANCH   5  22
ATOM     22  C   UNL     1      11.725   3.205   2.162  0.00  0.00    +0.141 C 
BRANCH  22  23
ATOM      7  N   UNL     1      13.760   3.905  -0.947  0.00  0.00    -0.263 NA
ATOM     23  C   UNL     1      12.901   3.496   1.275  0.00  0.00    -0.012 A 
ATOM     25  C   UNL     1      14.182   3.620   1.801  0.00  0.00    +0.008 A 
ATOM     26  C   UNL     1      12.745   3.645  -0.094  0.00  0.00    +0.115 A 
ATOM     29  C   UNL     1      15.252   3.888   0.955  0.00  0.00    +0.020 A 
ATOM     33  C   UNL     1      14.990   4.020  -0.400  0.00  0.00    +0.111 A 
ENDBRANCH  22  23
ENDBRANCH   5  22
ENDBRANCH  16  20
ENDBRANCH  11  16
TORSDOF 9
ENDMDL
MODEL 7
REMARK VINA RESULT:      -6.4     23.299     26.265
REMARK  Name = 38028470
REMARK  13 active torsions:
REMARK  status: ('A' for Active; 'I' for Inactive)
REMARK    1  A    between atoms: O_3  and  C_32
REMARK    2  A    between atoms: O_3  and  C_34
REMARK    3  A    between atoms: N_4  and  C_15
REMARK    4  A    between atoms: N_5  and  C_22
REMARK    5  A    between atoms: N_6  and  C_24
REMARK    6  A    between atoms: C_8  and  C_12
REMARK    7  A    between atoms: C_9  and  C_15
REMARK    8  A    between atoms: C_11  and  C_16
REMARK    9  A    between atoms: C_12  and  C_17
REMARK   10  A    between atoms: C_12  and  C_18
REMARK   11  A    between atoms: C_13  and  C_19
REMARK   12  A    between atoms: C_16  and  C_20
REMARK   13  A    between atoms: C_22  and  C_23
REMARK                            x       y       z     vdW  Elec       q    Type
REMARK                         _______ _______ _______ _____ _____    ______ ____
ROOT
ATOM      8  C   UNL     1      15.412   9.676   5.107  0.00  0.00    +0.000 C 
ATOM      9  C   UNL     1      15.971   8.241   5.271  0.00  0.00    +0.032 C 
ATOM     10  C   UNL     1      14.670  10.113   6.379  0.00  0.00    +0.012 C 
ATOM     11  C   UNL     1      13.501   9.170   6.723  0.00  0.00    +0.023 C 
ATOM     13  C   UNL     1      13.911   7.713   6.644  0.00  0.00    -0.073 C 
ATOM     14  C   UNL     1      15.025   7.318   6.002  0.00  0.00    -0.022 C 
ATOM     19  C   UNL     1      13.033   6.724   7.358  0.00  0.00    +0.039 C 
ENDROOT
BRANCH   8  12
ATOM     12  C   UNL     1      16.519  10.685   4.781  0.00  0.00    -0.013 C 
ATOM     17  C   UNL     1      16.163  11.481   3.531  0.00  0.00    +0.007 C 
ATOM     18  C   UNL     1      16.756  11.615   5.966  0.00  0.00    +0.007 C 
ENDBRANCH   8  12
BRANCH   9  15
ATOM     15  C   UNL     1      16.334   7.631   3.913  0.00  0.00    +0.113 C 
BRANCH  15   4
ATOM      2  O   UNL     1      14.899   7.232   1.466  0.00  0.00    -0.253 OA
ATOM      4  N   UNL     1      15.466   6.538   3.599  0.00  0.00    -0.299 N 
ATOM      6  N   UNL     1      14.017   5.244   2.352  0.00  0.00    -0.269 N 
ATOM     21  C   UNL     1      14.792   6.408   2.372  0.00  0.00    +0.304 C 
ATOM     35  H   UNL     1      15.380   5.781   4.270  0.00  0.00    +0.150 HD
ATOM     37  H   UNL     1      14.038   4.669   3.190  0.00  0.00    +0.156 HD
BRANCH   6  24
ATOM     24  C   UNL     1      13.199   4.764   1.303  0.00  0.00    +0.035 A 
ATOM     27  C   UNL     1      13.628   3.693   0.519  0.00  0.00    +0.027 A 
ATOM     28  C   UNL     1      11.964   5.361   1.052  0.00  0.00    +0.027 A 
ATOM     30  C   UNL     1      12.823   3.219  -0.515  0.00  0.00    +0.047 A 
ATOM     31  C   UNL     1      11.157   4.886   0.017  0.00  0.00    +0.047 A 
ATOM     32  C   UNL     1      11.587   3.815  -0.767  0.00  0.00    +0.120 A 
BRANCH  32   3
ATOM      3  O   UNL     1      10.800   3.352  -1.776  0.00  0.00    -0.495 OA
ATOM     34  C   UNL     1      10.150   4.325  -2.592  0.00  0.00    +0.277 C 
ENDBRANCH  32   3
ENDBRANCH   6  24
ENDBRANCH  15   4
ENDBRANCH   9  15
BRANCH  11  16
ATOM     16  C   UNL     1      12.287   9.448   5.831  0.00  0.00    +0.103 C 
BRANCH  16  20
ATOM      1  O   UNL     1      10.587   9.549   7.551  0.00  0.00    -0.276 OA
ATOM      5  N   UNL     1      10.330   8.076   5.771  0.00  0.00    -0.311 N 
ATOM     20  C   UNL     1      10.988   9.055   6.500  0.00  0.00    +0.214 C 
ATOM     36  H   UNL     1      10.741   7.731   4.909  0.00  0.00    +0.149 HD
BRANCH   5  22
ATOM     22  C   UNL     1       9.063   7.510   6.175  0.00  0.00    +0.141 C 
BRANCH  22  23
ATOM      7  N   UNL     1       9.085   5.545   9.405  0.00  0.00    -0.263 NA
ATOM     23  C   UNL     1       9.237   6.373   7.139  0.00  0.00    -0.012 A 
ATOM     25  C   UNL     1       9.697   5.133   6.709  0.00  0.00    +0.008 A 
ATOM     26  C   UNL     1       8.949   6.526   8.486  0.00  0.00    +0.115 A 
ATOM     29  C   UNL     1       9.850   4.098   7.625  0.00  0.00    +0.020 A 
ATOM     33  C   UNL     1       9.534   4.353   8.950  0.00  0.00    +0.111 A 
ENDBRANCH  22  23
ENDBRANCH   5  22
ENDBRANCH  16  20
ENDBRANCH  11  16
TORSDOF 9
ENDMDL
MODEL 8
REMARK VINA RESULT:      -6.4      3.177      9.816
REMARK  Name = 38028470
REMARK  13 active torsions:
REMARK  status: ('A' for Active; 'I' for Inactive)
REMARK    1  A    between atoms: O_3  and  C_32
REMARK    2  A    between atoms: O_3  and  C_34
REMARK    3  A    between atoms: N_4  and  C_15
REMARK    4  A    between atoms: N_5  and  C_22
REMARK    5  A    between atoms: N_6  and  C_24
REMARK    6  A    between atoms: C_8  and  C_12
REMARK    7  A    between atoms: C_9  and  C_15
REMARK    8  A    between atoms: C_11  and  C_16
REMARK    9  A    between atoms: C_12  and  C_17
REMARK   10  A    between atoms: C_12  and  C_18
REMARK   11  A    between atoms: C_13  and  C_19
REMARK   12  A    between atoms: C_16  and  C_20
REMARK   13  A    between atoms: C_22  and  C_23
REMARK                            x       y       z     vdW  Elec       q    Type
REMARK                         _______ _______ _______ _____ _____    ______ ____
ROOT
ATOM      8  C   UNL     1      -3.013 -12.690  12.266  0.00  0.00    +0.000 C 
ATOM      9  C   UNL     1      -1.964 -11.581  12.530  0.00  0.00    +0.032 C 
ATOM     10  C   UNL     1      -3.392 -12.728  10.777  0.00  0.00    +0.012 C 
ATOM     11  C   UNL     1      -3.968 -11.385  10.289  0.00  0.00    +0.023 C 
ATOM     13  C   UNL     1      -3.123 -10.212  10.744  0.00  0.00    -0.073 C 
ATOM     14  C   UNL     1      -2.224 -10.321  11.738  0.00  0.00    -0.022 C 
ATOM     19  C   UNL     1      -3.305  -8.918   9.999  0.00  0.00    +0.039 C 
ENDROOT
BRANCH   8  12
ATOM     12  C   UNL     1      -2.508 -14.068  12.706  0.00  0.00    -0.013 C 
ATOM     17  C   UNL     1      -3.296 -14.563  13.914  0.00  0.00    +0.007 C 
ATOM     18  C   UNL     1      -2.603 -15.063  11.554  0.00  0.00    +0.007 C 
ENDBRANCH   8  12
BRANCH   9  15
ATOM     15  C   UNL     1      -1.884 -11.240  14.021  0.00  0.00    +0.113 C 
BRANCH  15   4
ATOM      2  O   UNL     1      -3.979 -12.035  15.807  0.00  0.00    -0.253 OA
ATOM      4  N   UNL     1      -3.009 -10.454  14.424  0.00  0.00    -0.299 N 
ATOM      6  N   UNL     1      -4.974  -9.929  15.514  0.00  0.00    -0.269 N 
ATOM     21  C   UNL     1      -4.002 -10.912  15.308  0.00  0.00    +0.304 C 
ATOM     35  H   UNL     1      -3.063  -9.491  14.108  0.00  0.00    +0.150 HD
ATOM     37  H   UNL     1      -4.845  -9.049  15.020  0.00  0.00    +0.156 HD
BRANCH   6  24
ATOM     24  C   UNL     1      -6.126 -10.006  16.332  0.00  0.00    +0.035 A 
ATOM     27  C   UNL     1      -7.395  -9.927  15.757  0.00  0.00    +0.027 A 
ATOM     28  C   UNL     1      -5.994 -10.162  17.711  0.00  0.00    +0.027 A 
ATOM     30  C   UNL     1      -8.531 -10.004  16.561  0.00  0.00    +0.047 A 
ATOM     31  C   UNL     1      -7.132 -10.239  18.516  0.00  0.00    +0.047 A 
ATOM     32  C   UNL     1      -8.400 -10.161  17.941  0.00  0.00    +0.120 A 
BRANCH  32   3
ATOM      3  O   UNL     1      -9.509 -10.236  18.726  0.00  0.00    -0.495 OA
ATOM     34  C   UNL     1      -9.554 -11.289  19.687  0.00  0.00    +0.277 C 
ENDBRANCH  32   3
ENDBRANCH   6  24
ENDBRANCH  15   4
ENDBRANCH   9  15
BRANCH  11  16
ATOM     16  C   UNL     1      -5.425 -11.216  10.731  0.00  0.00    +0.103 C 
BRANCH  16  20
ATOM      1  O   UNL     1      -7.453 -11.852   9.574  0.00  0.00    -0.276 OA
ATOM      5  N   UNL     1      -5.886 -10.520   8.491  0.00  0.00    -0.311 N 
ATOM     20  C   UNL     1      -6.382 -11.250   9.561  0.00  0.00    +0.214 C 
ATOM     36  H   UNL     1      -4.989 -10.053   8.576  0.00  0.00    +0.149 HD
BRANCH   5  22
ATOM     22  C   UNL     1      -6.591 -10.380   7.237  0.00  0.00    +0.141 C 
BRANCH  22  23
ATOM      7  N   UNL     1      -5.849 -11.761   3.796  0.00  0.00    -0.263 NA
ATOM     23  C   UNL     1      -5.863 -11.045   6.106  0.00  0.00    -0.012 A 
ATOM     25  C   UNL     1      -4.583 -11.558   6.280  0.00  0.00    +0.008 A 
ATOM     26  C   UNL     1      -6.447 -11.172   4.855  0.00  0.00    +0.115 A 
ATOM     29  C   UNL     1      -3.933 -12.171   5.214  0.00  0.00    +0.020 A 
ATOM     33  C   UNL     1      -4.604 -12.247   4.003  0.00  0.00    +0.111 A 
ENDBRANCH  22  23
ENDBRANCH   5  22
ENDBRANCH  16  20
ENDBRANCH  11  16
TORSDOF 9
ENDMDL
MODEL 9
REMARK VINA RESULT:      -6.3      3.913      6.319
REMARK  Name = 38028470
REMARK  13 active torsions:
REMARK  status: ('A' for Active; 'I' for Inactive)
REMARK    1  A    between atoms: O_3  and  C_32
REMARK    2  A    between atoms: O_3  and  C_34
REMARK    3  A    between atoms: N_4  and  C_15
REMARK    4  A    between atoms: N_5  and  C_22
REMARK    5  A    between atoms: N_6  and  C_24
REMARK    6  A    between atoms: C_8  and  C_12
REMARK    7  A    between atoms: C_9  and  C_15
REMARK    8  A    between atoms: C_11  and  C_16
REMARK    9  A    between atoms: C_12  and  C_17
REMARK   10  A    between atoms: C_12  and  C_18
REMARK   11  A    between atoms: C_13  and  C_19
REMARK   12  A    between atoms: C_16  and  C_20
REMARK   13  A    between atoms: C_22  and  C_23
REMARK                            x       y       z     vdW  Elec       q    Type
REMARK                         _______ _______ _______ _____ _____    ______ ____
ROOT
ATOM      8  C   UNL     1      -7.317 -10.389  16.119  0.00  0.00    +0.000 C 
ATOM      9  C   UNL     1      -6.395 -10.082  14.912  0.00  0.00    +0.032 C 
ATOM     10  C   UNL     1      -6.671  -9.903  17.425  0.00  0.00    +0.012 C 
ATOM     11  C   UNL     1      -5.301 -10.561  17.678  0.00  0.00    +0.023 C 
ATOM     13  C   UNL     1      -4.428 -10.534  16.439  0.00  0.00    -0.073 C 
ATOM     14  C   UNL     1      -4.932 -10.306  15.214  0.00  0.00    -0.022 C 
ATOM     19  C   UNL     1      -2.952 -10.733  16.648  0.00  0.00    +0.039 C 
ENDROOT
BRANCH   8  12
ATOM     12  C   UNL     1      -8.700  -9.751  15.956  0.00  0.00    -0.013 C 
ATOM     17  C   UNL     1      -9.795 -10.793  16.156  0.00  0.00    +0.007 C 
ATOM     18  C   UNL     1      -8.870  -8.593  16.933  0.00  0.00    +0.007 C 
ENDBRANCH   8  12
BRANCH   9  15
ATOM     15  C   UNL     1      -6.796 -10.908  13.686  0.00  0.00    +0.113 C 
BRANCH  15   4
ATOM      2  O   UNL     1      -7.141 -11.813  10.990  0.00  0.00    -0.253 OA
ATOM      4  N   UNL     1      -5.969 -10.589  12.565  0.00  0.00    -0.299 N 
ATOM      6  N   UNL     1      -5.229 -10.594  10.378  0.00  0.00    -0.269 N 
ATOM     21  C   UNL     1      -6.200 -11.072  11.264  0.00  0.00    +0.304 C 
ATOM     35  H   UNL     1      -5.211  -9.926  12.697  0.00  0.00    +0.150 HD
ATOM     37  H   UNL     1      -4.513  -9.988  10.770  0.00  0.00    +0.156 HD
BRANCH   6  24
ATOM     24  C   UNL     1      -5.119 -10.853   8.991  0.00  0.00    +0.035 A 
ATOM     27  C   UNL     1      -5.644  -9.947   8.070  0.00  0.00    +0.027 A 
ATOM     28  C   UNL     1      -4.484 -12.012   8.546  0.00  0.00    +0.027 A 
ATOM     30  C   UNL     1      -5.535 -10.200   6.703  0.00  0.00    +0.047 A 
ATOM     31  C   UNL     1      -4.374 -12.265   7.178  0.00  0.00    +0.047 A 
ATOM     32  C   UNL     1      -4.899 -11.359   6.256  0.00  0.00    +0.120 A 
BRANCH  32   3
ATOM      3  O   UNL     1      -4.793 -11.607   4.923  0.00  0.00    -0.495 OA
ATOM     34  C   UNL     1      -6.007 -11.708   4.182  0.00  0.00    +0.277 C 
ENDBRANCH  32   3
ENDBRANCH   6  24
ENDBRANCH  15   4
ENDBRANCH   9  15
BRANCH  11  16
ATOM     16  C   UNL     1      -5.463 -11.990  18.204  0.00  0.00    +0.103 C 
BRANCH  16  20
ATOM      1  O   UNL     1      -6.233 -11.437  20.431  0.00  0.00    -0.276 OA
ATOM      5  N   UNL     1      -7.472 -12.905  19.122  0.00  0.00    -0.311 N 
ATOM     20  C   UNL     1      -6.406 -12.058  19.385  0.00  0.00    +0.214 C 
ATOM     36  H   UNL     1      -7.531 -13.374  18.224  0.00  0.00    +0.149 HD
BRANCH   5  22
ATOM     22  C   UNL     1      -8.529 -13.162  20.075  0.00  0.00    +0.141 C 
BRANCH  22  23
ATOM      7  N   UNL     1     -12.067 -12.246  19.104  0.00  0.00    -0.263 NA
ATOM     23  C   UNL     1      -9.751 -12.337  19.794  0.00  0.00    -0.012 A 
ATOM     25  C   UNL     1      -9.733 -10.955  19.942  0.00  0.00    +0.008 A 
ATOM     26  C   UNL     1     -10.933 -12.929  19.375  0.00  0.00    +0.115 A 
ATOM     29  C   UNL     1     -10.881 -10.217  19.673  0.00  0.00    +0.020 A 
ATOM     33  C   UNL     1     -12.011 -10.904  19.260  0.00  0.00    +0.111 A 
ENDBRANCH  22  23
ENDBRANCH   5  22
ENDBRANCH  16  20
ENDBRANCH  11  16
TORSDOF 9
ENDMDL
MODEL 10
REMARK VINA RESULT:      -6.3     23.757     27.387
REMARK  Name = 38028470
REMARK  13 active torsions:
REMARK  status: ('A' for Active; 'I' for Inactive)
REMARK    1  A    between atoms: O_3  and  C_32
REMARK    2  A    between atoms: O_3  and  C_34
REMARK    3  A    between atoms: N_4  and  C_15
REMARK    4  A    between atoms: N_5  and  C_22
REMARK    5  A    between atoms: N_6  and  C_24
REMARK    6  A    between atoms: C_8  and  C_12
REMARK    7  A    between atoms: C_9  and  C_15
REMARK    8  A    between atoms: C_11  and  C_16
REMARK    9  A    between atoms: C_12  and  C_17
REMARK   10  A    between atoms: C_12  and  C_18
REMARK   11  A    between atoms: C_13  and  C_19
REMARK   12  A    between atoms: C_16  and  C_20
REMARK   13  A    between atoms: C_22  and  C_23
REMARK                            x       y       z     vdW  Elec       q    Type
REMARK                         _______ _______ _______ _____ _____    ______ ____
ROOT
ATOM      8  C   UNL     1       9.642   7.428   4.699  0.00  0.00    +0.000 C 
ATOM      9  C   UNL     1       9.908   6.152   5.535  0.00  0.00    +0.032 C 
ATOM     10  C   UNL     1       9.107   7.057   3.307  0.00  0.00    +0.012 C 
ATOM     11  C   UNL     1      10.086   6.158   2.528  0.00  0.00    +0.023 C 
ATOM     13  C   UNL     1      10.604   5.018   3.382  0.00  0.00    -0.073 C 
ATOM     14  C   UNL     1      10.504   5.026   4.723  0.00  0.00    -0.022 C 
ATOM     19  C   UNL     1      11.200   3.845   2.654  0.00  0.00    +0.039 C 
ENDROOT
BRANCH   8  12
ATOM     12  C   UNL     1       8.657   8.372   5.397  0.00  0.00    -0.013 C 
ATOM     17  C   UNL     1       9.390   9.586   5.959  0.00  0.00    +0.007 C 
ATOM     18  C   UNL     1       7.558   8.802   4.432  0.00  0.00    +0.007 C 
ENDBRANCH   8  12
BRANCH   9  15
ATOM     15  C   UNL     1      10.816   6.455   6.732  0.00  0.00    +0.113 C 
BRANCH  15   4
ATOM      2  O   UNL     1      12.636   8.491   5.864  0.00  0.00    -0.253 OA
ATOM      4  N   UNL     1      12.192   6.280   6.383  0.00  0.00    -0.299 N 
ATOM      6  N   UNL     1      14.316   6.860   5.691  0.00  0.00    -0.269 N 
ATOM     21  C   UNL     1      13.028   7.330   5.964  0.00  0.00    +0.304 C 
ATOM     35  H   UNL     1      12.608   5.362   6.506  0.00  0.00    +0.150 HD
ATOM     37  H   UNL     1      14.475   5.865   5.823  0.00  0.00    +0.156 HD
BRANCH   6  24
ATOM     24  C   UNL     1      15.435   7.604   5.249  0.00  0.00    +0.035 A 
ATOM     27  C   UNL     1      15.840   7.527   3.916  0.00  0.00    +0.027 A 
ATOM     28  C   UNL     1      16.133   8.414   6.144  0.00  0.00    +0.027 A 
ATOM     30  C   UNL     1      16.943   8.260   3.479  0.00  0.00    +0.047 A 
ATOM     31  C   UNL     1      17.236   9.149   5.706  0.00  0.00    +0.047 A 
ATOM     32  C   UNL     1      17.641   9.071   4.373  0.00  0.00    +0.120 A 
BRANCH  32   3
ATOM      3  O   UNL     1      18.717   9.787   3.946  0.00  0.00    -0.495 OA
ATOM     34  C   UNL     1      19.829   9.879   4.835  0.00  0.00    +0.277 C 
ENDBRANCH  32   3
ENDBRANCH   6  24
ENDBRANCH  15   4
ENDBRANCH   9  15
BRANCH  11  16
ATOM     16  C   UNL     1      11.243   6.976   1.946  0.00  0.00    +0.103 C 
BRANCH  16  20
ATOM      1  O   UNL     1      10.490   7.566  -0.277  0.00  0.00    -0.276 OA
ATOM      5  N   UNL     1      12.268   6.091  -0.024  0.00  0.00    -0.311 N 
ATOM     20  C   UNL     1      11.265   6.933   0.434  0.00  0.00    +0.214 C 
ATOM     36  H   UNL     1      12.863   5.611   0.643  0.00  0.00    +0.149 HD
BRANCH   5  22
ATOM     22  C   UNL     1      12.520   5.856  -1.428  0.00  0.00    +0.141 C 
BRANCH  22  23
ATOM      7  N   UNL     1       9.977   3.345  -2.664  0.00  0.00    -0.263 NA
ATOM     23  C   UNL     1      11.921   4.563  -1.899  0.00  0.00    -0.012 A 
ATOM     25  C   UNL     1      12.693   3.413  -2.007  0.00  0.00    +0.008 A 
ATOM     26  C   UNL     1      10.579   4.477  -2.236  0.00  0.00    +0.115 A 
ATOM     29  C   UNL     1      12.110   2.228  -2.444  0.00  0.00    +0.020 A 
ATOM     33  C   UNL     1      10.760   2.247  -2.757  0.00  0.00    +0.111 A 
ENDBRANCH  22  23
ENDBRANCH   5  22
ENDBRANCH  16  20
ENDBRANCH  11  16
TORSDOF 9
ENDMDL
