MODEL 1
REMARK VINA RESULT:      -8.1      0.000      0.000
REMARK  Name = 11879569
REMARK  9 active torsions:
REMARK  status: ('A' for Active; 'I' for Inactive)
REMARK    1  A    between atoms: O_6  and  C_21
REMARK    2  A    between atoms: O_6  and  C_24
REMARK    3  A    between atoms: N_8  and  C_17
REMARK    4  A    between atoms: N_9  and  C_18
REMARK    5  A    between atoms: N_13  and  C_23
REMARK    6  A    between atoms: N_14  and  C_29
REMARK    7  A    between atoms: N_14  and  C_36
REMARK    8  A    between atoms: N_14  and  C_37
REMARK    9  A    between atoms: C_30  and  C_35
REMARK                            x       y       z     vdW  Elec       q    Type
REMARK                         _______ _______ _______ _____ _____    ______ ____
ROOT
ATOM      4  O   UNL     1      15.495   6.655  21.407  0.00  0.00    -0.370 OA
ATOM      5  O   UNL     1      17.393   9.044  20.642  0.00  0.00    -0.370 OA
ATOM     15  C   UNL     1      16.588   8.125  19.881  0.00  0.00    +0.176 C 
ATOM     16  C   UNL     1      16.661   6.780  20.579  0.00  0.00    +0.172 C 
ATOM     17  C   UNL     1      15.127   8.524  19.967  0.00  0.00    +0.171 C 
ATOM     18  C   UNL     1      17.904   6.871  21.435  0.00  0.00    +0.131 C 
ATOM     19  C   UNL     1      14.646   7.795  21.217  0.00  0.00    +0.190 C 
ATOM     20  C   UNL     1      17.966   8.352  21.760  0.00  0.00    +0.185 C 
ENDROOT
BRANCH  18   9
ATOM      7  O   UNL     1      20.399   6.006  22.546  0.00  0.00    -0.252 OA
ATOM      9  N   UNL     1      19.074   6.448  20.703  0.00  0.00    -0.292 N 
ATOM     13  N   UNL     1      21.216   5.688  20.368  0.00  0.00    -0.269 N 
ATOM     22  C   UNL     1      20.259   6.038  21.326  0.00  0.00    +0.304 C 
ATOM     38  H   UNL     1      19.015   6.383  19.691  0.00  0.00    +0.151 HD
ATOM     39  H   UNL     1      20.938   5.774  19.393  0.00  0.00    +0.156 HD
BRANCH  13  23
ATOM     23  C   UNL     1      22.534   5.225  20.587  0.00  0.00    +0.035 A 
ATOM     26  C   UNL     1      22.765   3.873  20.845  0.00  0.00    +0.035 A 
ATOM     27  C   UNL     1      23.604   6.118  20.544  0.00  0.00    +0.023 A 
ATOM     30  C   UNL     1      24.065   3.416  21.061  0.00  0.00    +0.057 A 
ATOM     32  C   UNL     1      24.904   5.662  20.759  0.00  0.00    +0.002 A 
ATOM     34  C   UNL     1      25.135   4.311  21.018  0.00  0.00    +0.012 A 
BRANCH  30  35
ATOM      1  F   UNL     1      23.587   1.131  20.543  0.00  0.00    -0.166 F 
ATOM      2  F   UNL     1      25.613   1.595  21.161  0.00  0.00    -0.166 F 
ATOM      3  F   UNL     1      24.001   1.622  22.620  0.00  0.00    -0.166 F 
ATOM     35  C   UNL     1      24.312   1.972  21.338  0.00  0.00    +0.417 C 
ENDBRANCH  30  35
ENDBRANCH  13  23
ENDBRANCH  18   9
BRANCH  17   8
ATOM      8  N   UNL     1      14.386   8.213  18.743  0.00  0.00    -0.187 N 
ATOM     10  N   UNL     1      14.799   7.247  17.909  0.00  0.00    -0.041 NA
ATOM     11  N   UNL     1      12.935   8.193  17.131  0.00  0.00    -0.071 NA
ATOM     12  N   UNL     1      13.907   7.241  16.925  0.00  0.00    -0.020 NA
ATOM     21  C   UNL     1      13.250   8.782  18.262  0.00  0.00    +0.342 A 
BRANCH  21   6
ATOM      6  O   UNL     1      12.593   9.764  18.850  0.00  0.00    -0.423 OA
BRANCH   6  24
ATOM     24  C   UNL     1      11.913   9.596  20.048  0.00  0.00    +0.134 A 
ATOM     25  C   UNL     1      11.926  10.608  21.007  0.00  0.00    +0.069 A 
ATOM     28  C   UNL     1      11.216   8.412  20.293  0.00  0.00    +0.046 A 
ATOM     29  C   UNL     1      11.243  10.437  22.211  0.00  0.00    +0.033 A 
ATOM     31  C   UNL     1      10.531   8.242  21.496  0.00  0.00    +0.005 A 
ATOM     33  C   UNL     1      10.545   9.255  22.455  0.00  0.00    +0.023 A 
BRANCH  29  14
ATOM     14  N   UNL     1      11.256  11.461  23.181  0.00  0.00    -0.336 N 
ATOM     36  C   UNL     1      11.059  11.148  24.582  0.00  0.00    +0.129 C 
ATOM     37  C   UNL     1      11.481  12.839  22.791  0.00  0.00    +0.129 C 
ENDBRANCH  29  14
ENDBRANCH   6  24
ENDBRANCH  21   6
ENDBRANCH  17   8
TORSDOF 7
ENDMDL
MODEL 2
REMARK VINA RESULT:      -7.9      3.308      5.277
REMARK  Name = 11879569
REMARK  9 active torsions:
REMARK  status: ('A' for Active; 'I' for Inactive)
REMARK    1  A    between atoms: O_6  and  C_21
REMARK    2  A    between atoms: O_6  and  C_24
REMARK    3  A    between atoms: N_8  and  C_17
REMARK    4  A    between atoms: N_9  and  C_18
REMARK    5  A    between atoms: N_13  and  C_23
REMARK    6  A    between atoms: N_14  and  C_29
REMARK    7  A    between atoms: N_14  and  C_36
REMARK    8  A    between atoms: N_14  and  C_37
REMARK    9  A    between atoms: C_30  and  C_35
REMARK                            x       y       z     vdW  Elec       q    Type
REMARK                         _______ _______ _______ _____ _____    ______ ____
ROOT
ATOM      4  O   UNL     1      12.850   6.601  19.800  0.00  0.00    -0.370 OA
ATOM      5  O   UNL     1      14.799   9.053  20.078  0.00  0.00    -0.370 OA
ATOM     15  C   UNL     1      14.219   8.362  18.957  0.00  0.00    +0.176 C 
ATOM     16  C   UNL     1      14.171   6.889  19.315  0.00  0.00    +0.172 C 
ATOM     17  C   UNL     1      12.766   8.766  18.797  0.00  0.00    +0.171 C 
ATOM     18  C   UNL     1      15.182   6.743  20.430  0.00  0.00    +0.131 C 
ATOM     19  C   UNL     1      12.033   7.775  19.694  0.00  0.00    +0.190 C 
ATOM     20  C   UNL     1      15.122   8.102  21.101  0.00  0.00    +0.185 C 
ENDROOT
BRANCH  18   9
ATOM      7  O   UNL     1      17.623   6.624  21.925  0.00  0.00    -0.252 OA
ATOM      9  N   UNL     1      16.500   6.475  19.909  0.00  0.00    -0.292 N 
ATOM     13  N   UNL     1      18.775   6.155  19.933  0.00  0.00    -0.269 N 
ATOM     22  C   UNL     1      17.647   6.435  20.711  0.00  0.00    +0.304 C 
ATOM     38  H   UNL     1      16.593   6.242  18.925  0.00  0.00    +0.151 HD
ATOM     39  H   UNL     1      18.621   6.026  18.936  0.00  0.00    +0.156 HD
BRANCH  13  23
ATOM     23  C   UNL     1      20.116   6.029  20.364  0.00  0.00    +0.035 A 
ATOM     26  C   UNL     1      20.628   4.775  20.695  0.00  0.00    +0.035 A 
ATOM     27  C   UNL     1      20.928   7.159  20.456  0.00  0.00    +0.023 A 
ATOM     30  C   UNL     1      21.951   4.651  21.120  0.00  0.00    +0.057 A 
ATOM     32  C   UNL     1      22.251   7.036  20.880  0.00  0.00    +0.002 A 
ATOM     34  C   UNL     1      22.762   5.781  21.212  0.00  0.00    +0.012 A 
BRANCH  30  35
ATOM      1  F   UNL     1      22.079   2.310  20.643  0.00  0.00    -0.166 F 
ATOM      2  F   UNL     1      23.862   3.249  21.445  0.00  0.00    -0.166 F 
ATOM      3  F   UNL     1      22.142   2.913  22.732  0.00  0.00    -0.166 F 
ATOM     35  C   UNL     1      22.497   3.310  21.475  0.00  0.00    +0.417 C 
ENDBRANCH  30  35
ENDBRANCH  13  23
ENDBRANCH  18   9
BRANCH  17   8
ATOM      8  N   UNL     1      12.334   8.773  17.397  0.00  0.00    -0.187 N 
ATOM     10  N   UNL     1      11.082   8.436  17.056  0.00  0.00    -0.041 NA
ATOM     11  N   UNL     1      12.262   8.957  15.237  0.00  0.00    -0.071 NA
ATOM     12  N   UNL     1      11.044   8.551  15.734  0.00  0.00    -0.020 NA
ATOM     21  C   UNL     1      13.045   9.089  16.283  0.00  0.00    +0.342 A 
BRANCH  21   6
ATOM      6  O   UNL     1      14.310   9.462  16.279  0.00  0.00    -0.423 OA
BRANCH   6  24
ATOM     24  C   UNL     1      14.718  10.719  15.853  0.00  0.00    +0.134 A 
ATOM     25  C   UNL     1      15.541  10.844  14.735  0.00  0.00    +0.069 A 
ATOM     28  C   UNL     1      14.302  11.858  16.545  0.00  0.00    +0.046 A 
ATOM     29  C   UNL     1      15.950  12.108  14.308  0.00  0.00    +0.033 A 
ATOM     31  C   UNL     1      14.710  13.121  16.117  0.00  0.00    +0.005 A 
ATOM     33  C   UNL     1      15.534  13.246  14.999  0.00  0.00    +0.023 A 
BRANCH  29  14
ATOM     14  N   UNL     1      16.783  12.236  13.177  0.00  0.00    -0.336 N 
ATOM     36  C   UNL     1      18.203  12.478  13.334  0.00  0.00    +0.129 C 
ATOM     37  C   UNL     1      16.232  12.112  11.842  0.00  0.00    +0.129 C 
ENDBRANCH  29  14
ENDBRANCH   6  24
ENDBRANCH  21   6
ENDBRANCH  17   8
TORSDOF 7
ENDMDL
MODEL 3
REMARK VINA RESULT:      -7.7      4.811     11.862
REMARK  Name = 11879569
REMARK  9 active torsions:
REMARK  status: ('A' for Active; 'I' for Inactive)
REMARK    1  A    between atoms: O_6  and  C_21
REMARK    2  A    between atoms: O_6  and  C_24
REMARK    3  A    between atoms: N_8  and  C_17
REMARK    4  A    between atoms: N_9  and  C_18
REMARK    5  A    between atoms: N_13  and  C_23
REMARK    6  A    between atoms: N_14  and  C_29
REMARK    7  A    between atoms: N_14  and  C_36
REMARK    8  A    between atoms: N_14  and  C_37
REMARK    9  A    between atoms: C_30  and  C_35
REMARK                            x       y       z     vdW  Elec       q    Type
REMARK                         _______ _______ _______ _____ _____    ______ ____
ROOT
ATOM      4  O   UNL     1      22.316   7.662  21.013  0.00  0.00    -0.370 OA
ATOM      5  O   UNL     1      20.799   5.532  22.759  0.00  0.00    -0.370 OA
ATOM     15  C   UNL     1      21.557   5.464  21.537  0.00  0.00    +0.176 C 
ATOM     16  C   UNL     1      21.257   6.728  20.754  0.00  0.00    +0.172 C 
ATOM     17  C   UNL     1      23.039   5.545  21.845  0.00  0.00    +0.171 C 
ATOM     18  C   UNL     1      19.958   7.231  21.340  0.00  0.00    +0.131 C 
ATOM     19  C   UNL     1      23.309   7.046  21.843  0.00  0.00    +0.190 C 
ATOM     20  C   UNL     1      20.043   6.751  22.777  0.00  0.00    +0.185 C 
ENDROOT
BRANCH  18   9
ATOM      7  O   UNL     1      17.394   8.452  20.955  0.00  0.00    -0.252 OA
ATOM      9  N   UNL     1      18.821   6.656  20.663  0.00  0.00    -0.292 N 
ATOM     13  N   UNL     1      16.687   6.522  19.822  0.00  0.00    -0.269 N 
ATOM     22  C   UNL     1      17.598   7.322  20.518  0.00  0.00    +0.304 C 
ATOM     38  H   UNL     1      18.932   5.751  20.215  0.00  0.00    +0.151 HD
ATOM     39  H   UNL     1      17.017   5.605  19.529  0.00  0.00    +0.156 HD
BRANCH  13  23
ATOM     23  C   UNL     1      15.352   6.830  19.472  0.00  0.00    +0.035 A 
ATOM     26  C   UNL     1      14.342   6.747  20.431  0.00  0.00    +0.035 A 
ATOM     27  C   UNL     1      15.045   7.219  18.169  0.00  0.00    +0.023 A 
ATOM     30  C   UNL     1      13.025   7.051  20.085  0.00  0.00    +0.057 A 
ATOM     32  C   UNL     1      13.729   7.524  17.823  0.00  0.00    +0.002 A 
ATOM     34  C   UNL     1      12.719   7.440  18.781  0.00  0.00    +0.012 A 
BRANCH  30  35
ATOM      1  F   UNL     1      12.208   7.675  22.245  0.00  0.00    -0.166 F 
ATOM      2  F   UNL     1      10.736   7.421  20.672  0.00  0.00    -0.166 F 
ATOM      3  F   UNL     1      11.721   5.681  21.526  0.00  0.00    -0.166 F 
ATOM     35  C   UNL     1      11.946   6.961  21.110  0.00  0.00    +0.417 C 
ENDBRANCH  30  35
ENDBRANCH  13  23
ENDBRANCH  18   9
BRANCH  17   8
ATOM      8  N   UNL     1      23.852   4.767  20.907  0.00  0.00    -0.187 N 
ATOM     10  N   UNL     1      24.723   5.367  20.082  0.00  0.00    -0.041 NA
ATOM     11  N   UNL     1      24.757   3.159  19.767  0.00  0.00    -0.071 NA
ATOM     12  N   UNL     1      25.273   4.378  19.388  0.00  0.00    -0.020 NA
ATOM     21  C   UNL     1      23.880   3.423  20.709  0.00  0.00    +0.342 A 
BRANCH  21   6
ATOM      6  O   UNL     1      23.139   2.550  21.364  0.00  0.00    -0.423 OA
BRANCH   6  24
ATOM     24  C   UNL     1      23.544   1.974  22.560  0.00  0.00    +0.134 A 
ATOM     25  C   UNL     1      24.546   1.005  22.564  0.00  0.00    +0.069 A 
ATOM     28  C   UNL     1      22.947   2.367  23.759  0.00  0.00    +0.046 A 
ATOM     29  C   UNL     1      24.953   0.427  23.767  0.00  0.00    +0.033 A 
ATOM     31  C   UNL     1      23.354   1.789  24.962  0.00  0.00    +0.005 A 
ATOM     33  C   UNL     1      24.357   0.819  24.966  0.00  0.00    +0.023 A 
BRANCH  29  14
ATOM     14  N   UNL     1      25.966  -0.554  23.772  0.00  0.00    -0.336 N 
ATOM     36  C   UNL     1      26.061  -1.507  24.860  0.00  0.00    +0.129 C 
ATOM     37  C   UNL     1      26.918  -0.631  22.681  0.00  0.00    +0.129 C 
ENDBRANCH  29  14
ENDBRANCH   6  24
ENDBRANCH  21   6
ENDBRANCH  17   8
TORSDOF 7
ENDMDL
MODEL 4
REMARK VINA RESULT:      -7.6      2.714      4.391
REMARK  Name = 11879569
REMARK  9 active torsions:
REMARK  status: ('A' for Active; 'I' for Inactive)
REMARK    1  A    between atoms: O_6  and  C_21
REMARK    2  A    between atoms: O_6  and  C_24
REMARK    3  A    between atoms: N_8  and  C_17
REMARK    4  A    between atoms: N_9  and  C_18
REMARK    5  A    between atoms: N_13  and  C_23
REMARK    6  A    between atoms: N_14  and  C_29
REMARK    7  A    between atoms: N_14  and  C_36
REMARK    8  A    between atoms: N_14  and  C_37
REMARK    9  A    between atoms: C_30  and  C_35
REMARK                            x       y       z     vdW  Elec       q    Type
REMARK                         _______ _______ _______ _____ _____    ______ ____
ROOT
ATOM      4  O   UNL     1      14.500   6.920  21.480  0.00  0.00    -0.370 OA
ATOM      5  O   UNL     1      16.305   9.297  20.490  0.00  0.00    -0.370 OA
ATOM     15  C   UNL     1      15.500   8.309  19.821  0.00  0.00    +0.176 C 
ATOM     16  C   UNL     1      15.633   7.017  20.604  0.00  0.00    +0.172 C 
ATOM     17  C   UNL     1      14.033   8.677  19.933  0.00  0.00    +0.171 C 
ATOM     18  C   UNL     1      16.902   7.196  21.406  0.00  0.00    +0.131 C 
ATOM     19  C   UNL     1      13.614   8.023  21.246  0.00  0.00    +0.190 C 
ATOM     20  C   UNL     1      16.935   8.696  21.630  0.00  0.00    +0.185 C 
ENDROOT
BRANCH  18   9
ATOM      7  O   UNL     1      19.522   6.693  22.451  0.00  0.00    -0.252 OA
ATOM      9  N   UNL     1      18.057   6.753  20.663  0.00  0.00    -0.292 N 
ATOM     13  N   UNL     1      20.230   6.109  20.290  0.00  0.00    -0.269 N 
ATOM     22  C   UNL     1      19.307   6.530  21.252  0.00  0.00    +0.304 C 
ATOM     38  H   UNL     1      17.943   6.531  19.678  0.00  0.00    +0.151 HD
ATOM     39  H   UNL     1      19.889   6.025  19.336  0.00  0.00    +0.156 HD
BRANCH  13  23
ATOM     23  C   UNL     1      21.593   5.781  20.480  0.00  0.00    +0.035 A 
ATOM     26  C   UNL     1      21.972   4.452  20.668  0.00  0.00    +0.035 A 
ATOM     27  C   UNL     1      22.559   6.787  20.477  0.00  0.00    +0.023 A 
ATOM     30  C   UNL     1      23.316   4.129  20.855  0.00  0.00    +0.057 A 
ATOM     32  C   UNL     1      23.903   6.465  20.663  0.00  0.00    +0.002 A 
ATOM     34  C   UNL     1      24.281   5.136  20.853  0.00  0.00    +0.012 A 
BRANCH  30  35
ATOM      1  F   UNL     1      22.881   1.810  20.463  0.00  0.00    -0.166 F 
ATOM      2  F   UNL     1      24.961   2.417  20.564  0.00  0.00    -0.166 F 
ATOM      3  F   UNL     1      23.760   2.355  22.376  0.00  0.00    -0.166 F 
ATOM     35  C   UNL     1      23.721   2.709  21.058  0.00  0.00    +0.417 C 
ENDBRANCH  30  35
ENDBRANCH  13  23
ENDBRANCH  18   9
BRANCH  17   8
ATOM      8  N   UNL     1      13.258   8.266  18.760  0.00  0.00    -0.187 N 
ATOM     10  N   UNL     1      12.124   7.562  18.890  0.00  0.00    -0.041 NA
ATOM     11  N   UNL     1      12.552   7.944  16.735  0.00  0.00    -0.071 NA
ATOM     12  N   UNL     1      11.697   7.369  17.648  0.00  0.00    -0.020 NA
ATOM     21  C   UNL     1      13.510   8.494  17.445  0.00  0.00    +0.342 A 
BRANCH  21   6
ATOM      6  O   UNL     1      14.552   9.159  16.982  0.00  0.00    -0.423 OA
BRANCH   6  24
ATOM     24  C   UNL     1      14.470  10.481  16.566  0.00  0.00    +0.134 A 
ATOM     25  C   UNL     1      14.604  10.797  15.215  0.00  0.00    +0.069 A 
ATOM     28  C   UNL     1      14.254  11.494  17.502  0.00  0.00    +0.046 A 
ATOM     29  C   UNL     1      14.522  12.126  14.798  0.00  0.00    +0.033 A 
ATOM     31  C   UNL     1      14.172  12.822  17.085  0.00  0.00    +0.005 A 
ATOM     33  C   UNL     1      14.306  13.138  15.733  0.00  0.00    +0.023 A 
BRANCH  29  14
ATOM     14  N   UNL     1      14.657  12.447  13.431  0.00  0.00    -0.336 N 
ATOM     36  C   UNL     1      13.684  13.298  12.777  0.00  0.00    +0.129 C 
ATOM     37  C   UNL     1      15.779  11.939  12.667  0.00  0.00    +0.129 C 
ENDBRANCH  29  14
ENDBRANCH   6  24
ENDBRANCH  21   6
ENDBRANCH  17   8
TORSDOF 7
ENDMDL
MODEL 5
REMARK VINA RESULT:      -7.6      4.913     11.254
REMARK  Name = 11879569
REMARK  9 active torsions:
REMARK  status: ('A' for Active; 'I' for Inactive)
REMARK    1  A    between atoms: O_6  and  C_21
REMARK    2  A    between atoms: O_6  and  C_24
REMARK    3  A    between atoms: N_8  and  C_17
REMARK    4  A    between atoms: N_9  and  C_18
REMARK    5  A    between atoms: N_13  and  C_23
REMARK    6  A    between atoms: N_14  and  C_29
REMARK    7  A    between atoms: N_14  and  C_36
REMARK    8  A    between atoms: N_14  and  C_37
REMARK    9  A    between atoms: C_30  and  C_35
REMARK                            x       y       z     vdW  Elec       q    Type
REMARK                         _______ _______ _______ _____ _____    ______ ____
ROOT
ATOM      4  O   UNL     1      22.159   7.586  20.959  0.00  0.00    -0.370 OA
ATOM      5  O   UNL     1      20.762   5.781  23.123  0.00  0.00    -0.370 OA
ATOM     15  C   UNL     1      21.401   5.513  21.861  0.00  0.00    +0.176 C 
ATOM     16  C   UNL     1      21.059   6.663  20.933  0.00  0.00    +0.172 C 
ATOM     17  C   UNL     1      22.908   5.583  22.021  0.00  0.00    +0.171 C 
ATOM     18  C   UNL     1      19.832   7.291  21.554  0.00  0.00    +0.131 C 
ATOM     19  C   UNL     1      23.211   7.057  21.779  0.00  0.00    +0.190 C 
ATOM     20  C   UNL     1      20.039   7.016  23.031  0.00  0.00    +0.185 C 
ENDROOT
BRANCH  18   9
ATOM      7  O   UNL     1      17.391   8.609  20.836  0.00  0.00    -0.252 OA
ATOM      9  N   UNL     1      18.624   6.667  21.071  0.00  0.00    -0.292 N 
ATOM     13  N   UNL     1      16.463   6.519  20.304  0.00  0.00    -0.269 N 
ATOM     22  C   UNL     1      17.469   7.386  20.741  0.00  0.00    +0.304 C 
ATOM     38  H   UNL     1      18.632   5.665  20.900  0.00  0.00    +0.151 HD
ATOM     39  H   UNL     1      16.692   5.528  20.285  0.00  0.00    +0.156 HD
BRANCH  13  23
ATOM     23  C   UNL     1      15.156   6.850  19.881  0.00  0.00    +0.035 A 
ATOM     26  C   UNL     1      14.098   6.813  20.790  0.00  0.00    +0.035 A 
ATOM     27  C   UNL     1      14.922   7.216  18.556  0.00  0.00    +0.023 A 
ATOM     30  C   UNL     1      12.807   7.140  20.372  0.00  0.00    +0.057 A 
ATOM     32  C   UNL     1      13.633   7.544  18.138  0.00  0.00    +0.002 A 
ATOM     34  C   UNL     1      12.576   7.506  19.046  0.00  0.00    +0.012 A 
BRANCH  30  35
ATOM      1  F   UNL     1      11.419   5.850  21.831  0.00  0.00    -0.166 F 
ATOM      2  F   UNL     1      11.875   7.879  22.448  0.00  0.00    -0.166 F 
ATOM      3  F   UNL     1      10.501   7.530  20.799  0.00  0.00    -0.166 F 
ATOM     35  C   UNL     1      11.677   7.100  21.343  0.00  0.00    +0.417 C 
ENDBRANCH  30  35
ENDBRANCH  13  23
ENDBRANCH  18   9
BRANCH  17   8
ATOM      8  N   UNL     1      23.611   4.651  21.137  0.00  0.00    -0.187 N 
ATOM     10  N   UNL     1      24.437   5.095  20.177  0.00  0.00    -0.041 NA
ATOM     11  N   UNL     1      24.358   2.867  20.156  0.00  0.00    -0.071 NA
ATOM     12  N   UNL     1      24.890   3.999  19.582  0.00  0.00    -0.020 NA
ATOM     21  C   UNL     1      23.570   3.293  21.117  0.00  0.00    +0.342 A 
BRANCH  21   6
ATOM      6  O   UNL     1      22.850   2.550  21.935  0.00  0.00    -0.423 OA
BRANCH   6  24
ATOM     24  C   UNL     1      23.322   2.124  23.169  0.00  0.00    +0.134 A 
ATOM     25  C   UNL     1      22.985   2.824  24.326  0.00  0.00    +0.069 A 
ATOM     28  C   UNL     1      24.135   0.992  23.251  0.00  0.00    +0.046 A 
ATOM     29  C   UNL     1      23.460   2.395  25.565  0.00  0.00    +0.033 A 
ATOM     31  C   UNL     1      24.609   0.562  24.490  0.00  0.00    +0.005 A 
ATOM     33  C   UNL     1      24.272   1.264  25.647  0.00  0.00    +0.023 A 
BRANCH  29  14
ATOM     14  N   UNL     1      23.119   3.104  26.736  0.00  0.00    -0.336 N 
ATOM     36  C   UNL     1      23.419   2.553  28.042  0.00  0.00    +0.129 C 
ATOM     37  C   UNL     1      22.477   4.401  26.648  0.00  0.00    +0.129 C 
ENDBRANCH  29  14
ENDBRANCH   6  24
ENDBRANCH  21   6
ENDBRANCH  17   8
TORSDOF 7
ENDMDL
MODEL 6
REMARK VINA RESULT:      -7.6     18.181     21.590
REMARK  Name = 11879569
REMARK  9 active torsions:
REMARK  status: ('A' for Active; 'I' for Inactive)
REMARK    1  A    between atoms: O_6  and  C_21
REMARK    2  A    between atoms: O_6  and  C_24
REMARK    3  A    between atoms: N_8  and  C_17
REMARK    4  A    between atoms: N_9  and  C_18
REMARK    5  A    between atoms: N_13  and  C_23
REMARK    6  A    between atoms: N_14  and  C_29
REMARK    7  A    between atoms: N_14  and  C_36
REMARK    8  A    between atoms: N_14  and  C_37
REMARK    9  A    between atoms: C_30  and  C_35
REMARK                            x       y       z     vdW  Elec       q    Type
REMARK                         _______ _______ _______ _____ _____    ______ ____
ROOT
ATOM      4  O   UNL     1      12.399   5.535  -0.626  0.00  0.00    -0.370 OA
ATOM      5  O   UNL     1      13.135   2.820   0.780  0.00  0.00    -0.370 OA
ATOM     15  C   UNL     1      11.986   3.286   0.048  0.00  0.00    +0.176 C 
ATOM     16  C   UNL     1      11.789   4.746   0.407  0.00  0.00    +0.172 C 
ATOM     17  C   UNL     1      12.289   3.293  -1.438  0.00  0.00    +0.171 C 
ATOM     18  C   UNL     1      12.539   4.915   1.709  0.00  0.00    +0.131 C 
ATOM     19  C   UNL     1      12.898   4.674  -1.658  0.00  0.00    +0.190 C 
ATOM     20  C   UNL     1      13.654   3.894   1.575  0.00  0.00    +0.185 C 
ENDROOT
BRANCH  18   9
ATOM      7  O   UNL     1      11.722   6.743   3.758  0.00  0.00    -0.252 OA
ATOM      9  N   UNL     1      11.694   4.620   2.841  0.00  0.00    -0.292 N 
ATOM     13  N   UNL     1      10.518   5.004   4.777  0.00  0.00    -0.269 N 
ATOM     22  C   UNL     1      11.341   5.576   3.802  0.00  0.00    +0.304 C 
ATOM     38  H   UNL     1      11.284   3.694   2.911  0.00  0.00    +0.151 HD
ATOM     39  H   UNL     1      10.296   4.018   4.665  0.00  0.00    +0.156 HD
BRANCH  13  23
ATOM     23  C   UNL     1       9.950   5.631   5.910  0.00  0.00    +0.035 A 
ATOM     26  C   UNL     1       9.938   4.973   7.140  0.00  0.00    +0.035 A 
ATOM     27  C   UNL     1       9.404   6.910   5.799  0.00  0.00    +0.023 A 
ATOM     30  C   UNL     1       9.377   5.593   8.257  0.00  0.00    +0.057 A 
ATOM     32  C   UNL     1       8.845   7.530   6.915  0.00  0.00    +0.002 A 
ATOM     34  C   UNL     1       8.832   6.871   8.144  0.00  0.00    +0.012 A 
BRANCH  30  35
ATOM      1  F   UNL     1      10.477   5.118  10.327  0.00  0.00    -0.166 F 
ATOM      2  F   UNL     1       8.312   5.242  10.370  0.00  0.00    -0.166 F 
ATOM      3  F   UNL     1       9.282   3.532   9.440  0.00  0.00    -0.166 F 
ATOM     35  C   UNL     1       9.363   4.889   9.571  0.00  0.00    +0.417 C 
ENDBRANCH  30  35
ENDBRANCH  13  23
ENDBRANCH  18   9
BRANCH  17   8
ATOM      8  N   UNL     1      11.109   2.998  -2.255  0.00  0.00    -0.187 N 
ATOM     10  N   UNL     1      10.646   1.745  -2.376  0.00  0.00    -0.041 NA
ATOM     11  N   UNL     1       9.381   3.153  -3.555  0.00  0.00    -0.071 NA
ATOM     12  N   UNL     1       9.589   1.847  -3.172  0.00  0.00    -0.020 NA
ATOM     21  C   UNL     1      10.332   3.848  -2.975  0.00  0.00    +0.342 A 
BRANCH  21   6
ATOM      6  O   UNL     1      10.523   5.150  -3.062  0.00  0.00    -0.423 OA
BRANCH   6  24
ATOM     24  C   UNL     1       9.509   6.071  -2.838  0.00  0.00    +0.134 A 
ATOM     25  C   UNL     1       9.585   6.944  -1.754  0.00  0.00    +0.069 A 
ATOM     28  C   UNL     1       8.412   6.123  -3.700  0.00  0.00    +0.046 A 
ATOM     29  C   UNL     1       8.565   7.869  -1.530  0.00  0.00    +0.033 A 
ATOM     31  C   UNL     1       7.393   7.049  -3.476  0.00  0.00    +0.005 A 
ATOM     33  C   UNL     1       7.470   7.922  -2.391  0.00  0.00    +0.023 A 
BRANCH  29  14
ATOM     14  N   UNL     1       8.642   8.752  -0.432  0.00  0.00    -0.336 N 
ATOM     36  C   UNL     1       7.515   9.596  -0.088  0.00  0.00    +0.129 C 
ATOM     37  C   UNL     1       9.845   8.818   0.374  0.00  0.00    +0.129 C 
ENDBRANCH  29  14
ENDBRANCH   6  24
ENDBRANCH  21   6
ENDBRANCH  17   8
TORSDOF 7
ENDMDL
MODEL 7
REMARK VINA RESULT:      -7.5      2.724      3.938
REMARK  Name = 11879569
REMARK  9 active torsions:
REMARK  status: ('A' for Active; 'I' for Inactive)
REMARK    1  A    between atoms: O_6  and  C_21
REMARK    2  A    between atoms: O_6  and  C_24
REMARK    3  A    between atoms: N_8  and  C_17
REMARK    4  A    between atoms: N_9  and  C_18
REMARK    5  A    between atoms: N_13  and  C_23
REMARK    6  A    between atoms: N_14  and  C_29
REMARK    7  A    between atoms: N_14  and  C_36
REMARK    8  A    between atoms: N_14  and  C_37
REMARK    9  A    between atoms: C_30  and  C_35
REMARK                            x       y       z     vdW  Elec       q    Type
REMARK                         _______ _______ _______ _____ _____    ______ ____
ROOT
ATOM      4  O   UNL     1      13.487   6.710  20.805  0.00  0.00    -0.370 OA
ATOM      5  O   UNL     1      15.388   9.196  20.498  0.00  0.00    -0.370 OA
ATOM     15  C   UNL     1      14.672   8.365  19.566  0.00  0.00    +0.176 C 
ATOM     16  C   UNL     1      14.716   6.948  20.103  0.00  0.00    +0.172 C 
ATOM     17  C   UNL     1      13.201   8.733  19.570  0.00  0.00    +0.171 C 
ATOM     18  C   UNL     1      15.880   6.951  21.069  0.00  0.00    +0.131 C 
ATOM     19  C   UNL     1      12.631   7.854  20.678  0.00  0.00    +0.190 C 
ATOM     20  C   UNL     1      15.879   8.382  21.572  0.00  0.00    +0.185 C 
ENDROOT
BRANCH  18   9
ATOM      7  O   UNL     1      18.451   6.612  22.286  0.00  0.00    -0.252 OA
ATOM      9  N   UNL     1      17.117   6.633  20.398  0.00  0.00    -0.292 N 
ATOM     13  N   UNL     1      19.357   6.180  20.164  0.00  0.00    -0.269 N 
ATOM     22  C   UNL     1      18.336   6.484  21.070  0.00  0.00    +0.304 C 
ATOM     38  H   UNL     1      17.092   6.445  19.400  0.00  0.00    +0.151 HD
ATOM     39  H   UNL     1      19.092   6.110  19.184  0.00  0.00    +0.156 HD
BRANCH  13  23
ATOM     23  C   UNL     1      20.725   5.953  20.442  0.00  0.00    +0.035 A 
ATOM     26  C   UNL     1      21.153   4.691  20.855  0.00  0.00    +0.035 A 
ATOM     27  C   UNL     1      21.646   6.990  20.303  0.00  0.00    +0.023 A 
ATOM     30  C   UNL     1      22.503   4.468  21.130  0.00  0.00    +0.057 A 
ATOM     32  C   UNL     1      22.995   6.768  20.576  0.00  0.00    +0.002 A 
ATOM     34  C   UNL     1      23.424   5.507  20.990  0.00  0.00    +0.012 A 
BRANCH  30  35
ATOM      1  F   UNL     1      22.308   2.656  22.678  0.00  0.00    -0.166 F 
ATOM      2  F   UNL     1      22.794   2.148  20.627  0.00  0.00    -0.166 F 
ATOM      3  F   UNL     1      24.287   3.094  21.892  0.00  0.00    -0.166 F 
ATOM     35  C   UNL     1      22.961   3.120  21.572  0.00  0.00    +0.417 C 
ENDBRANCH  30  35
ENDBRANCH  13  23
ENDBRANCH  18   9
BRANCH  17   8
ATOM      8  N   UNL     1      12.574   8.562  18.258  0.00  0.00    -0.187 N 
ATOM     10  N   UNL     1      11.329   8.077  18.142  0.00  0.00    -0.041 NA
ATOM     11  N   UNL     1      12.171   8.527  16.127  0.00  0.00    -0.071 NA
ATOM     12  N   UNL     1      11.089   8.058  16.837  0.00  0.00    -0.020 NA
ATOM     21  C   UNL     1      13.078   8.834  17.026  0.00  0.00    +0.342 A 
BRANCH  21   6
ATOM      6  O   UNL     1      14.282   9.323  16.797  0.00  0.00    -0.423 OA
BRANCH   6  24
ATOM     24  C   UNL     1      14.493  10.639  16.407  0.00  0.00    +0.134 A 
ATOM     25  C   UNL     1      14.278  11.678  17.310  0.00  0.00    +0.069 A 
ATOM     28  C   UNL     1      14.920  10.920  15.108  0.00  0.00    +0.046 A 
ATOM     29  C   UNL     1      14.491  13.000  16.917  0.00  0.00    +0.033 A 
ATOM     31  C   UNL     1      15.133  12.241  14.715  0.00  0.00    +0.005 A 
ATOM     33  C   UNL     1      14.918  13.281  15.620  0.00  0.00    +0.023 A 
BRANCH  29  14
ATOM     14  N   UNL     1      14.273  14.052  17.831  0.00  0.00    -0.336 N 
ATOM     36  C   UNL     1      15.234  15.130  17.952  0.00  0.00    +0.129 C 
ATOM     37  C   UNL     1      13.079  14.076  18.652  0.00  0.00    +0.129 C 
ENDBRANCH  29  14
ENDBRANCH   6  24
ENDBRANCH  21   6
ENDBRANCH  17   8
TORSDOF 7
ENDMDL
MODEL 8
REMARK VINA RESULT:      -7.5      3.799      5.760
REMARK  Name = 11879569
REMARK  9 active torsions:
REMARK  status: ('A' for Active; 'I' for Inactive)
REMARK    1  A    between atoms: O_6  and  C_21
REMARK    2  A    between atoms: O_6  and  C_24
REMARK    3  A    between atoms: N_8  and  C_17
REMARK    4  A    between atoms: N_9  and  C_18
REMARK    5  A    between atoms: N_13  and  C_23
REMARK    6  A    between atoms: N_14  and  C_29
REMARK    7  A    between atoms: N_14  and  C_36
REMARK    8  A    between atoms: N_14  and  C_37
REMARK    9  A    between atoms: C_30  and  C_35
REMARK                            x       y       z     vdW  Elec       q    Type
REMARK                         _______ _______ _______ _____ _____    ______ ____
ROOT
ATOM      4  O   UNL     1      12.760   6.633  19.761  0.00  0.00    -0.370 OA
ATOM      5  O   UNL     1      14.693   9.094  20.070  0.00  0.00    -0.370 OA
ATOM     15  C   UNL     1      14.108   8.420  18.941  0.00  0.00    +0.176 C 
ATOM     16  C   UNL     1      14.074   6.940  19.272  0.00  0.00    +0.172 C 
ATOM     17  C   UNL     1      12.651   8.816  18.801  0.00  0.00    +0.171 C 
ATOM     18  C   UNL     1      15.096   6.780  20.375  0.00  0.00    +0.131 C 
ATOM     19  C   UNL     1      11.933   7.802  19.686  0.00  0.00    +0.190 C 
ATOM     20  C   UNL     1      15.032   8.126  21.073  0.00  0.00    +0.185 C 
ENDROOT
BRANCH  18   9
ATOM      7  O   UNL     1      17.503   6.348  21.868  0.00  0.00    -0.252 OA
ATOM      9  N   UNL     1      16.412   6.533  19.837  0.00  0.00    -0.292 N 
ATOM     13  N   UNL     1      18.671   6.116  19.844  0.00  0.00    -0.269 N 
ATOM     22  C   UNL     1      17.541   6.331  20.640  0.00  0.00    +0.304 C 
ATOM     38  H   UNL     1      16.513   6.437  18.831  0.00  0.00    +0.151 HD
ATOM     39  H   UNL     1      18.530   6.135  18.837  0.00  0.00    +0.156 HD
BRANCH  13  23
ATOM     23  C   UNL     1      19.997   5.873  20.270  0.00  0.00    +0.035 A 
ATOM     26  C   UNL     1      20.865   6.943  20.495  0.00  0.00    +0.035 A 
ATOM     27  C   UNL     1      20.439   4.565  20.466  0.00  0.00    +0.023 A 
ATOM     30  C   UNL     1      22.174   6.703  20.914  0.00  0.00    +0.057 A 
ATOM     32  C   UNL     1      21.747   4.325  20.886  0.00  0.00    +0.002 A 
ATOM     34  C   UNL     1      22.614   5.394  21.111  0.00  0.00    +0.012 A 
BRANCH  30  35
ATOM      1  F   UNL     1      23.165   8.727  20.112  0.00  0.00    -0.166 F 
ATOM      2  F   UNL     1      22.767   8.603  22.241  0.00  0.00    -0.166 F 
ATOM      3  F   UNL     1      24.387   7.442  21.371  0.00  0.00    -0.166 F 
ATOM     35  C   UNL     1      23.101   7.845  21.154  0.00  0.00    +0.417 C 
ENDBRANCH  30  35
ENDBRANCH  13  23
ENDBRANCH  18   9
BRANCH  17   8
ATOM      8  N   UNL     1      12.208   8.847  17.405  0.00  0.00    -0.187 N 
ATOM     10  N   UNL     1      10.938   8.566  17.076  0.00  0.00    -0.041 NA
ATOM     11  N   UNL     1      12.124   9.041  15.247  0.00  0.00    -0.071 NA
ATOM     12  N   UNL     1      10.894   8.687  15.754  0.00  0.00    -0.020 NA
ATOM     21  C   UNL     1      12.922   9.135  16.287  0.00  0.00    +0.342 A 
BRANCH  21   6
ATOM      6  O   UNL     1      14.202   9.452  16.272  0.00  0.00    -0.423 OA
BRANCH   6  24
ATOM     24  C   UNL     1      14.659  10.700  15.871  0.00  0.00    +0.134 A 
ATOM     25  C   UNL     1      15.468  10.819  14.742  0.00  0.00    +0.069 A 
ATOM     28  C   UNL     1      14.306  11.838  16.600  0.00  0.00    +0.046 A 
ATOM     29  C   UNL     1      15.926  12.074  14.341  0.00  0.00    +0.033 A 
ATOM     31  C   UNL     1      14.764  13.092  16.198  0.00  0.00    +0.005 A 
ATOM     33  C   UNL     1      15.574  13.210  15.068  0.00  0.00    +0.023 A 
BRANCH  29  14
ATOM     14  N   UNL     1      16.745  12.194  13.199  0.00  0.00    -0.336 N 
ATOM     36  C   UNL     1      16.169  12.125  11.871  0.00  0.00    +0.129 C 
ATOM     37  C   UNL     1      18.173  12.402  13.339  0.00  0.00    +0.129 C 
ENDBRANCH  29  14
ENDBRANCH   6  24
ENDBRANCH  21   6
ENDBRANCH  17   8
TORSDOF 7
ENDMDL
MODEL 9
REMARK VINA RESULT:      -7.4     15.349     18.503
REMARK  Name = 11879569
REMARK  9 active torsions:
REMARK  status: ('A' for Active; 'I' for Inactive)
REMARK    1  A    between atoms: O_6  and  C_21
REMARK    2  A    between atoms: O_6  and  C_24
REMARK    3  A    between atoms: N_8  and  C_17
REMARK    4  A    between atoms: N_9  and  C_18
REMARK    5  A    between atoms: N_13  and  C_23
REMARK    6  A    between atoms: N_14  and  C_29
REMARK    7  A    between atoms: N_14  and  C_36
REMARK    8  A    between atoms: N_14  and  C_37
REMARK    9  A    between atoms: C_30  and  C_35
REMARK                            x       y       z     vdW  Elec       q    Type
REMARK                         _______ _______ _______ _____ _____    ______ ____
ROOT
ATOM      4  O   UNL     1       8.616   7.356   6.541  0.00  0.00    -0.370 OA
ATOM      5  O   UNL     1      10.863   5.659   7.941  0.00  0.00    -0.370 OA
ATOM     15  C   UNL     1      10.875   6.795   7.058  0.00  0.00    +0.176 C 
ATOM     16  C   UNL     1       9.743   6.603   6.067  0.00  0.00    +0.172 C 
ATOM     17  C   UNL     1      10.505   8.050   7.825  0.00  0.00    +0.171 C 
ATOM     18  C   UNL     1       9.445   5.122   6.123  0.00  0.00    +0.131 C 
ATOM     19  C   UNL     1       8.984   8.079   7.724  0.00  0.00    +0.190 C 
ATOM     20  C   UNL     1       9.804   4.773   7.555  0.00  0.00    +0.185 C 
ENDROOT
BRANCH  18   9
ATOM      7  O   UNL     1      10.177   5.944   3.477  0.00  0.00    -0.252 OA
ATOM      9  N   UNL     1      10.263   4.389   5.186  0.00  0.00    -0.292 N 
ATOM     13  N   UNL     1      11.379   3.942   3.228  0.00  0.00    -0.269 N 
ATOM     22  C   UNL     1      10.574   4.864   3.907  0.00  0.00    +0.304 C 
ATOM     38  H   UNL     1      10.685   3.517   5.492  0.00  0.00    +0.151 HD
ATOM     39  H   UNL     1      11.619   3.091   3.729  0.00  0.00    +0.156 HD
BRANCH  13  23
ATOM     23  C   UNL     1      11.905   4.048   1.920  0.00  0.00    +0.035 A 
ATOM     26  C   UNL     1      13.285   4.118   1.727  0.00  0.00    +0.035 A 
ATOM     27  C   UNL     1      11.045   4.081   0.823  0.00  0.00    +0.023 A 
ATOM     30  C   UNL     1      13.804   4.223   0.436  0.00  0.00    +0.057 A 
ATOM     32  C   UNL     1      11.564   4.185  -0.468  0.00  0.00    +0.002 A 
ATOM     34  C   UNL     1      12.943   4.256  -0.661  0.00  0.00    +0.012 A 
BRANCH  30  35
ATOM      1  F   UNL     1      15.982   3.391   0.968  0.00  0.00    -0.166 F 
ATOM      2  F   UNL     1      15.662   4.080  -1.063  0.00  0.00    -0.166 F 
ATOM      3  F   UNL     1      15.794   5.519   0.561  0.00  0.00    -0.166 F 
ATOM     35  C   UNL     1      15.278   4.299   0.229  0.00  0.00    +0.417 C 
ENDBRANCH  30  35
ENDBRANCH  13  23
ENDBRANCH  18   9
BRANCH  17   8
ATOM      8  N   UNL     1      11.184   9.243   7.314  0.00  0.00    -0.187 N 
ATOM     10  N   UNL     1      10.523  10.398   7.145  0.00  0.00    -0.041 NA
ATOM     11  N   UNL     1      12.658  10.637   6.547  0.00  0.00    -0.071 NA
ATOM     12  N   UNL     1      11.430  11.245   6.676  0.00  0.00    -0.020 NA
ATOM     21  C   UNL     1      12.483   9.398   6.948  0.00  0.00    +0.342 A 
BRANCH  21   6
ATOM      6  O   UNL     1      13.397   8.448   6.995  0.00  0.00    -0.423 OA
BRANCH   6  24
ATOM     24  C   UNL     1      14.214   8.142   5.915  0.00  0.00    +0.134 A 
ATOM     25  C   UNL     1      15.575   8.436   5.964  0.00  0.00    +0.069 A 
ATOM     28  C   UNL     1      13.671   7.539   4.780  0.00  0.00    +0.046 A 
ATOM     29  C   UNL     1      16.396   8.128   4.878  0.00  0.00    +0.033 A 
ATOM     31  C   UNL     1      14.491   7.230   3.695  0.00  0.00    +0.005 A 
ATOM     33  C   UNL     1      15.853   7.525   3.744  0.00  0.00    +0.023 A 
BRANCH  29  14
ATOM     14  N   UNL     1      17.773   8.426   4.928  0.00  0.00    -0.336 N 
ATOM     36  C   UNL     1      18.620   8.177   3.778  0.00  0.00    +0.129 C 
ATOM     37  C   UNL     1      18.358   8.999   6.124  0.00  0.00    +0.129 C 
ENDBRANCH  29  14
ENDBRANCH   6  24
ENDBRANCH  21   6
ENDBRANCH  17   8
TORSDOF 7
ENDMDL
MODEL 10
REMARK VINA RESULT:      -7.4     28.762     31.895
REMARK  Name = 11879569
REMARK  9 active torsions:
REMARK  status: ('A' for Active; 'I' for Inactive)
REMARK    1  A    between atoms: O_6  and  C_21
REMARK    2  A    between atoms: O_6  and  C_24
REMARK    3  A    between atoms: N_8  and  C_17
REMARK    4  A    between atoms: N_9  and  C_18
REMARK    5  A    between atoms: N_13  and  C_23
REMARK    6  A    between atoms: N_14  and  C_29
REMARK    7  A    between atoms: N_14  and  C_36
REMARK    8  A    between atoms: N_14  and  C_37
REMARK    9  A    between atoms: C_30  and  C_35
REMARK                            x       y       z     vdW  Elec       q    Type
REMARK                         _______ _______ _______ _____ _____    ______ ____
ROOT
ATOM      4  O   UNL     1     -13.379  -7.847  15.687  0.00  0.00    -0.370 OA
ATOM      5  O   UNL     1     -11.232  -5.732  14.788  0.00  0.00    -0.370 OA
ATOM     15  C   UNL     1     -11.949  -6.778  14.107  0.00  0.00    +0.176 C 
ATOM     16  C   UNL     1     -12.081  -7.935  15.078  0.00  0.00    +0.172 C 
ATOM     17  C   UNL     1     -13.375  -6.335  13.839  0.00  0.00    +0.171 C 
ATOM     18  C   UNL     1     -11.001  -7.686  16.106  0.00  0.00    +0.131 C 
ATOM     19  C   UNL     1     -14.109  -6.758  15.107  0.00  0.00    +0.190 C 
ATOM     20  C   UNL     1     -10.905  -6.172  16.113  0.00  0.00    +0.185 C 
ENDROOT
BRANCH  18   9
ATOM      7  O   UNL     1      -8.973  -8.731  17.839  0.00  0.00    -0.252 OA
ATOM      9  N   UNL     1      -9.751  -8.287  15.707  0.00  0.00    -0.292 N 
ATOM     13  N   UNL     1      -7.702  -9.298  15.948  0.00  0.00    -0.269 N 
ATOM     22  C   UNL     1      -8.810  -8.775  16.622  0.00  0.00    +0.304 C 
ATOM     38  H   UNL     1      -9.574  -8.422  14.716  0.00  0.00    +0.151 HD
ATOM     39  H   UNL     1      -7.725  -9.257  14.932  0.00  0.00    +0.156 HD
BRANCH  13  23
ATOM     23  C   UNL     1      -6.544  -9.884  16.507  0.00  0.00    +0.035 A 
ATOM     26  C   UNL     1      -5.378  -9.989  15.748  0.00  0.00    +0.035 A 
ATOM     27  C   UNL     1      -6.564 -10.354  17.820  0.00  0.00    +0.023 A 
ATOM     30  C   UNL     1      -4.235 -10.567  16.300  0.00  0.00    +0.057 A 
ATOM     32  C   UNL     1      -5.421 -10.931  18.373  0.00  0.00    +0.002 A 
ATOM     34  C   UNL     1      -4.257 -11.037  17.613  0.00  0.00    +0.012 A 
BRANCH  30  35
ATOM      1  F   UNL     1      -3.148 -10.295  14.187  0.00  0.00    -0.166 F 
ATOM      2  F   UNL     1      -1.957  -9.923  15.960  0.00  0.00    -0.166 F 
ATOM      3  F   UNL     1      -2.512 -11.959  15.435  0.00  0.00    -0.166 F 
ATOM     35  C   UNL     1      -2.990 -10.681  15.488  0.00  0.00    +0.417 C 
ENDBRANCH  30  35
ENDBRANCH  13  23
ENDBRANCH  18   9
BRANCH  17   8
ATOM      8  N   UNL     1     -13.912  -6.893  12.595  0.00  0.00    -0.187 N 
ATOM     10  N   UNL     1     -14.416  -8.135  12.553  0.00  0.00    -0.041 NA
ATOM     11  N   UNL     1     -14.547  -7.181  10.542  0.00  0.00    -0.071 NA
ATOM     12  N   UNL     1     -14.803  -8.304  11.295  0.00  0.00    -0.020 NA
ATOM     21  C   UNL     1     -13.997  -6.319  11.367  0.00  0.00    +0.342 A 
BRANCH  21   6
ATOM      6  O   UNL     1     -13.587  -5.100  11.075  0.00  0.00    -0.423 OA
BRANCH   6  24
ATOM     24  C   UNL     1     -12.439  -4.855  10.333  0.00  0.00    +0.134 A 
ATOM     25  C   UNL     1     -11.611  -5.911   9.959  0.00  0.00    +0.069 A 
ATOM     28  C   UNL     1     -12.117  -3.548   9.961  0.00  0.00    +0.046 A 
ATOM     29  C   UNL     1     -10.458  -5.663   9.212  0.00  0.00    +0.033 A 
ATOM     31  C   UNL     1     -10.965  -3.301   9.215  0.00  0.00    +0.005 A 
ATOM     33  C   UNL     1     -10.136  -4.358   8.841  0.00  0.00    +0.023 A 
BRANCH  29  14
ATOM     14  N   UNL     1      -9.619  -6.731   8.834  0.00  0.00    -0.336 N 
ATOM     36  C   UNL     1      -8.445  -6.490   8.019  0.00  0.00    +0.129 C 
ATOM     37  C   UNL     1      -9.912  -8.083   9.267  0.00  0.00    +0.129 C 
ENDBRANCH  29  14
ENDBRANCH   6  24
ENDBRANCH  21   6
ENDBRANCH  17   8
TORSDOF 7
ENDMDL
