MODEL 1
REMARK VINA RESULT:      -7.6      0.000      0.000
REMARK  Name = 75536105
REMARK  9 active torsions:
REMARK  status: ('A' for Active; 'I' for Inactive)
REMARK    1  A    between atoms: O_4  and  C_10
REMARK    2  A    between atoms: O_5  and  C_12
REMARK    3  A    between atoms: O_6  and  C_20
REMARK    4  A    between atoms: O_6  and  C_27
REMARK    5  A    between atoms: N_7  and  C_8
REMARK    6  A    between atoms: N_7  and  C_14
REMARK    7  A    between atoms: C_9  and  C_13
REMARK    8  A    between atoms: C_14  and  C_17
REMARK    9  A    between atoms: C_23  and  C_26
REMARK                            x       y       z     vdW  Elec       q    Type
REMARK                         _______ _______ _______ _____ _____    ______ ____
ROOT
ATOM      8  C   UNL     1      12.836   7.158  20.465  0.00  0.00    +0.092 C 
ATOM      9  C   UNL     1      13.219   8.638  20.235  0.00  0.00    +0.041 C 
ATOM     10  C   UNL     1      11.827   7.234  21.610  0.00  0.00    +0.160 C 
ATOM     11  C   UNL     1      12.001   9.463  20.733  0.00  0.00    +0.043 C 
ATOM     12  C   UNL     1      10.976   8.441  21.227  0.00  0.00    +0.145 C 
ENDROOT
BRANCH   9  13
ATOM     13  C   UNL     1      13.626   8.935  18.808  0.00  0.00    -0.042 A 
ATOM     15  C   UNL     1      14.021  10.224  18.449  0.00  0.00    +0.007 A 
ATOM     16  C   UNL     1      13.604   7.920  17.850  0.00  0.00    +0.007 A 
ATOM     18  C   UNL     1      14.395  10.498  17.134  0.00  0.00    +0.046 A 
ATOM     19  C   UNL     1      13.978   8.195  16.535  0.00  0.00    +0.046 A 
ATOM     20  C   UNL     1      14.374   9.484  16.177  0.00  0.00    +0.120 A 
BRANCH  20   6
ATOM      6  O   UNL     1      14.738   9.752  14.893  0.00  0.00    -0.495 OA
ATOM     27  C   UNL     1      15.556  10.900  14.676  0.00  0.00    +0.277 C 
ENDBRANCH  20   6
ENDBRANCH   9  13
BRANCH  10   4
ATOM      4  O   UNL     1      11.057   6.050  21.707  0.00  0.00    -0.388 OA
ATOM     29  H   UNL     1      10.537   5.972  20.888  0.00  0.00    +0.210 HD
ENDBRANCH  10   4
BRANCH  12   5
ATOM      5  O   UNL     1      10.092   8.101  20.163  0.00  0.00    -0.389 OA
ATOM     30  H   UNL     1       9.261   8.586  20.308  0.00  0.00    +0.210 HD
ENDBRANCH  12   5
BRANCH   8   7
ATOM      7  N   UNL     1      13.991   6.341  20.815  0.00  0.00    -0.306 NA
ATOM     28  H   UNL     1      13.725   5.689  21.554  0.00  0.00    +0.123 HD
BRANCH   7  14
ATOM     14  C   UNL     1      15.088   7.170  21.296  0.00  0.00    +0.116 C 
BRANCH  14  17
ATOM     17  C   UNL     1      16.417   6.703  20.766  0.00  0.00    -0.033 A 
ATOM     21  C   UNL     1      17.564   6.823  21.551  0.00  0.00    +0.017 A 
ATOM     22  C   UNL     1      16.503   6.150  19.487  0.00  0.00    +0.005 A 
ATOM     23  C   UNL     1      18.794   6.391  21.059  0.00  0.00    +0.055 A 
ATOM     24  C   UNL     1      17.734   5.717  18.996  0.00  0.00    +0.001 A 
ATOM     25  C   UNL     1      18.880   5.838  19.781  0.00  0.00    +0.012 A 
BRANCH  23  26
ATOM      1  F   UNL     1      19.771   6.955  23.169  0.00  0.00    -0.166 F 
ATOM      2  F   UNL     1      20.939   7.397  21.396  0.00  0.00    -0.166 F 
ATOM      3  F   UNL     1      20.686   5.336  22.042  0.00  0.00    -0.166 F 
ATOM     26  C   UNL     1      20.021   6.519  21.899  0.00  0.00    +0.417 C 
ENDBRANCH  23  26
ENDBRANCH  14  17
ENDBRANCH   7  14
ENDBRANCH   8   7
TORSDOF 8
ENDMDL
MODEL 2
REMARK VINA RESULT:      -7.5      4.297      6.165
REMARK  Name = 75536105
REMARK  9 active torsions:
REMARK  status: ('A' for Active; 'I' for Inactive)
REMARK    1  A    between atoms: O_4  and  C_10
REMARK    2  A    between atoms: O_5  and  C_12
REMARK    3  A    between atoms: O_6  and  C_20
REMARK    4  A    between atoms: O_6  and  C_27
REMARK    5  A    between atoms: N_7  and  C_8
REMARK    6  A    between atoms: N_7  and  C_14
REMARK    7  A    between atoms: C_9  and  C_13
REMARK    8  A    between atoms: C_14  and  C_17
REMARK    9  A    between atoms: C_23  and  C_26
REMARK                            x       y       z     vdW  Elec       q    Type
REMARK                         _______ _______ _______ _____ _____    ______ ____
ROOT
ATOM      8  C   UNL     1      12.147  10.758  22.469  0.00  0.00    +0.092 C 
ATOM      9  C   UNL     1      13.663  10.690  22.765  0.00  0.00    +0.041 C 
ATOM     10  C   UNL     1      11.772  12.176  22.899  0.00  0.00    +0.160 C 
ATOM     11  C   UNL     1      14.166  12.158  22.693  0.00  0.00    +0.043 C 
ATOM     12  C   UNL     1      12.936  13.007  22.364  0.00  0.00    +0.145 C 
ENDROOT
BRANCH   9  13
ATOM     13  C   UNL     1      14.406   9.736  21.855  0.00  0.00    -0.042 A 
ATOM     15  C   UNL     1      14.666  10.094  20.532  0.00  0.00    +0.007 A 
ATOM     16  C   UNL     1      14.830   8.498  22.339  0.00  0.00    +0.007 A 
ATOM     18  C   UNL     1      15.349   9.215  19.693  0.00  0.00    +0.046 A 
ATOM     19  C   UNL     1      15.514   7.618  21.499  0.00  0.00    +0.046 A 
ATOM     20  C   UNL     1      15.774   7.977  20.176  0.00  0.00    +0.120 A 
BRANCH  20   6
ATOM      6  O   UNL     1      16.441   7.118  19.357  0.00  0.00    -0.495 OA
ATOM     27  C   UNL     1      17.528   6.391  19.926  0.00  0.00    +0.277 C 
ENDBRANCH  20   6
ENDBRANCH   9  13
BRANCH  10   4
ATOM      4  O   UNL     1      10.534  12.580  22.346  0.00  0.00    -0.388 OA
ATOM     29  H   UNL     1      10.456  12.164  21.470  0.00  0.00    +0.210 HD
ENDBRANCH  10   4
BRANCH  12   5
ATOM      5  O   UNL     1      12.825  13.157  20.952  0.00  0.00    -0.389 OA
ATOM     30  H   UNL     1      12.355  13.992  20.784  0.00  0.00    +0.210 HD
ENDBRANCH  12   5
BRANCH   8   7
ATOM      7  N   UNL     1      11.397   9.753  23.212  0.00  0.00    -0.306 NA
ATOM     28  H   UNL     1      12.049   9.066  23.592  0.00  0.00    +0.123 HD
BRANCH   7  14
ATOM     14  C   UNL     1      10.449   9.067  22.346  0.00  0.00    +0.116 C 
BRANCH  14  17
ATOM     17  C   UNL     1      11.143   8.285  21.263  0.00  0.00    -0.033 A 
ATOM     21  C   UNL     1      11.296   8.837  19.991  0.00  0.00    +0.017 A 
ATOM     22  C   UNL     1      11.632   7.006  21.531  0.00  0.00    +0.005 A 
ATOM     23  C   UNL     1      11.938   8.112  18.989  0.00  0.00    +0.055 A 
ATOM     24  C   UNL     1      12.275   6.281  20.528  0.00  0.00    +0.001 A 
ATOM     25  C   UNL     1      12.428   6.834  19.256  0.00  0.00    +0.012 A 
BRANCH  23  26
ATOM      1  F   UNL     1      12.418  10.032  17.644  0.00  0.00    -0.166 F 
ATOM      2  F   UNL     1      10.982   8.612  16.853  0.00  0.00    -0.166 F 
ATOM      3  F   UNL     1      13.094   8.100  16.910  0.00  0.00    -0.166 F 
ATOM     26  C   UNL     1      12.103   8.703  17.629  0.00  0.00    +0.417 C 
ENDBRANCH  23  26
ENDBRANCH  14  17
ENDBRANCH   7  14
ENDBRANCH   8   7
TORSDOF 8
ENDMDL
MODEL 3
REMARK VINA RESULT:      -7.4     13.438     16.166
REMARK  Name = 75536105
REMARK  9 active torsions:
REMARK  status: ('A' for Active; 'I' for Inactive)
REMARK    1  A    between atoms: O_4  and  C_10
REMARK    2  A    between atoms: O_5  and  C_12
REMARK    3  A    between atoms: O_6  and  C_20
REMARK    4  A    between atoms: O_6  and  C_27
REMARK    5  A    between atoms: N_7  and  C_8
REMARK    6  A    between atoms: N_7  and  C_14
REMARK    7  A    between atoms: C_9  and  C_13
REMARK    8  A    between atoms: C_14  and  C_17
REMARK    9  A    between atoms: C_23  and  C_26
REMARK                            x       y       z     vdW  Elec       q    Type
REMARK                         _______ _______ _______ _____ _____    ______ ____
ROOT
ATOM      8  C   UNL     1      12.569   6.115   3.013  0.00  0.00    +0.092 C 
ATOM      9  C   UNL     1      12.695   7.652   3.120  0.00  0.00    +0.041 C 
ATOM     10  C   UNL     1      13.682   5.742   2.035  0.00  0.00    +0.160 C 
ATOM     11  C   UNL     1      14.176   7.971   2.781  0.00  0.00    +0.043 C 
ATOM     12  C   UNL     1      14.840   6.623   2.493  0.00  0.00    +0.145 C 
ENDROOT
BRANCH   9  13
ATOM     13  C   UNL     1      12.233   8.197   4.455  0.00  0.00    -0.042 A 
ATOM     15  C   UNL     1      11.345   9.271   4.499  0.00  0.00    +0.007 A 
ATOM     16  C   UNL     1      12.698   7.626   5.640  0.00  0.00    +0.007 A 
ATOM     18  C   UNL     1      10.920   9.774   5.728  0.00  0.00    +0.046 A 
ATOM     19  C   UNL     1      12.273   8.129   6.869  0.00  0.00    +0.046 A 
ATOM     20  C   UNL     1      11.383   9.203   6.914  0.00  0.00    +0.120 A 
BRANCH  20   6
ATOM      6  O   UNL     1      10.970   9.695   8.114  0.00  0.00    -0.495 OA
ATOM     27  C   UNL     1       9.568   9.894   8.285  0.00  0.00    +0.277 C 
ENDBRANCH  20   6
ENDBRANCH   9  13
BRANCH  10   4
ATOM      4  O   UNL     1      14.001   4.366   2.105  0.00  0.00    -0.388 OA
ATOM     29  H   UNL     1      14.703   4.263   2.771  0.00  0.00    +0.210 HD
ENDBRANCH  10   4
BRANCH  12   5
ATOM      5  O   UNL     1      15.406   6.105   3.694  0.00  0.00    -0.389 OA
ATOM     30  H   UNL     1      14.902   5.309   3.933  0.00  0.00    +0.210 HD
ENDBRANCH  12   5
BRANCH   8   7
ATOM      7  N   UNL     1      11.258   5.704   2.523  0.00  0.00    -0.306 NA
ATOM     28  H   UNL     1      10.663   6.528   2.437  0.00  0.00    +0.123 HD
BRANCH   7  14
ATOM     14  C   UNL     1      10.630   4.767   3.443  0.00  0.00    +0.116 C 
BRANCH  14  17
ATOM     17  C   UNL     1       9.888   5.475   4.545  0.00  0.00    -0.033 A 
ATOM     21  C   UNL     1      10.093   5.106   5.875  0.00  0.00    +0.017 A 
ATOM     22  C   UNL     1       8.994   6.502   4.236  0.00  0.00    +0.005 A 
ATOM     23  C   UNL     1       9.405   5.763   6.894  0.00  0.00    +0.055 A 
ATOM     24  C   UNL     1       8.308   7.159   5.256  0.00  0.00    +0.001 A 
ATOM     25  C   UNL     1       8.512   6.789   6.586  0.00  0.00    +0.012 A 
BRANCH  23  26
ATOM      1  F   UNL     1      10.838   5.755   8.810  0.00  0.00    -0.166 F 
ATOM      2  F   UNL     1       9.569   4.020   8.525  0.00  0.00    -0.166 F 
ATOM      3  F   UNL     1       8.697   5.908   9.160  0.00  0.00    -0.166 F 
ATOM     26  C   UNL     1       9.625   5.369   8.316  0.00  0.00    +0.417 C 
ENDBRANCH  23  26
ENDBRANCH  14  17
ENDBRANCH   7  14
ENDBRANCH   8   7
TORSDOF 8
ENDMDL
MODEL 4
REMARK VINA RESULT:      -7.4      2.370      3.114
REMARK  Name = 75536105
REMARK  9 active torsions:
REMARK  status: ('A' for Active; 'I' for Inactive)
REMARK    1  A    between atoms: O_4  and  C_10
REMARK    2  A    between atoms: O_5  and  C_12
REMARK    3  A    between atoms: O_6  and  C_20
REMARK    4  A    between atoms: O_6  and  C_27
REMARK    5  A    between atoms: N_7  and  C_8
REMARK    6  A    between atoms: N_7  and  C_14
REMARK    7  A    between atoms: C_9  and  C_13
REMARK    8  A    between atoms: C_14  and  C_17
REMARK    9  A    between atoms: C_23  and  C_26
REMARK                            x       y       z     vdW  Elec       q    Type
REMARK                         _______ _______ _______ _____ _____    ______ ____
ROOT
ATOM      8  C   UNL     1      12.978   7.225  21.027  0.00  0.00    +0.092 C 
ATOM      9  C   UNL     1      12.846   8.384  22.040  0.00  0.00    +0.041 C 
ATOM     10  C   UNL     1      11.757   6.357  21.330  0.00  0.00    +0.160 C 
ATOM     11  C   UNL     1      11.330   8.485  22.361  0.00  0.00    +0.043 C 
ATOM     12  C   UNL     1      10.653   7.392  21.532  0.00  0.00    +0.145 C 
ENDROOT
BRANCH   9  13
ATOM     13  C   UNL     1      13.462   9.678  21.551  0.00  0.00    -0.042 A 
ATOM     15  C   UNL     1      13.391  10.016  20.200  0.00  0.00    +0.007 A 
ATOM     16  C   UNL     1      14.103  10.530  22.451  0.00  0.00    +0.007 A 
ATOM     18  C   UNL     1      13.959  11.207  19.748  0.00  0.00    +0.046 A 
ATOM     19  C   UNL     1      14.671  11.721  21.999  0.00  0.00    +0.046 A 
ATOM     20  C   UNL     1      14.599  12.059  20.648  0.00  0.00    +0.120 A 
BRANCH  20   6
ATOM      6  O   UNL     1      15.155  13.221  20.207  0.00  0.00    -0.495 OA
ATOM     27  C   UNL     1      16.499  13.488  20.602  0.00  0.00    +0.277 C 
ENDBRANCH  20   6
ENDBRANCH   9  13
BRANCH  10   4
ATOM      4  O   UNL     1      11.466   5.472  20.266  0.00  0.00    -0.388 OA
ATOM     29  H   UNL     1      10.539   5.195  20.361  0.00  0.00    +0.210 HD
ENDBRANCH  10   4
BRANCH  12   5
ATOM      5  O   UNL     1      10.247   7.929  20.277  0.00  0.00    -0.389 OA
ATOM     30  H   UNL     1      10.948   8.532  19.978  0.00  0.00    +0.210 HD
ENDBRANCH  12   5
BRANCH   8   7
ATOM      7  N   UNL     1      14.222   6.485  21.197  0.00  0.00    -0.306 NA
ATOM     28  H   UNL     1      14.686   6.807  22.047  0.00  0.00    +0.123 HD
BRANCH   7  14
ATOM     14  C   UNL     1      15.114   6.701  20.067  0.00  0.00    +0.116 C 
BRANCH  14  17
ATOM     17  C   UNL     1      16.474   7.172  20.508  0.00  0.00    -0.033 A 
ATOM     21  C   UNL     1      17.573   6.318  20.415  0.00  0.00    +0.017 A 
ATOM     22  C   UNL     1      16.635   8.464  21.012  0.00  0.00    +0.005 A 
ATOM     23  C   UNL     1      18.832   6.755  20.824  0.00  0.00    +0.055 A 
ATOM     24  C   UNL     1      17.895   8.900  21.420  0.00  0.00    +0.001 A 
ATOM     25  C   UNL     1      18.994   8.046  21.327  0.00  0.00    +0.012 A 
BRANCH  23  26
ATOM      1  F   UNL     1      20.474   5.414  21.934  0.00  0.00    -0.166 F 
ATOM      2  F   UNL     1      21.088   6.407  20.106  0.00  0.00    -0.166 F 
ATOM      3  F   UNL     1      19.734   4.708  20.015  0.00  0.00    -0.166 F 
ATOM     26  C   UNL     1      20.008   5.842  20.724  0.00  0.00    +0.417 C 
ENDBRANCH  23  26
ENDBRANCH  14  17
ENDBRANCH   7  14
ENDBRANCH   8   7
TORSDOF 8
ENDMDL
MODEL 5
REMARK VINA RESULT:      -7.3      4.015      6.420
REMARK  Name = 75536105
REMARK  9 active torsions:
REMARK  status: ('A' for Active; 'I' for Inactive)
REMARK    1  A    between atoms: O_4  and  C_10
REMARK    2  A    between atoms: O_5  and  C_12
REMARK    3  A    between atoms: O_6  and  C_20
REMARK    4  A    between atoms: O_6  and  C_27
REMARK    5  A    between atoms: N_7  and  C_8
REMARK    6  A    between atoms: N_7  and  C_14
REMARK    7  A    between atoms: C_9  and  C_13
REMARK    8  A    between atoms: C_14  and  C_17
REMARK    9  A    between atoms: C_23  and  C_26
REMARK                            x       y       z     vdW  Elec       q    Type
REMARK                         _______ _______ _______ _____ _____    ______ ____
ROOT
ATOM      8  C   UNL     1      14.265   9.950  16.585  0.00  0.00    +0.092 C 
ATOM      9  C   UNL     1      13.671  11.052  17.492  0.00  0.00    +0.041 C 
ATOM     10  C   UNL     1      14.482  10.673  15.256  0.00  0.00    +0.160 C 
ATOM     11  C   UNL     1      14.186  12.395  16.904  0.00  0.00    +0.043 C 
ATOM     12  C   UNL     1      15.045  12.021  15.695  0.00  0.00    +0.145 C 
ENDROOT
BRANCH   9  13
ATOM     13  C   UNL     1      13.990  10.855  18.958  0.00  0.00    -0.042 A 
ATOM     15  C   UNL     1      15.307  10.640  19.362  0.00  0.00    +0.007 A 
ATOM     16  C   UNL     1      12.966  10.887  19.905  0.00  0.00    +0.007 A 
ATOM     18  C   UNL     1      15.602  10.457  20.713  0.00  0.00    +0.046 A 
ATOM     19  C   UNL     1      13.260  10.704  21.256  0.00  0.00    +0.046 A 
ATOM     20  C   UNL     1      14.579  10.490  21.660  0.00  0.00    +0.120 A 
BRANCH  20   6
ATOM      6  O   UNL     1      14.865  10.310  22.979  0.00  0.00    -0.495 OA
ATOM     27  C   UNL     1      14.912  11.477  23.797  0.00  0.00    +0.277 C 
ENDBRANCH  20   6
ENDBRANCH   9  13
BRANCH  10   4
ATOM      4  O   UNL     1      15.379   9.969  14.419  0.00  0.00    -0.388 OA
ATOM     29  H   UNL     1      15.090  10.107  13.500  0.00  0.00    +0.210 HD
ENDBRANCH  10   4
BRANCH  12   5
ATOM      5  O   UNL     1      16.403  11.877  16.103  0.00  0.00    -0.389 OA
ATOM     30  H   UNL     1      16.434  12.014  17.065  0.00  0.00    +0.210 HD
ENDBRANCH  12   5
BRANCH   8   7
ATOM      7  N   UNL     1      13.365   8.813  16.441  0.00  0.00    -0.306 NA
ATOM     28  H   UNL     1      12.561   8.946  17.056  0.00  0.00    +0.123 HD
BRANCH   7  14
ATOM     14  C   UNL     1      14.033   7.572  16.808  0.00  0.00    +0.116 C 
BRANCH  14  17
ATOM     17  C   UNL     1      13.998   7.334  18.294  0.00  0.00    -0.033 A 
ATOM     21  C   UNL     1      12.788   7.409  18.985  0.00  0.00    +0.017 A 
ATOM     22  C   UNL     1      15.176   7.039  18.981  0.00  0.00    +0.005 A 
ATOM     23  C   UNL     1      12.757   7.189  20.361  0.00  0.00    +0.055 A 
ATOM     24  C   UNL     1      15.144   6.818  20.357  0.00  0.00    +0.001 A 
ATOM     25  C   UNL     1      13.934   6.893  21.048  0.00  0.00    +0.012 A 
BRANCH  23  26
ATOM      1  F   UNL     1      11.569   7.857  22.328  0.00  0.00    -0.166 F 
ATOM      2  F   UNL     1      10.894   6.049  21.339  0.00  0.00    -0.166 F 
ATOM      3  F   UNL     1      10.518   7.987  20.429  0.00  0.00    -0.166 F 
ATOM     26  C   UNL     1      11.463   7.268  21.100  0.00  0.00    +0.417 C 
ENDBRANCH  23  26
ENDBRANCH  14  17
ENDBRANCH   7  14
ENDBRANCH   8   7
TORSDOF 8
ENDMDL
MODEL 6
REMARK VINA RESULT:      -7.2     15.137     18.030
REMARK  Name = 75536105
REMARK  9 active torsions:
REMARK  status: ('A' for Active; 'I' for Inactive)
REMARK    1  A    between atoms: O_4  and  C_10
REMARK    2  A    between atoms: O_5  and  C_12
REMARK    3  A    between atoms: O_6  and  C_20
REMARK    4  A    between atoms: O_6  and  C_27
REMARK    5  A    between atoms: N_7  and  C_8
REMARK    6  A    between atoms: N_7  and  C_14
REMARK    7  A    between atoms: C_9  and  C_13
REMARK    8  A    between atoms: C_14  and  C_17
REMARK    9  A    between atoms: C_23  and  C_26
REMARK                            x       y       z     vdW  Elec       q    Type
REMARK                         _______ _______ _______ _____ _____    ______ ____
ROOT
ATOM      8  C   UNL     1      11.444   6.556   5.052  0.00  0.00    +0.092 C 
ATOM      9  C   UNL     1      10.103   6.586   4.283  0.00  0.00    +0.041 C 
ATOM     10  C   UNL     1      11.006   6.546   6.516  0.00  0.00    +0.160 C 
ATOM     11  C   UNL     1       9.064   5.941   5.239  0.00  0.00    +0.043 C 
ATOM     12  C   UNL     1       9.834   5.569   6.508  0.00  0.00    +0.145 C 
ENDROOT
BRANCH   9  13
ATOM     13  C   UNL     1      10.182   5.932   2.920  0.00  0.00    -0.042 A 
ATOM     15  C   UNL     1       9.947   6.687   1.771  0.00  0.00    +0.007 A 
ATOM     16  C   UNL     1      10.487   4.575   2.814  0.00  0.00    +0.007 A 
ATOM     18  C   UNL     1      10.018   6.085   0.515  0.00  0.00    +0.046 A 
ATOM     19  C   UNL     1      10.558   3.973   1.558  0.00  0.00    +0.046 A 
ATOM     20  C   UNL     1      10.324   4.728   0.408  0.00  0.00    +0.120 A 
BRANCH  20   6
ATOM      6  O   UNL     1      10.392   4.139  -0.817  0.00  0.00    -0.495 OA
ATOM     27  C   UNL     1      10.753   4.972  -1.918  0.00  0.00    +0.277 C 
ENDBRANCH  20   6
ENDBRANCH   9  13
BRANCH  10   4
ATOM      4  O   UNL     1      12.049   6.117   7.370  0.00  0.00    -0.388 OA
ATOM     29  H   UNL     1      12.361   5.256   7.041  0.00  0.00    +0.210 HD
ENDBRANCH  10   4
BRANCH  12   5
ATOM      5  O   UNL     1      10.310   4.231   6.400  0.00  0.00    -0.389 OA
ATOM     30  H   UNL     1      10.567   4.087   5.473  0.00  0.00    +0.210 HD
ENDBRANCH  12   5
BRANCH   8   7
ATOM      7  N   UNL     1      12.279   7.712   4.745  0.00  0.00    -0.306 NA
ATOM     28  H   UNL     1      11.847   8.242   3.988  0.00  0.00    +0.123 HD
BRANCH   7  14
ATOM     14  C   UNL     1      13.609   7.295   4.325  0.00  0.00    +0.116 C 
BRANCH  14  17
ATOM     17  C   UNL     1      13.645   6.925   2.866  0.00  0.00    -0.033 A 
ATOM     21  C   UNL     1      13.901   5.607   2.486  0.00  0.00    +0.017 A 
ATOM     22  C   UNL     1      13.424   7.901   1.893  0.00  0.00    +0.005 A 
ATOM     23  C   UNL     1      13.935   5.266   1.135  0.00  0.00    +0.055 A 
ATOM     24  C   UNL     1      13.457   7.558   0.542  0.00  0.00    +0.001 A 
ATOM     25  C   UNL     1      13.713   6.241   0.162  0.00  0.00    +0.012 A 
BRANCH  23  26
ATOM      1  F   UNL     1      13.601   3.498  -0.442  0.00  0.00    -0.166 F 
ATOM      2  F   UNL     1      13.788   2.932   1.643  0.00  0.00    -0.166 F 
ATOM      3  F   UNL     1      15.536   3.610   0.543  0.00  0.00    -0.166 F 
ATOM     26  C   UNL     1      14.207   3.857   0.728  0.00  0.00    +0.417 C 
ENDBRANCH  23  26
ENDBRANCH  14  17
ENDBRANCH   7  14
ENDBRANCH   8   7
TORSDOF 8
ENDMDL
MODEL 7
REMARK VINA RESULT:      -7.2     26.403     28.203
REMARK  Name = 75536105
REMARK  9 active torsions:
REMARK  status: ('A' for Active; 'I' for Inactive)
REMARK    1  A    between atoms: O_4  and  C_10
REMARK    2  A    between atoms: O_5  and  C_12
REMARK    3  A    between atoms: O_6  and  C_20
REMARK    4  A    between atoms: O_6  and  C_27
REMARK    5  A    between atoms: N_7  and  C_8
REMARK    6  A    between atoms: N_7  and  C_14
REMARK    7  A    between atoms: C_9  and  C_13
REMARK    8  A    between atoms: C_14  and  C_17
REMARK    9  A    between atoms: C_23  and  C_26
REMARK                            x       y       z     vdW  Elec       q    Type
REMARK                         _______ _______ _______ _____ _____    ______ ____
ROOT
ATOM      8  C   UNL     1      -3.922 -11.013  16.405  0.00  0.00    +0.092 C 
ATOM      9  C   UNL     1      -5.255 -10.353  15.986  0.00  0.00    +0.041 C 
ATOM     10  C   UNL     1      -4.009 -11.036  17.930  0.00  0.00    +0.160 C 
ATOM     11  C   UNL     1      -6.245 -10.646  17.145  0.00  0.00    +0.043 C 
ATOM     12  C   UNL     1      -5.456 -11.454  18.177  0.00  0.00    +0.145 C 
ENDROOT
BRANCH   9  13
ATOM     13  C   UNL     1      -5.742 -10.803  14.625  0.00  0.00    -0.042 A 
ATOM     15  C   UNL     1      -5.944 -12.159  14.371  0.00  0.00    +0.007 A 
ATOM     16  C   UNL     1      -5.987  -9.862  13.625  0.00  0.00    +0.007 A 
ATOM     18  C   UNL     1      -6.393 -12.575  13.118  0.00  0.00    +0.046 A 
ATOM     19  C   UNL     1      -6.436 -10.277  12.371  0.00  0.00    +0.046 A 
ATOM     20  C   UNL     1      -6.639 -11.634  12.118  0.00  0.00    +0.120 A 
BRANCH  20   6
ATOM      6  O   UNL     1      -7.075 -12.040  10.894  0.00  0.00    -0.495 OA
ATOM     27  C   UNL     1      -6.588 -11.323   9.761  0.00  0.00    +0.277 C 
ENDBRANCH  20   6
ENDBRANCH   9  13
BRANCH  10   4
ATOM      4  O   UNL     1      -3.089 -11.951  18.493  0.00  0.00    -0.388 OA
ATOM     29  H   UNL     1      -2.286 -11.932  17.945  0.00  0.00    +0.210 HD
ENDBRANCH  10   4
BRANCH  12   5
ATOM      5  O   UNL     1      -5.617 -12.845  17.916  0.00  0.00    -0.389 OA
ATOM     30  H   UNL     1      -5.795 -12.945  16.966  0.00  0.00    +0.210 HD
ENDBRANCH  12   5
BRANCH   8   7
ATOM      7  N   UNL     1      -2.764 -10.258  15.941  0.00  0.00    -0.306 NA
ATOM     28  H   UNL     1      -3.076  -9.545  15.281  0.00  0.00    +0.123 HD
BRANCH   7  14
ATOM     14  C   UNL     1      -1.809 -11.129  15.271  0.00  0.00    +0.116 C 
BRANCH  14  17
ATOM     17  C   UNL     1      -2.248 -11.472  13.872  0.00  0.00    -0.033 A 
ATOM     21  C   UNL     1      -2.439 -10.459  12.932  0.00  0.00    +0.017 A 
ATOM     22  C   UNL     1      -2.465 -12.804  13.517  0.00  0.00    +0.005 A 
ATOM     23  C   UNL     1      -2.846 -10.778  11.638  0.00  0.00    +0.055 A 
ATOM     24  C   UNL     1      -2.872 -13.122  12.221  0.00  0.00    +0.001 A 
ATOM     25  C   UNL     1      -3.063 -12.109  11.281  0.00  0.00    +0.012 A 
BRANCH  23  26
ATOM      1  F   UNL     1      -3.453 -10.152   9.409  0.00  0.00    -0.166 F 
ATOM      2  F   UNL     1      -1.924  -8.961  10.382  0.00  0.00    -0.166 F 
ATOM      3  F   UNL     1      -3.997  -8.791  11.016  0.00  0.00    -0.166 F 
ATOM     26  C   UNL     1      -3.049  -9.695  10.632  0.00  0.00    +0.417 C 
ENDBRANCH  23  26
ENDBRANCH  14  17
ENDBRANCH   7  14
ENDBRANCH   8   7
TORSDOF 8
ENDMDL
MODEL 8
REMARK VINA RESULT:      -6.9      2.719      3.479
REMARK  Name = 75536105
REMARK  9 active torsions:
REMARK  status: ('A' for Active; 'I' for Inactive)
REMARK    1  A    between atoms: O_4  and  C_10
REMARK    2  A    between atoms: O_5  and  C_12
REMARK    3  A    between atoms: O_6  and  C_20
REMARK    4  A    between atoms: O_6  and  C_27
REMARK    5  A    between atoms: N_7  and  C_8
REMARK    6  A    between atoms: N_7  and  C_14
REMARK    7  A    between atoms: C_9  and  C_13
REMARK    8  A    between atoms: C_14  and  C_17
REMARK    9  A    between atoms: C_23  and  C_26
REMARK                            x       y       z     vdW  Elec       q    Type
REMARK                         _______ _______ _______ _____ _____    ______ ____
ROOT
ATOM      8  C   UNL     1      13.117   7.569  20.963  0.00  0.00    +0.092 C 
ATOM      9  C   UNL     1      12.872   8.805  21.858  0.00  0.00    +0.041 C 
ATOM     10  C   UNL     1      11.832   6.758  21.131  0.00  0.00    +0.160 C 
ATOM     11  C   UNL     1      11.329   8.968  21.927  0.00  0.00    +0.043 C 
ATOM     12  C   UNL     1      10.749   7.832  21.082  0.00  0.00    +0.145 C 
ENDROOT
BRANCH   9  13
ATOM     13  C   UNL     1      13.604  10.041  21.381  0.00  0.00    -0.042 A 
ATOM     15  C   UNL     1      13.815  10.243  20.017  0.00  0.00    +0.007 A 
ATOM     16  C   UNL     1      14.070  10.977  22.305  0.00  0.00    +0.007 A 
ATOM     18  C   UNL     1      14.490  11.382  19.577  0.00  0.00    +0.046 A 
ATOM     19  C   UNL     1      14.745  12.115  21.865  0.00  0.00    +0.046 A 
ATOM     20  C   UNL     1      14.955  12.318  20.501  0.00  0.00    +0.120 A 
BRANCH  20   6
ATOM      6  O   UNL     1      15.615  13.428  20.072  0.00  0.00    -0.495 OA
ATOM     27  C   UNL     1      15.157  14.028  18.861  0.00  0.00    +0.277 C 
ENDBRANCH  20   6
ENDBRANCH   9  13
BRANCH  10   4
ATOM      4  O   UNL     1      11.678   5.802  20.100  0.00  0.00    -0.388 OA
ATOM     29  H   UNL     1      10.950   5.210  20.356  0.00  0.00    +0.210 HD
ENDBRANCH  10   4
BRANCH  12   5
ATOM      5  O   UNL     1      10.564   8.282  19.743  0.00  0.00    -0.389 OA
ATOM     30  H   UNL     1      11.407   8.664  19.445  0.00  0.00    +0.210 HD
ENDBRANCH  12   5
BRANCH   8   7
ATOM      7  N   UNL     1      14.291   6.813  21.380  0.00  0.00    -0.306 NA
ATOM     28  H   UNL     1      14.767   7.322  22.126  0.00  0.00    +0.123 HD
BRANCH   7  14
ATOM     14  C   UNL     1      15.217   6.636  20.270  0.00  0.00    +0.116 C 
BRANCH  14  17
ATOM     17  C   UNL     1      16.599   7.126  20.610  0.00  0.00    -0.033 A 
ATOM     21  C   UNL     1      16.812   8.475  20.895  0.00  0.00    +0.017 A 
ATOM     22  C   UNL     1      17.669   6.230  20.639  0.00  0.00    +0.005 A 
ATOM     23  C   UNL     1      18.092   8.928  21.209  0.00  0.00    +0.055 A 
ATOM     24  C   UNL     1      18.949   6.683  20.954  0.00  0.00    +0.001 A 
ATOM     25  C   UNL     1      19.162   8.032  21.239  0.00  0.00    +0.012 A 
BRANCH  23  26
ATOM      1  F   UNL     1      19.609  10.659  21.863  0.00  0.00    -0.166 F 
ATOM      2  F   UNL     1      17.560  10.836  22.550  0.00  0.00    -0.166 F 
ATOM      3  F   UNL     1      18.034  11.183  20.457  0.00  0.00    -0.166 F 
ATOM     26  C   UNL     1      18.320  10.370  21.515  0.00  0.00    +0.417 C 
ENDBRANCH  23  26
ENDBRANCH  14  17
ENDBRANCH   7  14
ENDBRANCH   8   7
TORSDOF 8
ENDMDL
MODEL 9
REMARK VINA RESULT:      -6.9     27.447     29.943
REMARK  Name = 75536105
REMARK  9 active torsions:
REMARK  status: ('A' for Active; 'I' for Inactive)
REMARK    1  A    between atoms: O_4  and  C_10
REMARK    2  A    between atoms: O_5  and  C_12
REMARK    3  A    between atoms: O_6  and  C_20
REMARK    4  A    between atoms: O_6  and  C_27
REMARK    5  A    between atoms: N_7  and  C_8
REMARK    6  A    between atoms: N_7  and  C_14
REMARK    7  A    between atoms: C_9  and  C_13
REMARK    8  A    between atoms: C_14  and  C_17
REMARK    9  A    between atoms: C_23  and  C_26
REMARK                            x       y       z     vdW  Elec       q    Type
REMARK                         _______ _______ _______ _____ _____    ______ ____
ROOT
ATOM      8  C   UNL     1      -4.819 -10.605  15.061  0.00  0.00    +0.092 C 
ATOM      9  C   UNL     1      -4.400 -10.359  16.528  0.00  0.00    +0.041 C 
ATOM     10  C   UNL     1      -3.484 -10.641  14.319  0.00  0.00    +0.160 C 
ATOM     11  C   UNL     1      -2.956 -10.917  16.646  0.00  0.00    +0.043 C 
ATOM     12  C   UNL     1      -2.600 -11.456  15.259  0.00  0.00    +0.145 C 
ENDROOT
BRANCH   9  13
ATOM     13  C   UNL     1      -5.373 -10.941  17.532  0.00  0.00    -0.042 A 
ATOM     15  C   UNL     1      -5.673 -12.303  17.502  0.00  0.00    +0.007 A 
ATOM     16  C   UNL     1      -5.969 -10.115  18.485  0.00  0.00    +0.007 A 
ATOM     18  C   UNL     1      -6.569 -12.839  18.426  0.00  0.00    +0.046 A 
ATOM     19  C   UNL     1      -6.866 -10.651  19.409  0.00  0.00    +0.046 A 
ATOM     20  C   UNL     1      -7.166 -12.014  19.380  0.00  0.00    +0.120 A 
BRANCH  20   6
ATOM      6  O   UNL     1      -8.042 -12.537  20.281  0.00  0.00    -0.495 OA
ATOM     27  C   UNL     1      -8.828 -13.647  19.853  0.00  0.00    +0.277 C 
ENDBRANCH  20   6
ENDBRANCH   9  13
BRANCH  10   4
ATOM      4  O   UNL     1      -3.608 -11.248  13.047  0.00  0.00    -0.388 OA
ATOM     29  H   UNL     1      -3.387 -10.575  12.380  0.00  0.00    +0.210 HD
ENDBRANCH  10   4
BRANCH  12   5
ATOM      5  O   UNL     1      -2.942 -12.836  15.182  0.00  0.00    -0.389 OA
ATOM     30  H   UNL     1      -2.225 -13.288  14.706  0.00  0.00    +0.210 HD
ENDBRANCH  12   5
BRANCH   8   7
ATOM      7  N   UNL     1      -5.691  -9.552  14.554  0.00  0.00    -0.306 NA
ATOM     28  H   UNL     1      -5.990  -8.965  15.334  0.00  0.00    +0.123 HD
BRANCH   7  14
ATOM     14  C   UNL     1      -6.871 -10.117  13.915  0.00  0.00    +0.116 C 
BRANCH  14  17
ATOM     17  C   UNL     1      -7.897 -10.560  14.923  0.00  0.00    -0.033 A 
ATOM     21  C   UNL     1      -8.469  -9.631  15.793  0.00  0.00    +0.017 A 
ATOM     22  C   UNL     1      -8.276 -11.901  14.989  0.00  0.00    +0.005 A 
ATOM     23  C   UNL     1      -9.419 -10.042  16.726  0.00  0.00    +0.055 A 
ATOM     24  C   UNL     1      -9.227 -12.312  15.922  0.00  0.00    +0.001 A 
ATOM     25  C   UNL     1      -9.799 -11.383  16.792  0.00  0.00    +0.012 A 
BRANCH  23  26
ATOM      1  F   UNL     1      -9.346  -7.868  17.723  0.00  0.00    -0.166 F 
ATOM      2  F   UNL     1     -10.114  -9.486  18.947  0.00  0.00    -0.166 F 
ATOM      3  F   UNL     1     -11.305  -8.712  17.301  0.00  0.00    -0.166 F 
ATOM     26  C   UNL     1     -10.031  -9.048  17.655  0.00  0.00    +0.417 C 
ENDBRANCH  23  26
ENDBRANCH  14  17
ENDBRANCH   7  14
ENDBRANCH   8   7
TORSDOF 8
ENDMDL
MODEL 10
REMARK VINA RESULT:      -6.8     26.831     28.434
REMARK  Name = 75536105
REMARK  9 active torsions:
REMARK  status: ('A' for Active; 'I' for Inactive)
REMARK    1  A    between atoms: O_4  and  C_10
REMARK    2  A    between atoms: O_5  and  C_12
REMARK    3  A    between atoms: O_6  and  C_20
REMARK    4  A    between atoms: O_6  and  C_27
REMARK    5  A    between atoms: N_7  and  C_8
REMARK    6  A    between atoms: N_7  and  C_14
REMARK    7  A    between atoms: C_9  and  C_13
REMARK    8  A    between atoms: C_14  and  C_17
REMARK    9  A    between atoms: C_23  and  C_26
REMARK                            x       y       z     vdW  Elec       q    Type
REMARK                         _______ _______ _______ _____ _____    ______ ____
ROOT
ATOM      8  C   UNL     1      -5.518  -9.443  11.063  0.00  0.00    +0.092 C 
ATOM      9  C   UNL     1      -3.974  -9.380  11.087  0.00  0.00    +0.041 C 
ATOM     10  C   UNL     1      -5.880  -8.631   9.820  0.00  0.00    +0.160 C 
ATOM     11  C   UNL     1      -3.545  -9.156   9.612  0.00  0.00    +0.043 C 
ATOM     12  C   UNL     1      -4.842  -9.096   8.803  0.00  0.00    +0.145 C 
ENDROOT
BRANCH   9  13
ATOM     13  C   UNL     1      -3.338 -10.589  11.740  0.00  0.00    -0.042 A 
ATOM     15  C   UNL     1      -2.509 -10.426  12.850  0.00  0.00    +0.007 A 
ATOM     16  C   UNL     1      -3.579 -11.865  11.230  0.00  0.00    +0.007 A 
ATOM     18  C   UNL     1      -1.922 -11.539  13.451  0.00  0.00    +0.046 A 
ATOM     19  C   UNL     1      -2.992 -12.978  11.831  0.00  0.00    +0.046 A 
ATOM     20  C   UNL     1      -2.163 -12.815  12.942  0.00  0.00    +0.120 A 
BRANCH  20   6
ATOM      6  O   UNL     1      -1.589 -13.902  13.528  0.00  0.00    -0.495 OA
ATOM     27  C   UNL     1      -2.462 -14.950  13.946  0.00  0.00    +0.277 C 
ENDBRANCH  20   6
ENDBRANCH   9  13
BRANCH  10   4
ATOM      4  O   UNL     1      -7.201  -8.895   9.389  0.00  0.00    -0.388 OA
ATOM     29  H   UNL     1      -7.201  -9.771   8.967  0.00  0.00    +0.210 HD
ENDBRANCH  10   4
BRANCH  12   5
ATOM      5  O   UNL     1      -5.168 -10.399   8.329  0.00  0.00    -0.389 OA
ATOM     30  H   UNL     1      -5.915 -10.724   8.860  0.00  0.00    +0.210 HD
ENDBRANCH  12   5
BRANCH   8   7
ATOM      7  N   UNL     1      -6.109  -8.877  12.269  0.00  0.00    -0.306 NA
ATOM     28  H   UNL     1      -5.365  -8.654  12.931  0.00  0.00    +0.123 HD
BRANCH   7  14
ATOM     14  C   UNL     1      -7.022  -9.824  12.894  0.00  0.00    +0.116 C 
BRANCH  14  17
ATOM     17  C   UNL     1      -6.298 -10.797  13.785  0.00  0.00    -0.033 A 
ATOM     21  C   UNL     1      -5.525 -10.329  14.848  0.00  0.00    +0.017 A 
ATOM     22  C   UNL     1      -6.399 -12.168  13.546  0.00  0.00    +0.005 A 
ATOM     23  C   UNL     1      -4.854 -11.231  15.672  0.00  0.00    +0.055 A 
ATOM     24  C   UNL     1      -5.728 -13.070  14.372  0.00  0.00    +0.001 A 
ATOM     25  C   UNL     1      -4.955 -12.602  15.435  0.00  0.00    +0.012 A 
BRANCH  23  26
ATOM      1  F   UNL     1      -3.732 -11.692  17.734  0.00  0.00    -0.166 F 
ATOM      2  F   UNL     1      -4.624  -9.727  17.518  0.00  0.00    -0.166 F 
ATOM      3  F   UNL     1      -2.826 -10.229  16.405  0.00  0.00    -0.166 F 
ATOM     26  C   UNL     1      -4.028 -10.731  16.809  0.00  0.00    +0.417 C 
ENDBRANCH  23  26
ENDBRANCH  14  17
ENDBRANCH   7  14
ENDBRANCH   8   7
TORSDOF 8
ENDMDL
