MODEL 1
REMARK VINA RESULT:      -6.5      0.000      0.000
REMARK  Name = 38026967
REMARK  12 active torsions:
REMARK  status: ('A' for Active; 'I' for Inactive)
REMARK    1  A    between atoms: O_3  and  C_27
REMARK    2  A    between atoms: O_3  and  C_29
REMARK    3  A    between atoms: N_6  and  C_16
REMARK    4  A    between atoms: C_8  and  C_12
REMARK    5  A    between atoms: C_9  and  C_16
REMARK    6  A    between atoms: C_11  and  C_15
REMARK    7  A    between atoms: C_12  and  C_17
REMARK    8  A    between atoms: C_12  and  C_18
REMARK    9  A    between atoms: C_13  and  C_19
REMARK   10  A    between atoms: C_15  and  C_20
REMARK   11  A    between atoms: C_25  and  C_27
REMARK   12  A    between atoms: C_26  and  C_28
REMARK                            x       y       z     vdW  Elec       q    Type
REMARK                         _______ _______ _______ _____ _____    ______ ____
ROOT
ATOM      8  C   UNL     1      15.224   8.436  20.611  0.00  0.00    +0.000 C 
ATOM      9  C   UNL     1      14.843   7.129  19.871  0.00  0.00    +0.032 C 
ATOM     10  C   UNL     1      14.612   8.453  22.019  0.00  0.00    +0.012 C 
ATOM     11  C   UNL     1      13.076   8.341  21.988  0.00  0.00    +0.023 C 
ATOM     13  C   UNL     1      12.611   7.236  21.061  0.00  0.00    -0.073 C 
ATOM     14  C   UNL     1      13.419   6.698  20.131  0.00  0.00    -0.022 C 
ATOM     19  C   UNL     1      11.209   6.732  21.260  0.00  0.00    +0.039 C 
ENDROOT
BRANCH   8  12
ATOM     12  C   UNL     1      16.744   8.614  20.703  0.00  0.00    -0.013 C 
ATOM     17  C   UNL     1      17.086   9.791  21.612  0.00  0.00    +0.007 C 
ATOM     18  C   UNL     1      17.399   7.332  21.208  0.00  0.00    +0.007 C 
ENDBRANCH   8  12
BRANCH  11  15
ATOM     15  C   UNL     1      12.432   9.680  21.613  0.00  0.00    +0.103 C 
BRANCH  15  20
ATOM      1  O   UNL     1      10.312   9.539  22.662  0.00  0.00    -0.276 OA
ATOM      4  O   UNL     1      13.678  15.070  25.690  0.00  0.00    -0.276 OA
ATOM      5  N   UNL     1      11.824  11.046  23.578  0.00  0.00    -0.298 N 
ATOM      7  N   UNL     1      12.143  13.612  24.734  0.00  0.00    -0.299 N 
ATOM     20  C   UNL     1      11.423  10.075  22.661  0.00  0.00    +0.216 C 
ATOM     21  C   UNL     1      10.901  11.488  24.626  0.00  0.00    +0.126 C 
ATOM     22  C   UNL     1      13.162  11.647  23.649  0.00  0.00    +0.126 C 
ATOM     23  C   UNL     1      10.806  13.010  24.662  0.00  0.00    +0.126 C 
ATOM     24  C   UNL     1      13.066  13.170  23.685  0.00  0.00    +0.126 C 
ATOM     26  C   UNL     1      12.546  14.581  25.652  0.00  0.00    +0.213 C 
ATOM     28  C   UNL     1      11.512  15.035  26.650  0.00  0.00    +0.109 C 
ENDBRANCH  15  20
ENDBRANCH  11  15
BRANCH   9  16
ATOM     16  C   UNL     1      15.069   7.263  18.360  0.00  0.00    +0.112 C 
BRANCH  16   6
ATOM      2  O   UNL     1      14.821  10.019  17.518  0.00  0.00    -0.273 OA
ATOM      6  N   UNL     1      13.942   7.874  17.730  0.00  0.00    -0.313 N 
ATOM     25  C   UNL     1      13.905   9.217  17.355  0.00  0.00    +0.239 C 
ATOM     30  H   UNL     1      13.146   7.286  17.496  0.00  0.00    +0.149 HD
BRANCH  25  27
ATOM     27  C   UNL     1      12.590   9.596  16.709  0.00  0.00    +0.255 C 
BRANCH  27   3
ATOM      3  O   UNL     1      11.883   8.443  16.303  0.00  0.00    -0.374 OA
ATOM     29  C   UNL     1      10.492   8.542  16.598  0.00  0.00    +0.194 C 
ENDBRANCH  27   3
ENDBRANCH  25  27
ENDBRANCH  16   6
ENDBRANCH   9  16
TORSDOF 7
ENDMDL
MODEL 2
REMARK VINA RESULT:      -6.1     26.997     29.729
REMARK  Name = 38026967
REMARK  12 active torsions:
REMARK  status: ('A' for Active; 'I' for Inactive)
REMARK    1  A    between atoms: O_3  and  C_27
REMARK    2  A    between atoms: O_3  and  C_29
REMARK    3  A    between atoms: N_6  and  C_16
REMARK    4  A    between atoms: C_8  and  C_12
REMARK    5  A    between atoms: C_9  and  C_16
REMARK    6  A    between atoms: C_11  and  C_15
REMARK    7  A    between atoms: C_12  and  C_17
REMARK    8  A    between atoms: C_12  and  C_18
REMARK    9  A    between atoms: C_13  and  C_19
REMARK   10  A    between atoms: C_15  and  C_20
REMARK   11  A    between atoms: C_25  and  C_27
REMARK   12  A    between atoms: C_26  and  C_28
REMARK                            x       y       z     vdW  Elec       q    Type
REMARK                         _______ _______ _______ _____ _____    ______ ____
ROOT
ATOM      8  C   UNL     1      -2.924 -12.541  13.257  0.00  0.00    +0.000 C 
ATOM      9  C   UNL     1      -1.911 -11.376  13.392  0.00  0.00    +0.032 C 
ATOM     10  C   UNL     1      -3.141 -12.894  11.778  0.00  0.00    +0.012 C 
ATOM     11  C   UNL     1      -3.663 -11.696  10.963  0.00  0.00    +0.023 C 
ATOM     13  C   UNL     1      -2.875 -10.434  11.249  0.00  0.00    -0.073 C 
ATOM     14  C   UNL     1      -2.087 -10.315  12.332  0.00  0.00    -0.022 C 
ATOM     19  C   UNL     1      -2.976  -9.328  10.236  0.00  0.00    +0.039 C 
ENDROOT
BRANCH   8  12
ATOM     12  C   UNL     1      -2.467 -13.785  14.026  0.00  0.00    -0.013 C 
ATOM     17  C   UNL     1      -3.649 -14.430  14.743  0.00  0.00    +0.007 C 
ATOM     18  C   UNL     1      -1.799 -14.778  13.081  0.00  0.00    +0.007 C 
ENDBRANCH   8  12
BRANCH  11  15
ATOM     15  C   UNL     1      -5.160 -11.473  11.205  0.00  0.00    +0.103 C 
BRANCH  15  20
ATOM      1  O   UNL     1      -5.851 -12.733   9.320  0.00  0.00    -0.276 OA
ATOM      4  O   UNL     1      -8.159  -6.059   8.218  0.00  0.00    -0.276 OA
ATOM      5  N   UNL     1      -6.665 -10.563   9.472  0.00  0.00    -0.298 N 
ATOM      7  N   UNL     1      -7.292  -8.205   8.032  0.00  0.00    -0.299 N 
ATOM     20  C   UNL     1      -5.920 -11.655   9.915  0.00  0.00    +0.216 C 
ATOM     21  C   UNL     1      -7.430 -10.657   8.226  0.00  0.00    +0.126 C 
ATOM     22  C   UNL     1      -6.829  -9.294  10.194  0.00  0.00    +0.126 C 
ATOM     23  C   UNL     1      -7.128  -9.473   7.311  0.00  0.00    +0.126 C 
ATOM     24  C   UNL     1      -6.526  -8.111   9.279  0.00  0.00    +0.126 C 
ATOM     26  C   UNL     1      -8.039  -7.114   7.591  0.00  0.00    +0.213 C 
ATOM     28  C   UNL     1      -8.733  -7.266   6.262  0.00  0.00    +0.109 C 
ENDBRANCH  15  20
ENDBRANCH  11  15
BRANCH   9  16
ATOM     16  C   UNL     1      -1.993 -10.731  14.781  0.00  0.00    +0.112 C 
BRANCH  16   6
ATOM      2  O   UNL     1      -3.624 -11.325  17.094  0.00  0.00    -0.273 OA
ATOM      6  N   UNL     1      -3.316 -10.262  15.046  0.00  0.00    -0.313 N 
ATOM     25  C   UNL     1      -4.035 -10.599  16.192  0.00  0.00    +0.239 C 
ATOM     30  H   UNL     1      -3.734  -9.607  14.390  0.00  0.00    +0.149 HD
BRANCH  25  27
ATOM     27  C   UNL     1      -5.409  -9.963  16.214  0.00  0.00    +0.255 C 
BRANCH  27   3
ATOM      3  O   UNL     1      -6.009 -10.118  17.482  0.00  0.00    -0.374 OA
ATOM     29  C   UNL     1      -7.406  -9.838  17.446  0.00  0.00    +0.194 C 
ENDBRANCH  27   3
ENDBRANCH  25  27
ENDBRANCH  16   6
ENDBRANCH   9  16
TORSDOF 7
ENDMDL
MODEL 3
REMARK VINA RESULT:      -6.0      4.943      8.652
REMARK  Name = 38026967
REMARK  12 active torsions:
REMARK  status: ('A' for Active; 'I' for Inactive)
REMARK    1  A    between atoms: O_3  and  C_27
REMARK    2  A    between atoms: O_3  and  C_29
REMARK    3  A    between atoms: N_6  and  C_16
REMARK    4  A    between atoms: C_8  and  C_12
REMARK    5  A    between atoms: C_9  and  C_16
REMARK    6  A    between atoms: C_11  and  C_15
REMARK    7  A    between atoms: C_12  and  C_17
REMARK    8  A    between atoms: C_12  and  C_18
REMARK    9  A    between atoms: C_13  and  C_19
REMARK   10  A    between atoms: C_15  and  C_20
REMARK   11  A    between atoms: C_25  and  C_27
REMARK   12  A    between atoms: C_26  and  C_28
REMARK                            x       y       z     vdW  Elec       q    Type
REMARK                         _______ _______ _______ _____ _____    ______ ____
ROOT
ATOM      8  C   UNL     1      20.964   5.833  22.040  0.00  0.00    +0.000 C 
ATOM      9  C   UNL     1      21.270   7.042  22.959  0.00  0.00    +0.032 C 
ATOM     10  C   UNL     1      20.404   6.313  20.692  0.00  0.00    +0.012 C 
ATOM     11  C   UNL     1      19.113   7.138  20.859  0.00  0.00    +0.023 C 
ATOM     13  C   UNL     1      19.251   8.185  21.946  0.00  0.00    -0.073 C 
ATOM     14  C   UNL     1      20.229   8.132  22.867  0.00  0.00    -0.022 C 
ATOM     19  C   UNL     1      18.265   9.320  21.921  0.00  0.00    +0.039 C 
ENDROOT
BRANCH   8  12
ATOM     12  C   UNL     1      22.207   4.968  21.806  0.00  0.00    -0.013 C 
ATOM     17  C   UNL     1      21.820   3.494  21.729  0.00  0.00    +0.007 C 
ATOM     18  C   UNL     1      22.928   5.405  20.536  0.00  0.00    +0.007 C 
ENDBRANCH   8  12
BRANCH  11  15
ATOM     15  C   UNL     1      17.907   6.231  21.120  0.00  0.00    +0.103 C 
BRANCH  15  20
ATOM      1  O   UNL     1      17.284   6.198  18.834  0.00  0.00    -0.276 OA
ATOM      4  O   UNL     1      11.624   8.703  22.408  0.00  0.00    -0.276 OA
ATOM      5  N   UNL     1      15.602   6.684  20.359  0.00  0.00    -0.298 N 
ATOM      7  N   UNL     1      13.321   8.282  20.879  0.00  0.00    -0.299 N 
ATOM     20  C   UNL     1      16.910   6.366  19.997  0.00  0.00    +0.216 C 
ATOM     21  C   UNL     1      14.574   6.836  19.327  0.00  0.00    +0.126 C 
ATOM     22  C   UNL     1      15.108   6.816  21.737  0.00  0.00    +0.126 C 
ATOM     23  C   UNL     1      13.815   8.149  19.503  0.00  0.00    +0.126 C 
ATOM     24  C   UNL     1      14.350   8.130  21.912  0.00  0.00    +0.126 C 
ATOM     26  C   UNL     1      12.013   8.596  21.242  0.00  0.00    +0.213 C 
ATOM     28  C   UNL     1      11.034   8.812  20.116  0.00  0.00    +0.109 C 
ENDBRANCH  15  20
ENDBRANCH  11  15
BRANCH   9  16
ATOM     16  C   UNL     1      21.420   6.601  24.420  0.00  0.00    +0.112 C 
BRANCH  16   6
ATOM      2  O   UNL     1      19.930   6.232  26.871  0.00  0.00    -0.273 OA
ATOM      6  N   UNL     1      20.955   7.619  25.309  0.00  0.00    -0.313 N 
ATOM     25  C   UNL     1      20.240   7.352  26.475  0.00  0.00    +0.239 C 
ATOM     30  H   UNL     1      21.206   8.584  25.106  0.00  0.00    +0.149 HD
BRANCH  25  27
ATOM     27  C   UNL     1      19.874   8.616  27.225  0.00  0.00    +0.255 C 
BRANCH  27   3
ATOM      3  O   UNL     1      20.294   8.536  28.570  0.00  0.00    -0.374 OA
ATOM     29  C   UNL     1      19.268   8.943  29.472  0.00  0.00    +0.194 C 
ENDBRANCH  27   3
ENDBRANCH  25  27
ENDBRANCH  16   6
ENDBRANCH   9  16
TORSDOF 7
ENDMDL
MODEL 4
REMARK VINA RESULT:      -5.9     14.686     18.899
REMARK  Name = 38026967
REMARK  12 active torsions:
REMARK  status: ('A' for Active; 'I' for Inactive)
REMARK    1  A    between atoms: O_3  and  C_27
REMARK    2  A    between atoms: O_3  and  C_29
REMARK    3  A    between atoms: N_6  and  C_16
REMARK    4  A    between atoms: C_8  and  C_12
REMARK    5  A    between atoms: C_9  and  C_16
REMARK    6  A    between atoms: C_11  and  C_15
REMARK    7  A    between atoms: C_12  and  C_17
REMARK    8  A    between atoms: C_12  and  C_18
REMARK    9  A    between atoms: C_13  and  C_19
REMARK   10  A    between atoms: C_15  and  C_20
REMARK   11  A    between atoms: C_25  and  C_27
REMARK   12  A    between atoms: C_26  and  C_28
REMARK                            x       y       z     vdW  Elec       q    Type
REMARK                         _______ _______ _______ _____ _____    ______ ____
ROOT
ATOM      8  C   UNL     1       8.904   8.540   4.872  0.00  0.00    +0.000 C 
ATOM      9  C   UNL     1       8.588   9.184   6.245  0.00  0.00    +0.032 C 
ATOM     10  C   UNL     1       8.431   7.079   4.843  0.00  0.00    +0.012 C 
ATOM     11  C   UNL     1       9.096   6.230   5.944  0.00  0.00    +0.023 C 
ATOM     13  C   UNL     1       9.062   6.926   7.289  0.00  0.00    -0.073 C 
ATOM     14  C   UNL     1       8.820   8.244   7.404  0.00  0.00    -0.022 C 
ATOM     19  C   UNL     1       9.266   6.063   8.503  0.00  0.00    +0.039 C 
ENDROOT
BRANCH   8  12
ATOM     12  C   UNL     1       8.259   9.316   3.718  0.00  0.00    -0.013 C 
ATOM     17  C   UNL     1       8.377   8.529   2.417  0.00  0.00    +0.007 C 
ATOM     18  C   UNL     1       6.799   9.623   4.035  0.00  0.00    +0.007 C 
ENDBRANCH   8  12
BRANCH  11  15
ATOM     15  C   UNL     1      10.530   5.850   5.559  0.00  0.00    +0.103 C 
BRANCH  15  20
ATOM      1  O   UNL     1      10.023   3.597   5.031  0.00  0.00    -0.276 OA
ATOM      4  O   UNL     1      14.017   6.060  -0.360  0.00  0.00    -0.276 OA
ATOM      5  N   UNL     1      11.074   4.838   3.373  0.00  0.00    -0.298 N 
ATOM      7  N   UNL     1      13.026   4.800   1.321  0.00  0.00    -0.299 N 
ATOM     20  C   UNL     1      10.514   4.657   4.637  0.00  0.00    +0.216 C 
ATOM     21  C   UNL     1      11.101   3.727   2.420  0.00  0.00    +0.126 C 
ATOM     22  C   UNL     1      11.598   6.106   2.848  0.00  0.00    +0.126 C 
ATOM     23  C   UNL     1      12.502   3.534   1.847  0.00  0.00    +0.126 C 
ATOM     24  C   UNL     1      13.000   5.912   2.276  0.00  0.00    +0.126 C 
ATOM     26  C   UNL     1      13.583   4.983   0.057  0.00  0.00    +0.213 C 
ATOM     28  C   UNL     1      13.642   3.769  -0.835  0.00  0.00    +0.109 C 
ENDBRANCH  15  20
ENDBRANCH  11  15
BRANCH   9  16
ATOM     16  C   UNL     1       9.403  10.466   6.455  0.00  0.00    +0.112 C 
BRANCH  16   6
ATOM      2  O   UNL     1      11.782  10.514   8.099  0.00  0.00    -0.273 OA
ATOM      6  N   UNL     1      10.753  10.285   6.023  0.00  0.00    -0.313 N 
ATOM     25  C   UNL     1      11.847  10.324   6.887  0.00  0.00    +0.239 C 
ATOM     30  H   UNL     1      10.919  10.064   5.044  0.00  0.00    +0.149 HD
BRANCH  25  27
ATOM     27  C   UNL     1      13.158  10.102   6.162  0.00  0.00    +0.255 C 
BRANCH  27   3
ATOM      3  O   UNL     1      13.952   9.158   6.847  0.00  0.00    -0.374 OA
ATOM     29  C   UNL     1      13.457   7.831   6.686  0.00  0.00    +0.194 C 
ENDBRANCH  27   3
ENDBRANCH  25  27
ENDBRANCH  16   6
ENDBRANCH   9  16
TORSDOF 7
ENDMDL
MODEL 5
REMARK VINA RESULT:      -5.8     26.251     29.664
REMARK  Name = 38026967
REMARK  12 active torsions:
REMARK  status: ('A' for Active; 'I' for Inactive)
REMARK    1  A    between atoms: O_3  and  C_27
REMARK    2  A    between atoms: O_3  and  C_29
REMARK    3  A    between atoms: N_6  and  C_16
REMARK    4  A    between atoms: C_8  and  C_12
REMARK    5  A    between atoms: C_9  and  C_16
REMARK    6  A    between atoms: C_11  and  C_15
REMARK    7  A    between atoms: C_12  and  C_17
REMARK    8  A    between atoms: C_12  and  C_18
REMARK    9  A    between atoms: C_13  and  C_19
REMARK   10  A    between atoms: C_15  and  C_20
REMARK   11  A    between atoms: C_25  and  C_27
REMARK   12  A    between atoms: C_26  and  C_28
REMARK                            x       y       z     vdW  Elec       q    Type
REMARK                         _______ _______ _______ _____ _____    ______ ____
ROOT
ATOM      8  C   UNL     1      -4.916 -12.260  16.080  0.00  0.00    +0.000 C 
ATOM      9  C   UNL     1      -4.136 -11.684  17.288  0.00  0.00    +0.032 C 
ATOM     10  C   UNL     1      -3.945 -12.706  14.977  0.00  0.00    +0.012 C 
ATOM     11  C   UNL     1      -3.059 -11.549  14.478  0.00  0.00    +0.023 C 
ATOM     13  C   UNL     1      -2.463 -10.760  15.627  0.00  0.00    -0.073 C 
ATOM     14  C   UNL     1      -2.950 -10.844  16.878  0.00  0.00    -0.022 C 
ATOM     19  C   UNL     1      -1.265  -9.908  15.313  0.00  0.00    +0.039 C 
ENDROOT
BRANCH   8  12
ATOM     12  C   UNL     1      -5.811 -13.435  16.489  0.00  0.00    -0.013 C 
ATOM     17  C   UNL     1      -7.187 -13.305  15.843  0.00  0.00    +0.007 C 
ATOM     18  C   UNL     1      -5.157 -14.759  16.107  0.00  0.00    +0.007 C 
ENDBRANCH   8  12
BRANCH  11  15
ATOM     15  C   UNL     1      -3.833 -10.631  13.526  0.00  0.00    +0.103 C 
BRANCH  15  20
ATOM      1  O   UNL     1      -2.171 -11.097  11.902  0.00  0.00    -0.276 OA
ATOM      4  O   UNL     1      -8.048  -9.254   8.275  0.00  0.00    -0.276 OA
ATOM      5  N   UNL     1      -4.324 -10.736  11.108  0.00  0.00    -0.298 N 
ATOM      7  N   UNL     1      -5.883  -9.548   9.063  0.00  0.00    -0.299 N 
ATOM     20  C   UNL     1      -3.360 -10.845  12.110  0.00  0.00    +0.216 C 
ATOM     21  C   UNL     1      -3.946 -10.927   9.706  0.00  0.00    +0.126 C 
ATOM     22  C   UNL     1      -5.759 -10.513  11.328  0.00  0.00    +0.126 C 
ATOM     23  C   UNL     1      -4.449  -9.773   8.844  0.00  0.00    +0.126 C 
ATOM     24  C   UNL     1      -6.261  -9.357  10.466  0.00  0.00    +0.126 C 
ATOM     26  C   UNL     1      -6.847  -9.443   8.062  0.00  0.00    +0.213 C 
ATOM     28  C   UNL     1      -6.361  -9.576   6.642  0.00  0.00    +0.109 C 
ENDBRANCH  15  20
ENDBRANCH  11  15
BRANCH   9  16
ATOM     16  C   UNL     1      -5.055 -10.861  18.198  0.00  0.00    +0.112 C 
BRANCH  16   6
ATOM      2  O   UNL     1      -7.902 -10.597  18.637  0.00  0.00    -0.273 OA
ATOM      6  N   UNL     1      -5.980 -10.093  17.425  0.00  0.00    -0.313 N 
ATOM     25  C   UNL     1      -7.343 -10.020  17.707  0.00  0.00    +0.239 C 
ATOM     30  H   UNL     1      -5.615  -9.529  16.662  0.00  0.00    +0.149 HD
BRANCH  25  27
ATOM     27  C   UNL     1      -8.085  -9.137  16.728  0.00  0.00    +0.255 C 
BRANCH  27   3
ATOM      3  O   UNL     1      -9.085  -8.391  17.388  0.00  0.00    -0.374 OA
ATOM     29  C   UNL     1      -9.897  -7.662  16.471  0.00  0.00    +0.194 C 
ENDBRANCH  27   3
ENDBRANCH  25  27
ENDBRANCH  16   6
ENDBRANCH   9  16
TORSDOF 7
ENDMDL
MODEL 6
REMARK VINA RESULT:      -5.7     25.858     29.477
REMARK  Name = 38026967
REMARK  12 active torsions:
REMARK  status: ('A' for Active; 'I' for Inactive)
REMARK    1  A    between atoms: O_3  and  C_27
REMARK    2  A    between atoms: O_3  and  C_29
REMARK    3  A    between atoms: N_6  and  C_16
REMARK    4  A    between atoms: C_8  and  C_12
REMARK    5  A    between atoms: C_9  and  C_16
REMARK    6  A    between atoms: C_11  and  C_15
REMARK    7  A    between atoms: C_12  and  C_17
REMARK    8  A    between atoms: C_12  and  C_18
REMARK    9  A    between atoms: C_13  and  C_19
REMARK   10  A    between atoms: C_15  and  C_20
REMARK   11  A    between atoms: C_25  and  C_27
REMARK   12  A    between atoms: C_26  and  C_28
REMARK                            x       y       z     vdW  Elec       q    Type
REMARK                         _______ _______ _______ _____ _____    ______ ____
ROOT
ATOM      8  C   UNL     1     -12.652   9.268  32.068  0.00  0.00    +0.000 C 
ATOM      9  C   UNL     1     -11.782   9.876  33.196  0.00  0.00    +0.032 C 
ATOM     10  C   UNL     1     -13.981   8.749  32.636  0.00  0.00    +0.012 C 
ATOM     11  C   UNL     1     -13.771   7.677  33.723  0.00  0.00    +0.023 C 
ATOM     13  C   UNL     1     -12.721   8.096  34.732  0.00  0.00    -0.073 C 
ATOM     14  C   UNL     1     -11.850   9.090  34.483  0.00  0.00    -0.022 C 
ATOM     19  C   UNL     1     -12.725   7.377  36.052  0.00  0.00    +0.039 C 
ENDROOT
BRANCH   8  12
ATOM     12  C   UNL     1     -12.926  10.281  30.951  0.00  0.00    -0.013 C 
ATOM     17  C   UNL     1     -11.989  10.039  29.772  0.00  0.00    +0.007 C 
ATOM     18  C   UNL     1     -14.384  10.203  30.508  0.00  0.00    +0.007 C 
ENDBRANCH   8  12
BRANCH  11  15
ATOM     15  C   UNL     1     -13.423   6.320  33.101  0.00  0.00    +0.103 C 
BRANCH  15  20
ATOM      1  O   UNL     1     -15.150   5.481  34.490  0.00  0.00    -0.276 OA
ATOM      4  O   UNL     1     -13.681   0.307  29.783  0.00  0.00    -0.276 OA
ATOM      5  N   UNL     1     -14.590   4.193  32.640  0.00  0.00    -0.298 N 
ATOM      7  N   UNL     1     -14.195   1.561  31.668  0.00  0.00    -0.299 N 
ATOM     20  C   UNL     1     -14.467   5.300  33.479  0.00  0.00    +0.216 C 
ATOM     21  C   UNL     1     -15.579   3.155  32.939  0.00  0.00    +0.126 C 
ATOM     22  C   UNL     1     -13.846   3.986  31.390  0.00  0.00    +0.126 C 
ATOM     23  C   UNL     1     -14.939   1.770  32.917  0.00  0.00    +0.126 C 
ATOM     24  C   UNL     1     -13.205   2.600  31.370  0.00  0.00    +0.126 C 
ATOM     26  C   UNL     1     -14.319   0.456  30.828  0.00  0.00    +0.213 C 
ATOM     28  C   UNL     1     -15.305  -0.603  31.249  0.00  0.00    +0.109 C 
ENDBRANCH  15  20
ENDBRANCH  11  15
BRANCH   9  16
ATOM     16  C   UNL     1     -10.320  10.011  32.755  0.00  0.00    +0.112 C 
BRANCH  16   6
ATOM      2  O   UNL     1      -8.455  11.765  34.100  0.00  0.00    -0.273 OA
ATOM      6  N   UNL     1      -9.434   9.672  33.823  0.00  0.00    -0.313 N 
ATOM     25  C   UNL     1      -8.563  10.584  34.418  0.00  0.00    +0.239 C 
ATOM     30  H   UNL     1      -9.480   8.730  34.204  0.00  0.00    +0.149 HD
BRANCH  25  27
ATOM     27  C   UNL     1      -7.742   9.955  35.523  0.00  0.00    +0.255 C 
BRANCH  27   3
ATOM      3  O   UNL     1      -8.486   8.961  36.193  0.00  0.00    -0.374 OA
ATOM     29  C   UNL     1      -8.517   9.179  37.602  0.00  0.00    +0.194 C 
ENDBRANCH  27   3
ENDBRANCH  25  27
ENDBRANCH  16   6
ENDBRANCH   9  16
TORSDOF 7
ENDMDL
MODEL 7
REMARK VINA RESULT:      -5.7      2.716      4.798
REMARK  Name = 38026967
REMARK  12 active torsions:
REMARK  status: ('A' for Active; 'I' for Inactive)
REMARK    1  A    between atoms: O_3  and  C_27
REMARK    2  A    between atoms: O_3  and  C_29
REMARK    3  A    between atoms: N_6  and  C_16
REMARK    4  A    between atoms: C_8  and  C_12
REMARK    5  A    between atoms: C_9  and  C_16
REMARK    6  A    between atoms: C_11  and  C_15
REMARK    7  A    between atoms: C_12  and  C_17
REMARK    8  A    between atoms: C_12  and  C_18
REMARK    9  A    between atoms: C_13  and  C_19
REMARK   10  A    between atoms: C_15  and  C_20
REMARK   11  A    between atoms: C_25  and  C_27
REMARK   12  A    between atoms: C_26  and  C_28
REMARK                            x       y       z     vdW  Elec       q    Type
REMARK                         _______ _______ _______ _____ _____    ______ ____
ROOT
ATOM      8  C   UNL     1      13.148   8.193  20.557  0.00  0.00    +0.000 C 
ATOM      9  C   UNL     1      13.847   7.344  19.465  0.00  0.00    +0.032 C 
ATOM     10  C   UNL     1      12.206   9.222  19.914  0.00  0.00    +0.012 C 
ATOM     11  C   UNL     1      12.949  10.174  18.957  0.00  0.00    +0.023 C 
ATOM     13  C   UNL     1      13.870   9.421  18.018  0.00  0.00    -0.073 C 
ATOM     14  C   UNL     1      14.249   8.153  18.255  0.00  0.00    -0.022 C 
ATOM     19  C   UNL     1      14.309  10.145  16.776  0.00  0.00    +0.039 C 
ENDROOT
BRANCH   8  12
ATOM     12  C   UNL     1      12.367   7.320  21.544  0.00  0.00    -0.013 C 
ATOM     17  C   UNL     1      11.359   8.164  22.317  0.00  0.00    +0.007 C 
ATOM     18  C   UNL     1      11.668   6.181  20.808  0.00  0.00    +0.007 C 
ENDBRANCH   8  12
BRANCH  11  15
ATOM     15  C   UNL     1      13.716  11.251  19.732  0.00  0.00    +0.103 C 
BRANCH  15  20
ATOM      1  O   UNL     1      13.122  13.298  18.697  0.00  0.00    -0.276 OA
ATOM      4  O   UNL     1      10.260  13.466  25.244  0.00  0.00    -0.276 OA
ATOM      5  N   UNL     1      12.130  12.848  20.748  0.00  0.00    -0.298 N 
ATOM      7  N   UNL     1      11.302  13.946  23.224  0.00  0.00    -0.299 N 
ATOM     20  C   UNL     1      12.966  12.557  19.670  0.00  0.00    +0.216 C 
ATOM     21  C   UNL     1      11.370  14.099  20.767  0.00  0.00    +0.126 C 
ATOM     22  C   UNL     1      11.866  11.955  21.884  0.00  0.00    +0.126 C 
ATOM     23  C   UNL     1      11.566  14.837  22.088  0.00  0.00    +0.126 C 
ATOM     24  C   UNL     1      12.064  12.694  23.206  0.00  0.00    +0.126 C 
ATOM     26  C   UNL     1      10.464  14.235  24.300  0.00  0.00    +0.213 C 
ATOM     28  C   UNL     1       9.778  15.576  24.280  0.00  0.00    +0.109 C 
ENDBRANCH  15  20
ENDBRANCH  11  15
BRANCH   9  16
ATOM     16  C   UNL     1      15.075   6.621  20.029  0.00  0.00    +0.112 C 
BRANCH  16   6
ATOM      2  O   UNL     1      17.958   6.432  20.165  0.00  0.00    -0.273 OA
ATOM      6  N   UNL     1      15.973   7.548  20.643  0.00  0.00    -0.313 N 
ATOM     25  C   UNL     1      17.357   7.380  20.663  0.00  0.00    +0.239 C 
ATOM     30  H   UNL     1      15.585   8.401  21.039  0.00  0.00    +0.149 HD
BRANCH  25  27
ATOM     27  C   UNL     1      18.062   8.512  21.379  0.00  0.00    +0.255 C 
BRANCH  27   3
ATOM      3  O   UNL     1      19.334   8.100  21.831  0.00  0.00    -0.374 OA
ATOM     29  C   UNL     1      19.826   8.942  22.871  0.00  0.00    +0.194 C 
ENDBRANCH  27   3
ENDBRANCH  25  27
ENDBRANCH  16   6
ENDBRANCH   9  16
TORSDOF 7
ENDMDL
MODEL 8
REMARK VINA RESULT:      -5.6     26.565     29.776
REMARK  Name = 38026967
REMARK  12 active torsions:
REMARK  status: ('A' for Active; 'I' for Inactive)
REMARK    1  A    between atoms: O_3  and  C_27
REMARK    2  A    between atoms: O_3  and  C_29
REMARK    3  A    between atoms: N_6  and  C_16
REMARK    4  A    between atoms: C_8  and  C_12
REMARK    5  A    between atoms: C_9  and  C_16
REMARK    6  A    between atoms: C_11  and  C_15
REMARK    7  A    between atoms: C_12  and  C_17
REMARK    8  A    between atoms: C_12  and  C_18
REMARK    9  A    between atoms: C_13  and  C_19
REMARK   10  A    between atoms: C_15  and  C_20
REMARK   11  A    between atoms: C_25  and  C_27
REMARK   12  A    between atoms: C_26  and  C_28
REMARK                            x       y       z     vdW  Elec       q    Type
REMARK                         _______ _______ _______ _____ _____    ______ ____
ROOT
ATOM      8  C   UNL     1      -5.508 -11.324  14.802  0.00  0.00    +0.000 C 
ATOM      9  C   UNL     1      -5.212 -10.899  16.262  0.00  0.00    +0.032 C 
ATOM     10  C   UNL     1      -4.370 -12.198  14.256  0.00  0.00    +0.012 C 
ATOM     11  C   UNL     1      -3.011 -11.471  14.286  0.00  0.00    +0.023 C 
ATOM     13  C   UNL     1      -2.765 -10.793  15.619  0.00  0.00    -0.073 C 
ATOM     14  C   UNL     1      -3.759 -10.559  16.494  0.00  0.00    -0.022 C 
ATOM     19  C   UNL     1      -1.342 -10.433  15.942  0.00  0.00    +0.039 C 
ENDROOT
BRANCH   8  12
ATOM     12  C   UNL     1      -6.839 -12.075  14.687  0.00  0.00    -0.013 C 
ATOM     17  C   UNL     1      -7.173 -12.345  13.223  0.00  0.00    +0.007 C 
ATOM     18  C   UNL     1      -6.784 -13.378  15.478  0.00  0.00    +0.007 C 
ENDBRANCH   8  12
BRANCH  11  15
ATOM     15  C   UNL     1      -2.895 -10.470  13.132  0.00  0.00    +0.103 C 
BRANCH  15  20
ATOM      1  O   UNL     1      -2.498 -12.111  11.469  0.00  0.00    -0.276 OA
ATOM      4  O   UNL     1      -7.452  -7.710   8.790  0.00  0.00    -0.276 OA
ATOM      5  N   UNL     1      -4.266 -10.654  11.087  0.00  0.00    -0.298 N 
ATOM      7  N   UNL     1      -5.643  -9.123   9.141  0.00  0.00    -0.299 N 
ATOM     20  C   UNL     1      -3.195 -11.158  11.824  0.00  0.00    +0.216 C 
ATOM     21  C   UNL     1      -4.621 -11.264   9.804  0.00  0.00    +0.126 C 
ATOM     22  C   UNL     1      -5.161  -9.572  11.517  0.00  0.00    +0.126 C 
ATOM     23  C   UNL     1      -4.748 -10.205   8.712  0.00  0.00    +0.126 C 
ATOM     24  C   UNL     1      -5.287  -8.512  10.425  0.00  0.00    +0.126 C 
ATOM     26  C   UNL     1      -6.715  -8.621   8.405  0.00  0.00    +0.213 C 
ATOM     28  C   UNL     1      -6.966  -9.255   7.061  0.00  0.00    +0.109 C 
ENDBRANCH  15  20
ENDBRANCH  11  15
BRANCH   9  16
ATOM     16  C   UNL     1      -6.089  -9.713  16.681  0.00  0.00    +0.112 C 
BRANCH  16   6
ATOM      2  O   UNL     1      -6.129 -10.320  19.509  0.00  0.00    -0.273 OA
ATOM      6  N   UNL     1      -7.207 -10.156  17.453  0.00  0.00    -0.313 N 
ATOM     25  C   UNL     1      -7.139 -10.427  18.818  0.00  0.00    +0.239 C 
ATOM     30  H   UNL     1      -8.111 -10.226  16.991  0.00  0.00    +0.149 HD
BRANCH  25  27
ATOM     27  C   UNL     1      -8.470 -10.880  19.380  0.00  0.00    +0.255 C 
BRANCH  27   3
ATOM      3  O   UNL     1      -8.330 -12.103  20.070  0.00  0.00    -0.374 OA
ATOM     29  C   UNL     1      -8.341 -13.218  19.183  0.00  0.00    +0.194 C 
ENDBRANCH  27   3
ENDBRANCH  25  27
ENDBRANCH  16   6
ENDBRANCH   9  16
TORSDOF 7
ENDMDL
MODEL 9
REMARK VINA RESULT:      -5.5     27.186     29.611
REMARK  Name = 38026967
REMARK  12 active torsions:
REMARK  status: ('A' for Active; 'I' for Inactive)
REMARK    1  A    between atoms: O_3  and  C_27
REMARK    2  A    between atoms: O_3  and  C_29
REMARK    3  A    between atoms: N_6  and  C_16
REMARK    4  A    between atoms: C_8  and  C_12
REMARK    5  A    between atoms: C_9  and  C_16
REMARK    6  A    between atoms: C_11  and  C_15
REMARK    7  A    between atoms: C_12  and  C_17
REMARK    8  A    between atoms: C_12  and  C_18
REMARK    9  A    between atoms: C_13  and  C_19
REMARK   10  A    between atoms: C_15  and  C_20
REMARK   11  A    between atoms: C_25  and  C_27
REMARK   12  A    between atoms: C_26  and  C_28
REMARK                            x       y       z     vdW  Elec       q    Type
REMARK                         _______ _______ _______ _____ _____    ______ ____
ROOT
ATOM      8  C   UNL     1      -6.308  -9.746   9.977  0.00  0.00    +0.000 C 
ATOM      9  C   UNL     1      -5.413  -9.232   8.821  0.00  0.00    +0.032 C 
ATOM     10  C   UNL     1      -5.851  -9.150  11.316  0.00  0.00    +0.012 C 
ATOM     11  C   UNL     1      -4.386  -9.501  11.640  0.00  0.00    +0.023 C 
ATOM     13  C   UNL     1      -3.475  -9.272  10.450  0.00  0.00    -0.073 C 
ATOM     14  C   UNL     1      -3.954  -9.141   9.201  0.00  0.00    -0.022 C 
ATOM     19  C   UNL     1      -2.005  -9.151  10.737  0.00  0.00    +0.039 C 
ENDROOT
BRANCH   8  12
ATOM     12  C   UNL     1      -7.787  -9.417   9.741  0.00  0.00    -0.013 C 
ATOM     17  C   UNL     1      -8.594  -9.657  11.013  0.00  0.00    +0.007 C 
ATOM     18  C   UNL     1      -7.941  -7.976   9.265  0.00  0.00    +0.007 C 
ENDBRANCH   8  12
BRANCH  11  15
ATOM     15  C   UNL     1      -4.264 -10.940  12.155  0.00  0.00    +0.103 C 
BRANCH  15  20
ATOM      1  O   UNL     1      -2.267 -11.157  13.413  0.00  0.00    -0.276 OA
ATOM      4  O   UNL     1      -7.599 -10.879  18.165  0.00  0.00    -0.276 OA
ATOM      5  N   UNL     1      -4.210 -10.744  14.616  0.00  0.00    -0.298 N 
ATOM      7  N   UNL     1      -5.667 -11.358  16.967  0.00  0.00    -0.299 N 
ATOM     20  C   UNL     1      -3.483 -10.957  13.445  0.00  0.00    +0.216 C 
ATOM     21  C   UNL     1      -3.526 -10.749  15.912  0.00  0.00    +0.126 C 
ATOM     22  C   UNL     1      -5.643 -10.429  14.683  0.00  0.00    +0.126 C 
ATOM     23  C   UNL     1      -4.235 -11.673  16.899  0.00  0.00    +0.126 C 
ATOM     24  C   UNL     1      -6.351 -11.353  15.670  0.00  0.00    +0.126 C 
ATOM     26  C   UNL     1      -6.394 -11.142  18.136  0.00  0.00    +0.213 C 
ATOM     28  C   UNL     1      -5.629 -11.240  19.432  0.00  0.00    +0.109 C 
ENDBRANCH  15  20
ENDBRANCH  11  15
BRANCH   9  16
ATOM     16  C   UNL     1      -5.564 -10.110   7.573  0.00  0.00    +0.112 C 
BRANCH  16   6
ATOM      2  O   UNL     1      -6.668 -11.217   5.140  0.00  0.00    -0.273 OA
ATOM      6  N   UNL     1      -6.240  -9.402   6.533  0.00  0.00    -0.313 N 
ATOM     25  C   UNL     1      -6.744 -10.016   5.387  0.00  0.00    +0.239 C 
ATOM     30  H   UNL     1      -6.409  -8.407   6.661  0.00  0.00    +0.149 HD
BRANCH  25  27
ATOM     27  C   UNL     1      -7.412  -9.029   4.454  0.00  0.00    +0.255 C 
BRANCH  27   3
ATOM      3  O   UNL     1      -7.632  -7.797   5.107  0.00  0.00    -0.374 OA
ATOM     29  C   UNL     1      -9.021  -7.499   5.225  0.00  0.00    +0.194 C 
ENDBRANCH  27   3
ENDBRANCH  25  27
ENDBRANCH  16   6
ENDBRANCH   9  16
TORSDOF 7
ENDMDL
MODEL 10
REMARK VINA RESULT:      -5.5     13.326     18.467
REMARK  Name = 38026967
REMARK  12 active torsions:
REMARK  status: ('A' for Active; 'I' for Inactive)
REMARK    1  A    between atoms: O_3  and  C_27
REMARK    2  A    between atoms: O_3  and  C_29
REMARK    3  A    between atoms: N_6  and  C_16
REMARK    4  A    between atoms: C_8  and  C_12
REMARK    5  A    between atoms: C_9  and  C_16
REMARK    6  A    between atoms: C_11  and  C_15
REMARK    7  A    between atoms: C_12  and  C_17
REMARK    8  A    between atoms: C_12  and  C_18
REMARK    9  A    between atoms: C_13  and  C_19
REMARK   10  A    between atoms: C_15  and  C_20
REMARK   11  A    between atoms: C_25  and  C_27
REMARK   12  A    between atoms: C_26  and  C_28
REMARK                            x       y       z     vdW  Elec       q    Type
REMARK                         _______ _______ _______ _____ _____    ______ ____
ROOT
ATOM      8  C   UNL     1       9.271   9.067   5.813  0.00  0.00    +0.000 C 
ATOM      9  C   UNL     1       9.050   9.262   7.334  0.00  0.00    +0.032 C 
ATOM     10  C   UNL     1       8.664   7.735   5.348  0.00  0.00    +0.012 C 
ATOM     11  C   UNL     1       9.273   6.529   6.088  0.00  0.00    +0.023 C 
ATOM     13  C   UNL     1       9.335   6.759   7.584  0.00  0.00    -0.073 C 
ATOM     14  C   UNL     1       9.220   7.985   8.123  0.00  0.00    -0.022 C 
ATOM     19  C   UNL     1       9.487   5.540   8.451  0.00  0.00    +0.039 C 
ENDROOT
BRANCH   8  12
ATOM     12  C   UNL     1       8.675  10.221   4.999  0.00  0.00    -0.013 C 
ATOM     17  C   UNL     1       9.494  10.459   3.734  0.00  0.00    +0.007 C 
ATOM     18  C   UNL     1       7.218   9.930   4.654  0.00  0.00    +0.007 C 
ENDBRANCH   8  12
BRANCH  11  15
ATOM     15  C   UNL     1      10.655   6.177   5.529  0.00  0.00    +0.103 C 
BRANCH  15  20
ATOM      1  O   UNL     1      10.019   3.934   5.107  0.00  0.00    -0.276 OA
ATOM      4  O   UNL     1      14.051   5.942  -0.442  0.00  0.00    -0.276 OA
ATOM      5  N   UNL     1      11.108   5.044   3.382  0.00  0.00    -0.298 N 
ATOM      7  N   UNL     1      13.022   4.812   1.306  0.00  0.00    -0.299 N 
ATOM     20  C   UNL     1      10.560   4.948   4.661  0.00  0.00    +0.216 C 
ATOM     21  C   UNL     1      11.059   3.893   2.477  0.00  0.00    +0.126 C 
ATOM     22  C   UNL     1      11.691   6.258   2.795  0.00  0.00    +0.126 C 
ATOM     23  C   UNL     1      12.438   3.600   1.893  0.00  0.00    +0.126 C 
ATOM     24  C   UNL     1      13.071   5.963   2.212  0.00  0.00    +0.126 C 
ATOM     26  C   UNL     1      13.567   4.909   0.027  0.00  0.00    +0.213 C 
ATOM     28  C   UNL     1      13.545   3.657  -0.812  0.00  0.00    +0.109 C 
ENDBRANCH  15  20
ENDBRANCH  11  15
BRANCH   9  16
ATOM     16  C   UNL     1       9.985  10.339   7.895  0.00  0.00    +0.112 C 
BRANCH  16   6
ATOM      2  O   UNL     1      10.939  12.839   8.995  0.00  0.00    -0.273 OA
ATOM      6  N   UNL     1       9.274  11.229   8.758  0.00  0.00    -0.313 N 
ATOM     25  C   UNL     1       9.812  12.420   9.245  0.00  0.00    +0.239 C 
ATOM     30  H   UNL     1       8.308  11.007   8.986  0.00  0.00    +0.149 HD
BRANCH  25  27
ATOM     27  C   UNL     1       8.841  13.165  10.136  0.00  0.00    +0.255 C 
BRANCH  27   3
ATOM      3  O   UNL     1       7.529  12.674   9.963  0.00  0.00    -0.374 OA
ATOM     29  C   UNL     1       6.548  13.662  10.271  0.00  0.00    +0.194 C 
ENDBRANCH  27   3
ENDBRANCH  25  27
ENDBRANCH  16   6
ENDBRANCH   9  16
TORSDOF 7
ENDMDL
