MODEL 1
REMARK VINA RESULT:      -6.9      0.000      0.000
REMARK  Name = 45783550
REMARK  9 active torsions:
REMARK  status: ('A' for Active; 'I' for Inactive)
REMARK    1  A    between atoms: O_3  and  C_26
REMARK    2  A    between atoms: O_3  and  C_27
REMARK    3  A    between atoms: O_4  and  C_28
REMARK    4  A    between atoms: O_4  and  C_29
REMARK    5  A    between atoms: N_5  and  C_13
REMARK    6  A    between atoms: C_9  and  C_14
REMARK    7  A    between atoms: C_13  and  C_15
REMARK    8  A    between atoms: C_18  and  C_21
REMARK    9  A    between atoms: C_27  and  C_28
REMARK                            x       y       z     vdW  Elec       q    Type
REMARK                         _______ _______ _______ _____ _____    ______ ____
ROOT
ATOM      2  O   UNL     1     -17.427   2.304  21.926  0.00  0.00    -0.336 OA
ATOM      6  N   UNL     1     -17.259   3.820  23.567  0.00  0.00    -0.190 NA
ATOM      7  N   UNL     1     -17.132   1.586  23.092  0.00  0.00    -0.056 NA
ATOM     14  C   UNL     1     -17.484   3.611  22.294  0.00  0.00    +0.245 A 
ATOM     18  C   UNL     1     -17.048   2.549  24.015  0.00  0.00    +0.204 A 
ENDROOT
BRANCH  18  21
ATOM      8  N   UNL     1     -16.681   0.684  27.211  0.00  0.00    -0.221 NA
ATOM     21  C   UNL     1     -16.755   2.275  25.392  0.00  0.00    +0.041 A 
ATOM     23  C   UNL     1     -16.281   3.273  26.236  0.00  0.00    +0.018 A 
ATOM     24  C   UNL     1     -16.938   1.008  25.924  0.00  0.00    +0.126 A 
ATOM     25  C   UNL     1     -16.007   2.977  27.567  0.00  0.00    +0.068 A 
ATOM     26  C   UNL     1     -16.222   1.680  28.001  0.00  0.00    +0.215 A 
BRANCH  26   3
ATOM      3  O   UNL     1     -15.959   1.364  29.308  0.00  0.00    -0.474 OA
BRANCH   3  27
ATOM     27  C   UNL     1     -14.661   1.682  29.796  0.00  0.00    +0.258 C 
BRANCH  27  28
ATOM     28  C   UNL     1     -14.090   0.473  30.510  0.00  0.00    +0.200 C 
BRANCH  28   4
ATOM      4  O   UNL     1     -14.388  -0.695  29.756  0.00  0.00    -0.380 OA
ATOM     29  C   UNL     1     -13.223  -1.233  29.147  0.00  0.00    +0.194 C 
ENDBRANCH  28   4
ENDBRANCH  27  28
ENDBRANCH   3  27
ENDBRANCH  26   3
ENDBRANCH  18  21
BRANCH  14   9
ATOM      5  N   UNL     1     -16.575   5.197  20.605  0.00  0.00    -0.287 NA
ATOM      9  C   UNL     1     -17.793   4.608  21.197  0.00  0.00    +0.146 C 
ATOM     10  C   UNL     1     -18.536   3.971  20.008  0.00  0.00    +0.030 C 
ATOM     11  C   UNL     1     -17.694   4.306  18.785  0.00  0.00    +0.017 C 
ATOM     12  C   UNL     1     -16.907   5.527  19.218  0.00  0.00    +0.085 C 
BRANCH   5  13
ATOM     13  C   UNL     1     -16.081   6.354  21.341  0.00  0.00    +0.123 C 
BRANCH  13  15
ATOM      1  F   UNL     1     -14.126   4.665  22.507  0.00  0.00    -0.205 F 
ATOM     15  C   UNL     1     -14.601   6.552  21.146  0.00  0.00    +0.002 A 
ATOM     16  C   UNL     1     -13.693   5.682  21.749  0.00  0.00    +0.128 A 
ATOM     17  C   UNL     1     -14.140   7.606  20.358  0.00  0.00    +0.008 A 
ATOM     19  C   UNL     1     -12.323   5.867  21.565  0.00  0.00    +0.038 A 
ATOM     20  C   UNL     1     -12.770   7.791  20.174  0.00  0.00    +0.000 A 
ATOM     22  C   UNL     1     -11.861   6.922  20.778  0.00  0.00    +0.003 A 
ENDBRANCH  13  15
ENDBRANCH   5  13
ENDBRANCH  14   9
TORSDOF 8
ENDMDL
MODEL 2
REMARK VINA RESULT:      -6.7     29.242     32.331
REMARK  Name = 45783550
REMARK  9 active torsions:
REMARK  status: ('A' for Active; 'I' for Inactive)
REMARK    1  A    between atoms: O_3  and  C_26
REMARK    2  A    between atoms: O_3  and  C_27
REMARK    3  A    between atoms: O_4  and  C_28
REMARK    4  A    between atoms: O_4  and  C_29
REMARK    5  A    between atoms: N_5  and  C_13
REMARK    6  A    between atoms: C_9  and  C_14
REMARK    7  A    between atoms: C_13  and  C_15
REMARK    8  A    between atoms: C_18  and  C_21
REMARK    9  A    between atoms: C_27  and  C_28
REMARK                            x       y       z     vdW  Elec       q    Type
REMARK                         _______ _______ _______ _____ _____    ______ ____
ROOT
ATOM      2  O   UNL     1      13.945   6.710  20.097  0.00  0.00    -0.336 OA
ATOM      6  N   UNL     1      15.692   7.501  18.939  0.00  0.00    -0.190 NA
ATOM      7  N   UNL     1      15.069   6.525  20.911  0.00  0.00    -0.056 NA
ATOM     14  C   UNL     1      14.400   7.290  18.955  0.00  0.00    +0.245 A 
ATOM     18  C   UNL     1      16.059   7.016  20.160  0.00  0.00    +0.204 A 
ENDROOT
BRANCH  18  21
ATOM      8  N   UNL     1      19.642   6.076  20.494  0.00  0.00    -0.221 NA
ATOM     21  C   UNL     1      17.425   7.035  20.599  0.00  0.00    +0.041 A 
ATOM     23  C   UNL     1      17.868   7.979  21.518  0.00  0.00    +0.018 A 
ATOM     24  C   UNL     1      18.342   6.113  20.121  0.00  0.00    +0.126 A 
ATOM     25  C   UNL     1      19.198   7.973  21.925  0.00  0.00    +0.068 A 
ATOM     26  C   UNL     1      20.036   7.010  21.389  0.00  0.00    +0.215 A 
BRANCH  26   3
ATOM      3  O   UNL     1      21.351   6.982  21.775  0.00  0.00    -0.474 OA
BRANCH   3  27
ATOM     27  C   UNL     1      22.291   6.525  20.811  0.00  0.00    +0.258 C 
BRANCH  27  28
ATOM     28  C   UNL     1      23.123   5.414  21.421  0.00  0.00    +0.200 C 
BRANCH  28   4
ATOM      4  O   UNL     1      22.839   4.196  20.743  0.00  0.00    -0.380 OA
ATOM     29  C   UNL     1      21.899   3.408  21.461  0.00  0.00    +0.194 C 
ENDBRANCH  28   4
ENDBRANCH  27  28
ENDBRANCH   3  27
ENDBRANCH  26   3
ENDBRANCH  18  21
BRANCH  14   9
ATOM      5  N   UNL     1      12.518   8.757  18.248  0.00  0.00    -0.287 NA
ATOM      9  C   UNL     1      13.363   7.598  17.895  0.00  0.00    +0.146 C 
ATOM     10  C   UNL     1      13.991   7.972  16.540  0.00  0.00    +0.030 C 
ATOM     11  C   UNL     1      13.394   9.326  16.183  0.00  0.00    +0.017 C 
ATOM     12  C   UNL     1      12.108   9.370  16.984  0.00  0.00    +0.085 C 
BRANCH   5  13
ATOM     13  C   UNL     1      11.376   8.401  19.081  0.00  0.00    +0.123 C 
BRANCH  13  15
ATOM      1  F   UNL     1      10.210   7.318  21.425  0.00  0.00    -0.205 F 
ATOM     15  C   UNL     1      11.420   9.093  20.417  0.00  0.00    +0.002 A 
ATOM     16  C   UNL     1      10.826   8.503  21.532  0.00  0.00    +0.128 A 
ATOM     17  C   UNL     1      12.060  10.327  20.539  0.00  0.00    +0.008 A 
ATOM     19  C   UNL     1      10.870   9.146  22.769  0.00  0.00    +0.038 A 
ATOM     20  C   UNL     1      12.104  10.970  21.776  0.00  0.00    +0.000 A 
ATOM     22  C   UNL     1      11.509  10.380  22.891  0.00  0.00    +0.003 A 
ENDBRANCH  13  15
ENDBRANCH   5  13
ENDBRANCH  14   9
TORSDOF 8
ENDMDL
MODEL 3
REMARK VINA RESULT:      -6.4     17.724     19.337
REMARK  Name = 45783550
REMARK  9 active torsions:
REMARK  status: ('A' for Active; 'I' for Inactive)
REMARK    1  A    between atoms: O_3  and  C_26
REMARK    2  A    between atoms: O_3  and  C_27
REMARK    3  A    between atoms: O_4  and  C_28
REMARK    4  A    between atoms: O_4  and  C_29
REMARK    5  A    between atoms: N_5  and  C_13
REMARK    6  A    between atoms: C_9  and  C_14
REMARK    7  A    between atoms: C_13  and  C_15
REMARK    8  A    between atoms: C_18  and  C_21
REMARK    9  A    between atoms: C_27  and  C_28
REMARK                            x       y       z     vdW  Elec       q    Type
REMARK                         _______ _______ _______ _____ _____    ______ ____
ROOT
ATOM      2  O   UNL     1      -4.052 -11.046  17.894  0.00  0.00    -0.336 OA
ATOM      6  N   UNL     1      -5.444 -10.571  16.205  0.00  0.00    -0.190 NA
ATOM      7  N   UNL     1      -5.285 -10.734  18.480  0.00  0.00    -0.056 NA
ATOM     14  C   UNL     1      -4.233 -10.926  16.552  0.00  0.00    +0.245 A 
ATOM     18  C   UNL     1      -6.054 -10.465  17.421  0.00  0.00    +0.204 A 
ENDROOT
BRANCH  18  21
ATOM      8  N   UNL     1      -9.272  -8.713  16.786  0.00  0.00    -0.221 NA
ATOM     21  C   UNL     1      -7.432 -10.087  17.543  0.00  0.00    +0.041 A 
ATOM     23  C   UNL     1      -8.257 -10.683  18.490  0.00  0.00    +0.018 A 
ATOM     24  C   UNL     1      -7.982  -9.116  16.722  0.00  0.00    +0.126 A 
ATOM     25  C   UNL     1      -9.588 -10.295  18.586  0.00  0.00    +0.068 A 
ATOM     26  C   UNL     1     -10.043  -9.316  17.719  0.00  0.00    +0.215 A 
BRANCH  26   3
ATOM      3  O   UNL     1     -11.352  -8.916  17.793  0.00  0.00    -0.474 OA
BRANCH   3  27
ATOM     27  C   UNL     1     -12.136  -9.068  16.616  0.00  0.00    +0.258 C 
BRANCH  27  28
ATOM     28  C   UNL     1     -12.742  -7.728  16.249  0.00  0.00    +0.200 C 
BRANCH  28   4
ATOM      4  O   UNL     1     -11.953  -7.124  15.232  0.00  0.00    -0.380 OA
ATOM     29  C   UNL     1     -11.307  -5.950  15.701  0.00  0.00    +0.194 C 
ENDBRANCH  28   4
ENDBRANCH  27  28
ENDBRANCH   3  27
ENDBRANCH  26   3
ENDBRANCH  18  21
BRANCH  14   9
ATOM      5  N   UNL     1      -3.071 -10.489  14.396  0.00  0.00    -0.287 NA
ATOM      9  C   UNL     1      -3.029 -11.216  15.680  0.00  0.00    +0.146 C 
ATOM     10  C   UNL     1      -1.704 -10.781  16.333  0.00  0.00    +0.030 C 
ATOM     11  C   UNL     1      -1.043  -9.860  15.317  0.00  0.00    +0.017 C 
ATOM     12  C   UNL     1      -1.679 -10.265  14.002  0.00  0.00    +0.085 C 
BRANCH   5  13
ATOM     13  C   UNL     1      -3.827 -11.188  13.364  0.00  0.00    +0.123 C 
BRANCH  13  15
ATOM      1  F   UNL     1      -6.067  -9.458  13.244  0.00  0.00    -0.205 F 
ATOM     15  C   UNL     1      -4.117 -10.300  12.184  0.00  0.00    +0.002 A 
ATOM     16  C   UNL     1      -5.239  -9.471  12.190  0.00  0.00    +0.128 A 
ATOM     17  C   UNL     1      -3.260 -10.305  11.083  0.00  0.00    +0.008 A 
ATOM     19  C   UNL     1      -5.505  -8.648  11.096  0.00  0.00    +0.038 A 
ATOM     20  C   UNL     1      -3.527  -9.483   9.989  0.00  0.00    +0.000 A 
ATOM     22  C   UNL     1      -4.649  -8.654   9.995  0.00  0.00    +0.003 A 
ENDBRANCH  13  15
ENDBRANCH   5  13
ENDBRANCH  14   9
TORSDOF 8
ENDMDL
MODEL 4
REMARK VINA RESULT:      -6.3      1.708      2.174
REMARK  Name = 45783550
REMARK  9 active torsions:
REMARK  status: ('A' for Active; 'I' for Inactive)
REMARK    1  A    between atoms: O_3  and  C_26
REMARK    2  A    between atoms: O_3  and  C_27
REMARK    3  A    between atoms: O_4  and  C_28
REMARK    4  A    between atoms: O_4  and  C_29
REMARK    5  A    between atoms: N_5  and  C_13
REMARK    6  A    between atoms: C_9  and  C_14
REMARK    7  A    between atoms: C_13  and  C_15
REMARK    8  A    between atoms: C_18  and  C_21
REMARK    9  A    between atoms: C_27  and  C_28
REMARK                            x       y       z     vdW  Elec       q    Type
REMARK                         _______ _______ _______ _____ _____    ______ ____
ROOT
ATOM      2  O   UNL     1     -16.634   2.771  22.985  0.00  0.00    -0.336 OA
ATOM      6  N   UNL     1     -16.727   4.140  24.755  0.00  0.00    -0.190 NA
ATOM      7  N   UNL     1     -16.448   1.963  24.113  0.00  0.00    -0.056 NA
ATOM     14  C   UNL     1     -16.790   4.038  23.452  0.00  0.00    +0.245 A 
ATOM     18  C   UNL     1     -16.516   2.842  25.118  0.00  0.00    +0.204 A 
ENDROOT
BRANCH  18  21
ATOM      8  N   UNL     1     -16.470   0.716  28.169  0.00  0.00    -0.221 NA
ATOM     21  C   UNL     1     -16.377   2.456  26.492  0.00  0.00    +0.041 A 
ATOM     23  C   UNL     1     -16.031   3.386  27.466  0.00  0.00    +0.018 A 
ATOM     24  C   UNL     1     -16.584   1.145  26.891  0.00  0.00    +0.126 A 
ATOM     25  C   UNL     1     -15.904   2.982  28.790  0.00  0.00    +0.068 A 
ATOM     26  C   UNL     1     -16.132   1.649  29.087  0.00  0.00    +0.215 A 
BRANCH  26   3
ATOM      3  O   UNL     1     -16.013   1.227  30.385  0.00  0.00    -0.474 OA
BRANCH   3  27
ATOM     27  C   UNL     1     -15.298   2.078  31.273  0.00  0.00    +0.258 C 
BRANCH  27  28
ATOM     28  C   UNL     1     -13.874   1.574  31.401  0.00  0.00    +0.200 C 
BRANCH  28   4
ATOM      4  O   UNL     1     -13.158   2.424  32.288  0.00  0.00    -0.380 OA
ATOM     29  C   UNL     1     -13.401   3.795  32.006  0.00  0.00    +0.194 C 
ENDBRANCH  28   4
ENDBRANCH  27  28
ENDBRANCH   3  27
ENDBRANCH  26   3
ENDBRANCH  18  21
BRANCH  14   9
ATOM      5  N   UNL     1     -15.756   5.536  21.754  0.00  0.00    -0.287 NA
ATOM      9  C   UNL     1     -17.010   5.118  22.413  0.00  0.00    +0.146 C 
ATOM     10  C   UNL     1     -17.922   4.656  21.261  0.00  0.00    +0.030 C 
ATOM     11  C   UNL     1     -17.119   4.910  19.992  0.00  0.00    +0.017 C 
ATOM     12  C   UNL     1     -16.123   5.974  20.407  0.00  0.00    +0.085 C 
BRANCH   5  13
ATOM     13  C   UNL     1     -15.038   6.569  22.491  0.00  0.00    +0.123 C 
BRANCH  13  15
ATOM      1  F   UNL     1     -14.649   9.246  21.649  0.00  0.00    -0.205 F 
ATOM     15  C   UNL     1     -13.808   7.029  21.754  0.00  0.00    +0.002 A 
ATOM     16  C   UNL     1     -13.681   8.363  21.369  0.00  0.00    +0.128 A 
ATOM     17  C   UNL     1     -12.794   6.118  21.459  0.00  0.00    +0.008 A 
ATOM     19  C   UNL     1     -12.541   8.787  20.687  0.00  0.00    +0.038 A 
ATOM     20  C   UNL     1     -11.654   6.541  20.777  0.00  0.00    +0.000 A 
ATOM     22  C   UNL     1     -11.526   7.876  20.391  0.00  0.00    +0.003 A 
ENDBRANCH  13  15
ENDBRANCH   5  13
ENDBRANCH  14   9
TORSDOF 8
ENDMDL
MODEL 5
REMARK VINA RESULT:      -6.2     31.690     35.348
REMARK  Name = 45783550
REMARK  9 active torsions:
REMARK  status: ('A' for Active; 'I' for Inactive)
REMARK    1  A    between atoms: O_3  and  C_26
REMARK    2  A    between atoms: O_3  and  C_27
REMARK    3  A    between atoms: O_4  and  C_28
REMARK    4  A    between atoms: O_4  and  C_29
REMARK    5  A    between atoms: N_5  and  C_13
REMARK    6  A    between atoms: C_9  and  C_14
REMARK    7  A    between atoms: C_13  and  C_15
REMARK    8  A    between atoms: C_18  and  C_21
REMARK    9  A    between atoms: C_27  and  C_28
REMARK                            x       y       z     vdW  Elec       q    Type
REMARK                         _______ _______ _______ _____ _____    ______ ____
ROOT
ATOM      2  O   UNL     1      10.757   7.034  -1.331  0.00  0.00    -0.336 OA
ATOM      6  N   UNL     1      10.356   5.243  -0.046  0.00  0.00    -0.190 NA
ATOM      7  N   UNL     1      10.471   7.527  -0.052  0.00  0.00    -0.056 NA
ATOM     14  C   UNL     1      10.668   5.681  -1.240  0.00  0.00    +0.245 A 
ATOM     18  C   UNL     1      10.246   6.412   0.649  0.00  0.00    +0.204 A 
ENDROOT
BRANCH  18  21
ATOM      8  N   UNL     1      10.080   5.403   4.224  0.00  0.00    -0.221 NA
ATOM     21  C   UNL     1       9.907   6.430   2.043  0.00  0.00    +0.041 A 
ATOM     23  C   UNL     1       9.111   7.439   2.573  0.00  0.00    +0.018 A 
ATOM     24  C   UNL     1      10.363   5.443   2.903  0.00  0.00    +0.126 A 
ATOM     25  C   UNL     1       8.799   7.431   3.928  0.00  0.00    +0.068 A 
ATOM     26  C   UNL     1       9.303   6.400   4.703  0.00  0.00    +0.215 A 
BRANCH  26   3
ATOM      3  O   UNL     1       9.010   6.370   6.042  0.00  0.00    -0.474 OA
BRANCH   3  27
ATOM     27  C   UNL     1      10.028   5.887   6.910  0.00  0.00    +0.258 C 
BRANCH  27  28
ATOM     28  C   UNL     1       9.520   5.923   8.337  0.00  0.00    +0.200 C 
BRANCH  28   4
ATOM      4  O   UNL     1      10.030   4.797   9.041  0.00  0.00    -0.380 OA
ATOM     29  C   UNL     1       9.286   4.541  10.224  0.00  0.00    +0.194 C 
ENDBRANCH  28   4
ENDBRANCH  27  28
ENDBRANCH   3  27
ENDBRANCH  26   3
ENDBRANCH  18  21
BRANCH  14   9
ATOM      5  N   UNL     1      11.762   3.698  -2.272  0.00  0.00    -0.287 NA
ATOM      9  C   UNL     1      10.938   4.900  -2.509  0.00  0.00    +0.146 C 
ATOM     10  C   UNL     1       9.650   4.367  -3.164  0.00  0.00    +0.030 C 
ATOM     11  C   UNL     1       9.868   2.867  -3.310  0.00  0.00    +0.017 C 
ATOM     12  C   UNL     1      11.377   2.723  -3.293  0.00  0.00    +0.085 C 
BRANCH   5  13
ATOM     13  C   UNL     1      13.194   3.972  -2.287  0.00  0.00    +0.123 C 
BRANCH  13  15
ATOM      1  F   UNL     1      15.926   4.499  -1.750  0.00  0.00    -0.205 F 
ATOM     15  C   UNL     1      13.807   3.821  -0.920  0.00  0.00    +0.002 A 
ATOM     16  C   UNL     1      15.160   4.098  -0.726  0.00  0.00    +0.128 A 
ATOM     17  C   UNL     1      13.019   3.406   0.153  0.00  0.00    +0.008 A 
ATOM     19  C   UNL     1      15.725   3.959   0.541  0.00  0.00    +0.038 A 
ATOM     20  C   UNL     1      13.584   3.266   1.420  0.00  0.00    +0.000 A 
ATOM     22  C   UNL     1      14.938   3.543   1.615  0.00  0.00    +0.003 A 
ENDBRANCH  13  15
ENDBRANCH   5  13
ENDBRANCH  14   9
TORSDOF 8
ENDMDL
MODEL 6
REMARK VINA RESULT:      -6.2     18.351     19.812
REMARK  Name = 45783550
REMARK  9 active torsions:
REMARK  status: ('A' for Active; 'I' for Inactive)
REMARK    1  A    between atoms: O_3  and  C_26
REMARK    2  A    between atoms: O_3  and  C_27
REMARK    3  A    between atoms: O_4  and  C_28
REMARK    4  A    between atoms: O_4  and  C_29
REMARK    5  A    between atoms: N_5  and  C_13
REMARK    6  A    between atoms: C_9  and  C_14
REMARK    7  A    between atoms: C_13  and  C_15
REMARK    8  A    between atoms: C_18  and  C_21
REMARK    9  A    between atoms: C_27  and  C_28
REMARK                            x       y       z     vdW  Elec       q    Type
REMARK                         _______ _______ _______ _____ _____    ______ ____
ROOT
ATOM      2  O   UNL     1      -4.516 -13.049  15.081  0.00  0.00    -0.336 OA
ATOM      6  N   UNL     1      -4.490 -11.330  16.518  0.00  0.00    -0.190 NA
ATOM      7  N   UNL     1      -5.699 -13.144  15.826  0.00  0.00    -0.056 NA
ATOM     14  C   UNL     1      -3.863 -11.954  15.553  0.00  0.00    +0.245 A 
ATOM     18  C   UNL     1      -5.611 -12.096  16.651  0.00  0.00    +0.204 A 
ENDROOT
BRANCH  18  21
ATOM      8  N   UNL     1      -8.489 -10.403  18.288  0.00  0.00    -0.221 NA
ATOM     21  C   UNL     1      -6.623 -11.788  17.619  0.00  0.00    +0.041 A 
ATOM     23  C   UNL     1      -6.741 -12.526  18.791  0.00  0.00    +0.018 A 
ATOM     24  C   UNL     1      -7.513 -10.746  17.416  0.00  0.00    +0.126 A 
ATOM     25  C   UNL     1      -7.732 -12.204  19.712  0.00  0.00    +0.068 A 
ATOM     26  C   UNL     1      -8.573 -11.144  19.416  0.00  0.00    +0.215 A 
BRANCH  26   3
ATOM      3  O   UNL     1      -9.557 -10.806  20.307  0.00  0.00    -0.474 OA
BRANCH   3  27
ATOM     27  C   UNL     1     -10.874 -11.252  20.006  0.00  0.00    +0.258 C 
BRANCH  27  28
ATOM     28  C   UNL     1     -11.828 -10.077  20.098  0.00  0.00    +0.200 C 
BRANCH  28   4
ATOM      4  O   UNL     1     -13.004 -10.486  20.784  0.00  0.00    -0.380 OA
ATOM     29  C   UNL     1     -14.073  -9.573  20.574  0.00  0.00    +0.194 C 
ENDBRANCH  28   4
ENDBRANCH  27  28
ENDBRANCH   3  27
ENDBRANCH  26   3
ENDBRANCH  18  21
BRANCH  14   9
ATOM      5  N   UNL     1      -2.662 -10.626  13.824  0.00  0.00    -0.287 NA
ATOM      9  C   UNL     1      -2.535 -11.629  14.901  0.00  0.00    +0.146 C 
ATOM     10  C   UNL     1      -1.524 -11.017  15.888  0.00  0.00    +0.030 C 
ATOM     11  C   UNL     1      -1.092  -9.703  15.252  0.00  0.00    +0.017 C 
ATOM     12  C   UNL     1      -1.390  -9.904  13.780  0.00  0.00    +0.085 C 
BRANCH   5  13
ATOM     13  C   UNL     1      -3.007 -11.210  12.534  0.00  0.00    +0.123 C 
BRANCH  13  15
ATOM      1  F   UNL     1      -5.568 -10.180  13.172  0.00  0.00    -0.205 F 
ATOM     15  C   UNL     1      -3.742 -10.233  11.656  0.00  0.00    +0.002 A 
ATOM     16  C   UNL     1      -5.001  -9.765  12.030  0.00  0.00    +0.128 A 
ATOM     17  C   UNL     1      -3.160  -9.793  10.467  0.00  0.00    +0.008 A 
ATOM     19  C   UNL     1      -5.680  -8.859  11.216  0.00  0.00    +0.038 A 
ATOM     20  C   UNL     1      -3.838  -8.887   9.652  0.00  0.00    +0.000 A 
ATOM     22  C   UNL     1      -5.098  -8.420  10.026  0.00  0.00    +0.003 A 
ENDBRANCH  13  15
ENDBRANCH   5  13
ENDBRANCH  14   9
TORSDOF 8
ENDMDL
MODEL 7
REMARK VINA RESULT:      -6.1     17.884     19.565
REMARK  Name = 45783550
REMARK  9 active torsions:
REMARK  status: ('A' for Active; 'I' for Inactive)
REMARK    1  A    between atoms: O_3  and  C_26
REMARK    2  A    between atoms: O_3  and  C_27
REMARK    3  A    between atoms: O_4  and  C_28
REMARK    4  A    between atoms: O_4  and  C_29
REMARK    5  A    between atoms: N_5  and  C_13
REMARK    6  A    between atoms: C_9  and  C_14
REMARK    7  A    between atoms: C_13  and  C_15
REMARK    8  A    between atoms: C_18  and  C_21
REMARK    9  A    between atoms: C_27  and  C_28
REMARK                            x       y       z     vdW  Elec       q    Type
REMARK                         _______ _______ _______ _____ _____    ______ ____
ROOT
ATOM      2  O   UNL     1      -5.444 -12.109  16.263  0.00  0.00    -0.336 OA
ATOM      6  N   UNL     1      -5.621 -10.040  15.423  0.00  0.00    -0.190 NA
ATOM      7  N   UNL     1      -6.741 -11.676  16.564  0.00  0.00    -0.056 NA
ATOM     14  C   UNL     1      -4.853 -11.087  15.591  0.00  0.00    +0.245 A 
ATOM     18  C   UNL     1      -6.770 -10.448  16.036  0.00  0.00    +0.204 A 
ENDROOT
BRANCH  18  21
ATOM      8  N   UNL     1      -9.766  -8.522  14.967  0.00  0.00    -0.221 NA
ATOM     21  C   UNL     1      -7.928  -9.605  16.105  0.00  0.00    +0.041 A 
ATOM     23  C   UNL     1      -8.344  -9.057  17.314  0.00  0.00    +0.018 A 
ATOM     24  C   UNL     1      -8.666  -9.309  14.970  0.00  0.00    +0.126 A 
ATOM     25  C   UNL     1      -9.470  -8.242  17.349  0.00  0.00    +0.068 A 
ATOM     26  C   UNL     1     -10.139  -8.007  16.160  0.00  0.00    +0.215 A 
BRANCH  26   3
ATOM      3  O   UNL     1     -11.252  -7.207  16.169  0.00  0.00    -0.474 OA
BRANCH   3  27
ATOM     27  C   UNL     1     -11.504  -6.448  14.993  0.00  0.00    +0.258 C 
BRANCH  27  28
ATOM     28  C   UNL     1     -13.000  -6.403  14.745  0.00  0.00    +0.200 C 
BRANCH  28   4
ATOM      4  O   UNL     1     -13.326  -5.180  14.095  0.00  0.00    -0.380 OA
ATOM     29  C   UNL     1     -12.286  -4.761  13.222  0.00  0.00    +0.194 C 
ENDBRANCH  28   4
ENDBRANCH  27  28
ENDBRANCH   3  27
ENDBRANCH  26   3
ENDBRANCH  18  21
BRANCH  14   9
ATOM      5  N   UNL     1      -3.072 -10.525  13.945  0.00  0.00    -0.287 NA
ATOM      9  C   UNL     1      -3.422 -11.309  15.147  0.00  0.00    +0.146 C 
ATOM     10  C   UNL     1      -2.396 -10.874  16.210  0.00  0.00    +0.030 C 
ATOM     11  C   UNL     1      -1.475  -9.893  15.497  0.00  0.00    +0.017 C 
ATOM     12  C   UNL     1      -1.637 -10.252  14.033  0.00  0.00    +0.085 C 
BRANCH   5  13
ATOM     13  C   UNL     1      -3.429 -11.194  12.700  0.00  0.00    +0.123 C 
BRANCH  13  15
ATOM      1  F   UNL     1      -2.064  -9.806  10.641  0.00  0.00    -0.205 F 
ATOM     15  C   UNL     1      -4.118 -10.261  11.741  0.00  0.00    +0.002 A 
ATOM     16  C   UNL     1      -3.386  -9.609  10.750  0.00  0.00    +0.128 A 
ATOM     17  C   UNL     1      -5.493 -10.051  11.844  0.00  0.00    +0.008 A 
ATOM     19  C   UNL     1      -4.027  -8.746   9.861  0.00  0.00    +0.038 A 
ATOM     20  C   UNL     1      -6.135  -9.188  10.956  0.00  0.00    +0.000 A 
ATOM     22  C   UNL     1      -5.402  -8.535   9.965  0.00  0.00    +0.003 A 
ENDBRANCH  13  15
ENDBRANCH   5  13
ENDBRANCH  14   9
TORSDOF 8
ENDMDL
MODEL 8
REMARK VINA RESULT:      -6.1     17.690     19.068
REMARK  Name = 45783550
REMARK  9 active torsions:
REMARK  status: ('A' for Active; 'I' for Inactive)
REMARK    1  A    between atoms: O_3  and  C_26
REMARK    2  A    between atoms: O_3  and  C_27
REMARK    3  A    between atoms: O_4  and  C_28
REMARK    4  A    between atoms: O_4  and  C_29
REMARK    5  A    between atoms: N_5  and  C_13
REMARK    6  A    between atoms: C_9  and  C_14
REMARK    7  A    between atoms: C_13  and  C_15
REMARK    8  A    between atoms: C_18  and  C_21
REMARK    9  A    between atoms: C_27  and  C_28
REMARK                            x       y       z     vdW  Elec       q    Type
REMARK                         _______ _______ _______ _____ _____    ______ ____
ROOT
ATOM      2  O   UNL     1      -5.530  -9.542  15.747  0.00  0.00    -0.336 OA
ATOM      6  N   UNL     1      -6.022 -11.221  17.146  0.00  0.00    -0.190 NA
ATOM      7  N   UNL     1      -6.754  -9.208  16.341  0.00  0.00    -0.056 NA
ATOM     14  C   UNL     1      -5.170 -10.741  16.276  0.00  0.00    +0.245 A 
ATOM     18  C   UNL     1      -6.977 -10.246  17.154  0.00  0.00    +0.204 A 
ENDROOT
BRANCH  18  21
ATOM      8  N   UNL     1      -9.179 -11.168  20.005  0.00  0.00    -0.221 NA
ATOM     21  C   UNL     1      -8.144 -10.340  17.983  0.00  0.00    +0.041 A 
ATOM     23  C   UNL     1      -9.338  -9.732  17.612  0.00  0.00    +0.018 A 
ATOM     24  C   UNL     1      -8.117 -11.041  19.178  0.00  0.00    +0.126 A 
ATOM     25  C   UNL     1     -10.452  -9.842  18.436  0.00  0.00    +0.068 A 
ATOM     26  C   UNL     1     -10.322 -10.564  19.610  0.00  0.00    +0.215 A 
BRANCH  26   3
ATOM      3  O   UNL     1     -11.407 -10.686  20.439  0.00  0.00    -0.474 OA
BRANCH   3  27
ATOM     27  C   UNL     1     -12.005 -11.974  20.526  0.00  0.00    +0.258 C 
BRANCH  27  28
ATOM     28  C   UNL     1     -13.251 -11.884  21.385  0.00  0.00    +0.200 C 
BRANCH  28   4
ATOM      4  O   UNL     1     -13.356 -13.061  22.175  0.00  0.00    -0.380 OA
ATOM     29  C   UNL     1     -13.528 -12.752  23.551  0.00  0.00    +0.194 C 
ENDBRANCH  28   4
ENDBRANCH  27  28
ENDBRANCH   3  27
ENDBRANCH  26   3
ENDBRANCH  18  21
BRANCH  14   9
ATOM      5  N   UNL     1      -3.406 -10.722  14.521  0.00  0.00    -0.287 NA
ATOM      9  C   UNL     1      -3.862 -11.327  15.788  0.00  0.00    +0.146 C 
ATOM     10  C   UNL     1      -2.702 -11.092  16.773  0.00  0.00    +0.030 C 
ATOM     11  C   UNL     1      -1.617 -10.406  15.955  0.00  0.00    +0.017 C 
ATOM     12  C   UNL     1      -1.944 -10.798  14.528  0.00  0.00    +0.085 C 
BRANCH   5  13
ATOM     13  C   UNL     1      -3.983 -11.355  13.341  0.00  0.00    +0.123 C 
BRANCH  13  15
ATOM      1  F   UNL     1      -2.109 -10.869  11.272  0.00  0.00    -0.205 F 
ATOM     15  C   UNL     1      -4.220 -10.364  12.233  0.00  0.00    +0.002 A 
ATOM     16  C   UNL     1      -3.255 -10.174  11.245  0.00  0.00    +0.128 A 
ATOM     17  C   UNL     1      -5.410  -9.637  12.195  0.00  0.00    +0.008 A 
ATOM     19  C   UNL     1      -3.478  -9.257  10.219  0.00  0.00    +0.038 A 
ATOM     20  C   UNL     1      -5.633  -8.720  11.169  0.00  0.00    +0.000 A 
ATOM     22  C   UNL     1      -4.668  -8.529  10.181  0.00  0.00    +0.003 A 
ENDBRANCH  13  15
ENDBRANCH   5  13
ENDBRANCH  14   9
TORSDOF 8
ENDMDL
MODEL 9
REMARK VINA RESULT:      -6.0     17.234     19.430
REMARK  Name = 45783550
REMARK  9 active torsions:
REMARK  status: ('A' for Active; 'I' for Inactive)
REMARK    1  A    between atoms: O_3  and  C_26
REMARK    2  A    between atoms: O_3  and  C_27
REMARK    3  A    between atoms: O_4  and  C_28
REMARK    4  A    between atoms: O_4  and  C_29
REMARK    5  A    between atoms: N_5  and  C_13
REMARK    6  A    between atoms: C_9  and  C_14
REMARK    7  A    between atoms: C_13  and  C_15
REMARK    8  A    between atoms: C_18  and  C_21
REMARK    9  A    between atoms: C_27  and  C_28
REMARK                            x       y       z     vdW  Elec       q    Type
REMARK                         _______ _______ _______ _____ _____    ______ ____
ROOT
ATOM      2  O   UNL     1      -6.805 -10.813  19.880  0.00  0.00    -0.336 OA
ATOM      6  N   UNL     1      -7.028 -11.536  17.771  0.00  0.00    -0.190 NA
ATOM      7  N   UNL     1      -5.601 -10.507  19.233  0.00  0.00    -0.056 NA
ATOM     14  C   UNL     1      -7.589 -11.417  18.948  0.00  0.00    +0.245 A 
ATOM     18  C   UNL     1      -5.809 -10.963  17.994  0.00  0.00    +0.204 A 
ENDROOT
BRANCH  18  21
ATOM      8  N   UNL     1      -4.311 -10.634  14.607  0.00  0.00    -0.221 NA
ATOM     21  C   UNL     1      -4.822 -10.864  16.959  0.00  0.00    +0.041 A 
ATOM     23  C   UNL     1      -3.464 -10.900  17.258  0.00  0.00    +0.018 A 
ATOM     24  C   UNL     1      -5.190 -10.732  15.630  0.00  0.00    +0.126 A 
ATOM     25  C   UNL     1      -2.530 -10.803  16.233  0.00  0.00    +0.068 A 
ATOM     26  C   UNL     1      -3.000 -10.673  14.937  0.00  0.00    +0.215 A 
BRANCH  26   3
ATOM      3  O   UNL     1      -2.099 -10.575  13.909  0.00  0.00    -0.474 OA
BRANCH   3  27
ATOM     27  C   UNL     1      -2.438 -11.235  12.695  0.00  0.00    +0.258 C 
BRANCH  27  28
ATOM     28  C   UNL     1      -2.321 -10.251  11.548  0.00  0.00    +0.200 C 
BRANCH  28   4
ATOM      4  O   UNL     1      -3.438 -10.410  10.683  0.00  0.00    -0.380 OA
ATOM     29  C   UNL     1      -4.405  -9.390  10.888  0.00  0.00    +0.194 C 
ENDBRANCH  28   4
ENDBRANCH  27  28
ENDBRANCH   3  27
ENDBRANCH  26   3
ENDBRANCH  18  21
BRANCH  14   9
ATOM      5  N   UNL     1     -10.046 -11.274  18.577  0.00  0.00    -0.287 NA
ATOM      9  C   UNL     1      -8.966 -11.851  19.403  0.00  0.00    +0.146 C 
ATOM     10  C   UNL     1      -9.171 -13.374  19.306  0.00  0.00    +0.030 C 
ATOM     11  C   UNL     1     -10.423 -13.554  18.457  0.00  0.00    +0.017 C 
ATOM     12  C   UNL     1     -11.150 -12.233  18.610  0.00  0.00    +0.085 C 
BRANCH   5  13
ATOM     13  C   UNL     1     -10.458  -9.947  19.017  0.00  0.00    +0.123 C 
BRANCH  13  15
ATOM      1  F   UNL     1      -8.410  -8.578  17.616  0.00  0.00    -0.205 F 
ATOM     15  C   UNL     1     -10.728  -9.030  17.853  0.00  0.00    +0.002 A 
ATOM     16  C   UNL     1      -9.673  -8.388  17.208  0.00  0.00    +0.128 A 
ATOM     17  C   UNL     1     -12.039  -8.826  17.420  0.00  0.00    +0.008 A 
ATOM     19  C   UNL     1      -9.925  -7.540  16.130  0.00  0.00    +0.038 A 
ATOM     20  C   UNL     1     -12.292  -7.978  16.342  0.00  0.00    +0.000 A 
ATOM     22  C   UNL     1     -11.236  -7.335  15.697  0.00  0.00    +0.003 A 
ENDBRANCH  13  15
ENDBRANCH   5  13
ENDBRANCH  14   9
TORSDOF 8
ENDMDL
MODEL 10
REMARK VINA RESULT:      -5.9     32.610     35.864
REMARK  Name = 45783550
REMARK  9 active torsions:
REMARK  status: ('A' for Active; 'I' for Inactive)
REMARK    1  A    between atoms: O_3  and  C_26
REMARK    2  A    between atoms: O_3  and  C_27
REMARK    3  A    between atoms: O_4  and  C_28
REMARK    4  A    between atoms: O_4  and  C_29
REMARK    5  A    between atoms: N_5  and  C_13
REMARK    6  A    between atoms: C_9  and  C_14
REMARK    7  A    between atoms: C_13  and  C_15
REMARK    8  A    between atoms: C_18  and  C_21
REMARK    9  A    between atoms: C_27  and  C_28
REMARK                            x       y       z     vdW  Elec       q    Type
REMARK                         _______ _______ _______ _____ _____    ______ ____
ROOT
ATOM      2  O   UNL     1      19.922   8.016  22.714  0.00  0.00    -0.336 OA
ATOM      6  N   UNL     1      19.098   6.470  21.317  0.00  0.00    -0.190 NA
ATOM      7  N   UNL     1      18.752   8.563  22.172  0.00  0.00    -0.056 NA
ATOM     14  C   UNL     1      20.052   6.783  22.158  0.00  0.00    +0.245 A 
ATOM     18  C   UNL     1      18.324   7.593  21.358  0.00  0.00    +0.204 A 
ENDROOT
BRANCH  18  21
ATOM      8  N   UNL     1      15.282   9.080  19.821  0.00  0.00    -0.221 NA
ATOM     21  C   UNL     1      17.130   7.714  20.574  0.00  0.00    +0.041 A 
ATOM     23  C   UNL     1      16.653   6.643  19.826  0.00  0.00    +0.018 A 
ATOM     24  C   UNL     1      16.414   8.900  20.539  0.00  0.00    +0.126 A 
ATOM     25  C   UNL     1      15.491   6.790  19.076  0.00  0.00    +0.068 A 
ATOM     26  C   UNL     1      14.849   8.017  19.107  0.00  0.00    +0.215 A 
BRANCH  26   3
ATOM      3  O   UNL     1      13.703   8.187  18.376  0.00  0.00    -0.474 OA
BRANCH   3  27
ATOM     27  C   UNL     1      12.528   7.555  18.870  0.00  0.00    +0.258 C 
BRANCH  27  28
ATOM     28  C   UNL     1      11.513   8.618  19.241  0.00  0.00    +0.200 C 
BRANCH  28   4
ATOM      4  O   UNL     1      10.572   8.064  20.152  0.00  0.00    -0.380 OA
ATOM     29  C   UNL     1      11.045   8.122  21.490  0.00  0.00    +0.194 C 
ENDBRANCH  28   4
ENDBRANCH  27  28
ENDBRANCH   3  27
ENDBRANCH  26   3
ENDBRANCH  18  21
BRANCH  14   9
ATOM      5  N   UNL     1      22.395   6.110  21.656  0.00  0.00    -0.287 NA
ATOM      9  C   UNL     1      21.257   5.973  22.588  0.00  0.00    +0.146 C 
ATOM     10  C   UNL     1      21.815   6.416  23.953  0.00  0.00    +0.030 C 
ATOM     11  C   UNL     1      23.285   6.723  23.703  0.00  0.00    +0.017 C 
ATOM     12  C   UNL     1      23.608   5.927  22.454  0.00  0.00    +0.085 C 
BRANCH   5  13
ATOM     13  C   UNL     1      22.332   5.183  20.533  0.00  0.00    +0.123 C 
BRANCH  13  15
ATOM      1  F   UNL     1      21.804   2.927  22.164  0.00  0.00    -0.205 F 
ATOM     15  C   UNL     1      23.300   4.041  20.695  0.00  0.00    +0.002 A 
ATOM     16  C   UNL     1      22.976   2.960  21.514  0.00  0.00    +0.128 A 
ATOM     17  C   UNL     1      24.521   4.065  20.022  0.00  0.00    +0.008 A 
ATOM     19  C   UNL     1      23.874   1.903  21.661  0.00  0.00    +0.038 A 
ATOM     20  C   UNL     1      25.419   3.008  20.169  0.00  0.00    +0.000 A 
ATOM     22  C   UNL     1      25.096   1.926  20.989  0.00  0.00    +0.003 A 
ENDBRANCH  13  15
ENDBRANCH   5  13
ENDBRANCH  14   9
TORSDOF 8
ENDMDL
