MODEL 1
REMARK VINA RESULT:      -7.1      0.000      0.000
REMARK  Name = 45783799
REMARK  8 active torsions:
REMARK  status: ('A' for Active; 'I' for Inactive)
REMARK    1  A    between atoms: N_2  and  C_12
REMARK    2  A    between atoms: N_6  and  C_25
REMARK    3  A    between atoms: N_6  and  C_27
REMARK    4  A    between atoms: N_6  and  C_28
REMARK    5  A    between atoms: C_8  and  C_13
REMARK    6  A    between atoms: C_12  and  C_14
REMARK    7  A    between atoms: C_17  and  C_20
REMARK    8  A    between atoms: C_18  and  C_26
REMARK                            x       y       z     vdW  Elec       q    Type
REMARK                         _______ _______ _______ _____ _____    ______ ____
ROOT
ATOM      2  N   UNL     1      14.300   7.552  19.737  0.00  0.00    -0.287 NA
ATOM      8  C   UNL     1      13.945   7.243  21.137  0.00  0.00    +0.146 C 
ATOM      9  C   UNL     1      15.271   7.349  21.910  0.00  0.00    +0.030 C 
ATOM     10  C   UNL     1      16.323   7.660  20.854  0.00  0.00    +0.017 C 
ATOM     11  C   UNL     1      15.699   7.157  19.569  0.00  0.00    +0.085 C 
ENDROOT
BRANCH   8  13
ATOM      1  O   UNL     1      11.712   7.579  22.073  0.00  0.00    -0.336 OA
ATOM      3  N   UNL     1      12.898   9.464  21.837  0.00  0.00    -0.190 NA
ATOM      4  N   UNL     1      10.891   8.616  22.533  0.00  0.00    -0.056 NA
ATOM     13  C   UNL     1      12.874   8.164  21.682  0.00  0.00    +0.245 A 
ATOM     17  C   UNL     1      11.660   9.695  22.362  0.00  0.00    +0.204 A 
BRANCH  17  20
ATOM      5  N   UNL     1      10.250  12.511  24.339  0.00  0.00    -0.240 NA
ATOM     20  C   UNL     1      11.222  11.017  22.706  0.00  0.00    +0.041 A 
ATOM     22  C   UNL     1      11.327  12.065  21.798  0.00  0.00    +0.016 A 
ATOM     23  C   UNL     1      10.681  11.289  23.952  0.00  0.00    +0.124 A 
ATOM     24  C   UNL     1      10.893  13.336  22.159  0.00  0.00    +0.044 A 
ATOM     25  C   UNL     1      10.367  13.506  23.430  0.00  0.00    +0.121 A 
BRANCH  25   6
ATOM      6  N   UNL     1       9.931  14.806  23.783  0.00  0.00    -0.321 N 
ATOM     27  C   UNL     1      10.662  15.578  24.764  0.00  0.00    +0.130 C 
ATOM     28  C   UNL     1       8.747  15.367  23.171  0.00  0.00    +0.130 C 
ENDBRANCH  25   6
ENDBRANCH  17  20
ENDBRANCH   8  13
BRANCH   2  12
ATOM     12  C   UNL     1      13.427   6.904  18.766  0.00  0.00    +0.120 C 
BRANCH  12  14
ATOM     14  C   UNL     1      12.988   7.856  17.686  0.00  0.00    -0.032 A 
ATOM     15  C   UNL     1      13.937   8.507  16.899  0.00  0.00    +0.023 A 
ATOM     16  C   UNL     1      11.628   8.085  17.471  0.00  0.00    +0.005 A 
ATOM     18  C   UNL     1      13.528   9.388  15.897  0.00  0.00    +0.052 A 
ATOM     19  C   UNL     1      11.219   8.965  16.469  0.00  0.00    +0.002 A 
ATOM     21  C   UNL     1      12.169   9.616  15.682  0.00  0.00    +0.019 A 
BRANCH  18  26
ATOM      7  N   UNL     1      15.291  10.595  14.433  0.00  0.00    -0.191 NA
ATOM     26  C   UNL     1      14.501  10.054  15.090  0.00  0.00    +0.099 C 
ENDBRANCH  18  26
ENDBRANCH  12  14
ENDBRANCH   2  12
TORSDOF 6
ENDMDL
MODEL 2
REMARK VINA RESULT:      -7.0      3.367      7.709
REMARK  Name = 45783799
REMARK  8 active torsions:
REMARK  status: ('A' for Active; 'I' for Inactive)
REMARK    1  A    between atoms: N_2  and  C_12
REMARK    2  A    between atoms: N_6  and  C_25
REMARK    3  A    between atoms: N_6  and  C_27
REMARK    4  A    between atoms: N_6  and  C_28
REMARK    5  A    between atoms: C_8  and  C_13
REMARK    6  A    between atoms: C_12  and  C_14
REMARK    7  A    between atoms: C_17  and  C_20
REMARK    8  A    between atoms: C_18  and  C_26
REMARK                            x       y       z     vdW  Elec       q    Type
REMARK                         _______ _______ _______ _____ _____    ______ ____
ROOT
ATOM      2  N   UNL     1      12.347   8.967  20.617  0.00  0.00    -0.287 NA
ATOM      8  C   UNL     1      13.022   8.102  21.606  0.00  0.00    +0.146 C 
ATOM      9  C   UNL     1      11.970   7.043  21.982  0.00  0.00    +0.030 C 
ATOM     10  C   UNL     1      10.720   7.430  21.203  0.00  0.00    +0.017 C 
ATOM     11  C   UNL     1      10.918   8.905  20.921  0.00  0.00    +0.085 C 
ENDROOT
BRANCH   8  13
ATOM      1  O   UNL     1      14.178   6.688  19.983  0.00  0.00    -0.336 OA
ATOM      3  N   UNL     1      15.528   7.623  21.506  0.00  0.00    -0.190 NA
ATOM      4  N   UNL     1      15.473   6.249  19.678  0.00  0.00    -0.056 NA
ATOM     13  C   UNL     1      14.300   7.492  21.071  0.00  0.00    +0.245 A 
ATOM     17  C   UNL     1      16.212   6.843  20.620  0.00  0.00    +0.204 A 
BRANCH  17  20
ATOM      5  N   UNL     1      19.750   7.411  21.615  0.00  0.00    -0.240 NA
ATOM     20  C   UNL     1      17.635   6.678  20.703  0.00  0.00    +0.041 A 
ATOM     22  C   UNL     1      18.281   5.674  19.989  0.00  0.00    +0.016 A 
ATOM     23  C   UNL     1      18.406   7.513  21.493  0.00  0.00    +0.124 A 
ATOM     24  C   UNL     1      19.661   5.539  20.089  0.00  0.00    +0.044 A 
ATOM     25  C   UNL     1      20.344   6.424  20.908  0.00  0.00    +0.121 A 
BRANCH  25   6
ATOM      6  N   UNL     1      21.749   6.273  20.998  0.00  0.00    -0.321 N 
ATOM     27  C   UNL     1      22.316   5.101  21.630  0.00  0.00    +0.130 C 
ATOM     28  C   UNL     1      22.626   7.291  20.465  0.00  0.00    +0.130 C 
ENDBRANCH  25   6
ENDBRANCH  17  20
ENDBRANCH   8  13
BRANCH   2  12
ATOM     12  C   UNL     1      12.849  10.335  20.614  0.00  0.00    +0.120 C 
BRANCH  12  14
ATOM     14  C   UNL     1      13.356  10.742  19.257  0.00  0.00    -0.032 A 
ATOM     15  C   UNL     1      13.414   9.808  18.223  0.00  0.00    +0.023 A 
ATOM     16  C   UNL     1      13.767  12.056  19.032  0.00  0.00    +0.005 A 
ATOM     18  C   UNL     1      13.883  10.187  16.965  0.00  0.00    +0.052 A 
ATOM     19  C   UNL     1      14.236  12.437  17.775  0.00  0.00    +0.002 A 
ATOM     21  C   UNL     1      14.294  11.502  16.741  0.00  0.00    +0.019 A 
BRANCH  18  26
ATOM      7  N   UNL     1      13.988   8.453  15.044  0.00  0.00    -0.191 NA
ATOM     26  C   UNL     1      13.942   9.231  15.905  0.00  0.00    +0.099 C 
ENDBRANCH  18  26
ENDBRANCH  12  14
ENDBRANCH   2  12
TORSDOF 6
ENDMDL
MODEL 3
REMARK VINA RESULT:      -6.9      2.497      7.223
REMARK  Name = 45783799
REMARK  8 active torsions:
REMARK  status: ('A' for Active; 'I' for Inactive)
REMARK    1  A    between atoms: N_2  and  C_12
REMARK    2  A    between atoms: N_6  and  C_25
REMARK    3  A    between atoms: N_6  and  C_27
REMARK    4  A    between atoms: N_6  and  C_28
REMARK    5  A    between atoms: C_8  and  C_13
REMARK    6  A    between atoms: C_12  and  C_14
REMARK    7  A    between atoms: C_17  and  C_20
REMARK    8  A    between atoms: C_18  and  C_26
REMARK                            x       y       z     vdW  Elec       q    Type
REMARK                         _______ _______ _______ _____ _____    ______ ____
ROOT
ATOM      2  N   UNL     1      11.687   8.974  21.626  0.00  0.00    -0.287 NA
ATOM      8  C   UNL     1      12.417   7.851  21.003  0.00  0.00    +0.146 C 
ATOM      9  C   UNL     1      11.500   6.631  21.200  0.00  0.00    +0.030 C 
ATOM     10  C   UNL     1      10.310   7.151  21.995  0.00  0.00    +0.017 C 
ATOM     11  C   UNL     1      10.851   8.391  22.676  0.00  0.00    +0.085 C 
ENDROOT
BRANCH   8  13
ATOM      1  O   UNL     1      12.171   7.274  18.641  0.00  0.00    -0.336 OA
ATOM      3  N   UNL     1      13.516   9.024  19.020  0.00  0.00    -0.190 NA
ATOM      4  N   UNL     1      12.619   7.701  17.384  0.00  0.00    -0.056 NA
ATOM     13  C   UNL     1      12.746   8.106  19.548  0.00  0.00    +0.245 A 
ATOM     17  C   UNL     1      13.406   8.735  17.691  0.00  0.00    +0.204 A 
BRANCH  17  20
ATOM      5  N   UNL     1      15.044   9.625  14.473  0.00  0.00    -0.240 NA
ATOM     20  C   UNL     1      14.096   9.502  16.693  0.00  0.00    +0.041 A 
ATOM     22  C   UNL     1      14.484  10.814  16.940  0.00  0.00    +0.016 A 
ATOM     23  C   UNL     1      14.397   8.958  15.455  0.00  0.00    +0.124 A 
ATOM     24  C   UNL     1      15.151  11.533  15.954  0.00  0.00    +0.044 A 
ATOM     25  C   UNL     1      15.405  10.898  14.748  0.00  0.00    +0.121 A 
BRANCH  25   6
ATOM      6  N   UNL     1      16.085  11.643  13.754  0.00  0.00    -0.321 N 
ATOM     27  C   UNL     1      15.426  11.967  12.508  0.00  0.00    +0.130 C 
ATOM     28  C   UNL     1      17.446  12.080  13.976  0.00  0.00    +0.130 C 
ENDBRANCH  25   6
ENDBRANCH  17  20
ENDBRANCH   8  13
BRANCH   2  12
ATOM     12  C   UNL     1      12.566  10.016  22.139  0.00  0.00    +0.120 C 
BRANCH  12  14
ATOM     14  C   UNL     1      12.166  11.380  21.645  0.00  0.00    -0.032 A 
ATOM     15  C   UNL     1      12.814  11.943  20.545  0.00  0.00    +0.023 A 
ATOM     16  C   UNL     1      11.145  12.082  22.286  0.00  0.00    +0.005 A 
ATOM     18  C   UNL     1      12.441  13.206  20.086  0.00  0.00    +0.052 A 
ATOM     19  C   UNL     1      10.772  13.345  21.828  0.00  0.00    +0.002 A 
ATOM     21  C   UNL     1      11.420  13.907  20.728  0.00  0.00    +0.019 A 
BRANCH  18  26
ATOM      7  N   UNL     1      13.641  14.250  18.042  0.00  0.00    -0.191 NA
ATOM     26  C   UNL     1      13.104  13.782  18.959  0.00  0.00    +0.099 C 
ENDBRANCH  18  26
ENDBRANCH  12  14
ENDBRANCH   2  12
TORSDOF 6
ENDMDL
MODEL 4
REMARK VINA RESULT:      -6.8      3.536      7.513
REMARK  Name = 45783799
REMARK  8 active torsions:
REMARK  status: ('A' for Active; 'I' for Inactive)
REMARK    1  A    between atoms: N_2  and  C_12
REMARK    2  A    between atoms: N_6  and  C_25
REMARK    3  A    between atoms: N_6  and  C_27
REMARK    4  A    between atoms: N_6  and  C_28
REMARK    5  A    between atoms: C_8  and  C_13
REMARK    6  A    between atoms: C_12  and  C_14
REMARK    7  A    between atoms: C_17  and  C_20
REMARK    8  A    between atoms: C_18  and  C_26
REMARK                            x       y       z     vdW  Elec       q    Type
REMARK                         _______ _______ _______ _____ _____    ______ ____
ROOT
ATOM      2  N   UNL     1      13.084   7.968  20.829  0.00  0.00    -0.287 NA
ATOM      8  C   UNL     1      12.269   7.771  19.613  0.00  0.00    +0.146 C 
ATOM      9  C   UNL     1      10.934   8.473  19.919  0.00  0.00    +0.030 C 
ATOM     10  C   UNL     1      11.069   8.980  21.348  0.00  0.00    +0.017 C 
ATOM     11  C   UNL     1      12.143   8.092  21.942  0.00  0.00    +0.085 C 
ENDROOT
BRANCH   8  13
ATOM      1  O   UNL     1      12.881   7.524  17.260  0.00  0.00    -0.336 OA
ATOM      3  N   UNL     1      13.583   9.436  18.192  0.00  0.00    -0.190 NA
ATOM      4  N   UNL     1      13.561   8.222  16.254  0.00  0.00    -0.056 NA
ATOM     13  C   UNL     1      12.940   8.308  18.367  0.00  0.00    +0.245 A 
ATOM     17  C   UNL     1      13.945   9.338  16.880  0.00  0.00    +0.204 A 
BRANCH  17  20
ATOM      5  N   UNL     1      15.785  11.181  14.226  0.00  0.00    -0.240 NA
ATOM     20  C   UNL     1      14.689  10.374  16.224  0.00  0.00    +0.041 A 
ATOM     22  C   UNL     1      15.039  11.540  16.896  0.00  0.00    +0.016 A 
ATOM     23  C   UNL     1      15.083  10.244  14.902  0.00  0.00    +0.124 A 
ATOM     24  C   UNL     1      15.761  12.527  16.234  0.00  0.00    +0.044 A 
ATOM     25  C   UNL     1      16.107  12.301  14.911  0.00  0.00    +0.121 A 
BRANCH  25   6
ATOM      6  N   UNL     1      16.841  13.316  14.251  0.00  0.00    -0.321 N 
ATOM     27  C   UNL     1      18.039  12.983  13.510  0.00  0.00    +0.130 C 
ATOM     28  C   UNL     1      16.404  14.692  14.318  0.00  0.00    +0.130 C 
ENDBRANCH  25   6
ENDBRANCH  17  20
ENDBRANCH   8  13
BRANCH   2  12
ATOM     12  C   UNL     1      14.057   6.905  21.047  0.00  0.00    +0.120 C 
BRANCH  12  14
ATOM     14  C   UNL     1      15.462   7.438  21.122  0.00  0.00    -0.032 A 
ATOM     15  C   UNL     1      16.543   6.597  20.862  0.00  0.00    +0.023 A 
ATOM     16  C   UNL     1      15.683   8.776  21.451  0.00  0.00    +0.005 A 
ATOM     18  C   UNL     1      17.846   7.093  20.930  0.00  0.00    +0.052 A 
ATOM     19  C   UNL     1      16.985   9.273  21.519  0.00  0.00    +0.002 A 
ATOM     21  C   UNL     1      18.066   8.431  21.258  0.00  0.00    +0.019 A 
BRANCH  18  26
ATOM      7  N   UNL     1      19.855   5.534  20.445  0.00  0.00    -0.191 NA
ATOM     26  C   UNL     1      18.954   6.232  20.662  0.00  0.00    +0.099 C 
ENDBRANCH  18  26
ENDBRANCH  12  14
ENDBRANCH   2  12
TORSDOF 6
ENDMDL
MODEL 5
REMARK VINA RESULT:      -6.7     25.855     27.898
REMARK  Name = 45783799
REMARK  8 active torsions:
REMARK  status: ('A' for Active; 'I' for Inactive)
REMARK    1  A    between atoms: N_2  and  C_12
REMARK    2  A    between atoms: N_6  and  C_25
REMARK    3  A    between atoms: N_6  and  C_27
REMARK    4  A    between atoms: N_6  and  C_28
REMARK    5  A    between atoms: C_8  and  C_13
REMARK    6  A    between atoms: C_12  and  C_14
REMARK    7  A    between atoms: C_17  and  C_20
REMARK    8  A    between atoms: C_18  and  C_26
REMARK                            x       y       z     vdW  Elec       q    Type
REMARK                         _______ _______ _______ _____ _____    ______ ____
ROOT
ATOM      2  N   UNL     1      -2.898 -10.649  14.096  0.00  0.00    -0.287 NA
ATOM      8  C   UNL     1      -3.237 -11.367  15.341  0.00  0.00    +0.146 C 
ATOM      9  C   UNL     1      -2.214 -10.862  16.375  0.00  0.00    +0.030 C 
ATOM     10  C   UNL     1      -1.306  -9.913  15.605  0.00  0.00    +0.017 C 
ATOM     11  C   UNL     1      -1.466 -10.355  14.165  0.00  0.00    +0.085 C 
ENDROOT
BRANCH   8  13
ATOM      1  O   UNL     1      -5.215 -12.078  16.587  0.00  0.00    -0.336 OA
ATOM      3  N   UNL     1      -5.477 -10.150  15.478  0.00  0.00    -0.190 NA
ATOM      4  N   UNL     1      -6.524 -11.653  16.848  0.00  0.00    -0.056 NA
ATOM     13  C   UNL     1      -4.669 -11.136  15.774  0.00  0.00    +0.245 A 
ATOM     17  C   UNL     1      -6.603 -10.510  16.160  0.00  0.00    +0.204 A 
BRANCH  17  20
ATOM      5  N   UNL     1      -9.651  -8.810  14.878  0.00  0.00    -0.240 NA
ATOM     20  C   UNL     1      -7.790  -9.706  16.134  0.00  0.00    +0.041 A 
ATOM     22  C   UNL     1      -8.239  -9.055  17.278  0.00  0.00    +0.016 A 
ATOM     23  C   UNL     1      -8.525  -9.552  14.970  0.00  0.00    +0.124 A 
ATOM     24  C   UNL     1      -9.393  -8.282  17.223  0.00  0.00    +0.044 A 
ATOM     25  C   UNL     1     -10.058  -8.192  16.010  0.00  0.00    +0.121 A 
BRANCH  25   6
ATOM      6  N   UNL     1     -11.231  -7.401  15.970  0.00  0.00    -0.321 N 
ATOM     27  C   UNL     1     -12.530  -8.017  16.134  0.00  0.00    +0.130 C 
ATOM     28  C   UNL     1     -11.140  -5.974  15.759  0.00  0.00    +0.130 C 
ENDBRANCH  25   6
ENDBRANCH  17  20
ENDBRANCH   8  13
BRANCH   2  12
ATOM     12  C   UNL     1      -3.248 -11.390  12.891  0.00  0.00    +0.120 C 
BRANCH  12  14
ATOM     14  C   UNL     1      -3.730 -10.481  11.793  0.00  0.00    -0.032 A 
ATOM     15  C   UNL     1      -5.090 -10.206  11.659  0.00  0.00    +0.023 A 
ATOM     16  C   UNL     1      -2.814  -9.910  10.909  0.00  0.00    +0.005 A 
ATOM     18  C   UNL     1      -5.536  -9.361  10.642  0.00  0.00    +0.052 A 
ATOM     19  C   UNL     1      -3.257  -9.065   9.892  0.00  0.00    +0.002 A 
ATOM     21  C   UNL     1      -4.619  -8.791   9.759  0.00  0.00    +0.019 A 
BRANCH  18  26
ATOM      7  N   UNL     1      -8.061  -8.848  10.395  0.00  0.00    -0.191 NA
ATOM     26  C   UNL     1      -6.929  -9.079  10.505  0.00  0.00    +0.099 C 
ENDBRANCH  18  26
ENDBRANCH  12  14
ENDBRANCH   2  12
TORSDOF 6
ENDMDL
MODEL 6
REMARK VINA RESULT:      -6.6      2.782      7.409
REMARK  Name = 45783799
REMARK  8 active torsions:
REMARK  status: ('A' for Active; 'I' for Inactive)
REMARK    1  A    between atoms: N_2  and  C_12
REMARK    2  A    between atoms: N_6  and  C_25
REMARK    3  A    between atoms: N_6  and  C_27
REMARK    4  A    between atoms: N_6  and  C_28
REMARK    5  A    between atoms: C_8  and  C_13
REMARK    6  A    between atoms: C_12  and  C_14
REMARK    7  A    between atoms: C_17  and  C_20
REMARK    8  A    between atoms: C_18  and  C_26
REMARK                            x       y       z     vdW  Elec       q    Type
REMARK                         _______ _______ _______ _____ _____    ______ ____
ROOT
ATOM      2  N   UNL     1      11.768  10.670  22.994  0.00  0.00    -0.287 NA
ATOM      8  C   UNL     1      12.727  11.755  22.704  0.00  0.00    +0.146 C 
ATOM      9  C   UNL     1      12.925  12.473  24.051  0.00  0.00    +0.030 C 
ATOM     10  C   UNL     1      11.993  11.762  25.022  0.00  0.00    +0.017 C 
ATOM     11  C   UNL     1      10.954  11.129  24.120  0.00  0.00    +0.085 C 
ENDROOT
BRANCH   8  13
ATOM      1  O   UNL     1      14.749  12.128  21.382  0.00  0.00    -0.336 OA
ATOM      3  N   UNL     1      14.567  10.055  22.211  0.00  0.00    -0.190 NA
ATOM      4  N   UNL     1      15.888  11.435  20.953  0.00  0.00    -0.056 NA
ATOM     13  C   UNL     1      14.026  11.244  22.117  0.00  0.00    +0.245 A 
ATOM     17  C   UNL     1      15.708  10.221  21.481  0.00  0.00    +0.204 A 
BRANCH  17  20
ATOM      5  N   UNL     1      18.885   8.293  21.624  0.00  0.00    -0.240 NA
ATOM     20  C   UNL     1      16.649   9.153  21.300  0.00  0.00    +0.041 A 
ATOM     22  C   UNL     1      16.282   7.978  20.653  0.00  0.00    +0.016 A 
ATOM     23  C   UNL     1      17.950   9.261  21.762  0.00  0.00    +0.124 A 
ATOM     24  C   UNL     1      17.216   6.961  20.491  0.00  0.00    +0.044 A 
ATOM     25  C   UNL     1      18.492   7.165  20.990  0.00  0.00    +0.121 A 
BRANCH  25   6
ATOM      6  N   UNL     1      19.431   6.119  20.818  0.00  0.00    -0.321 N 
ATOM     27  C   UNL     1      19.180   5.065  19.860  0.00  0.00    +0.130 C 
ATOM     28  C   UNL     1      20.645   6.095  21.603  0.00  0.00    +0.130 C 
ENDBRANCH  25   6
ENDBRANCH  17  20
ENDBRANCH   8  13
BRANCH   2  12
ATOM     12  C   UNL     1      10.954  10.299  21.843  0.00  0.00    +0.120 C 
BRANCH  12  14
ATOM     14  C   UNL     1      11.375   8.975  21.264  0.00  0.00    -0.032 A 
ATOM     15  C   UNL     1      11.912   8.914  19.978  0.00  0.00    +0.023 A 
ATOM     16  C   UNL     1      11.228   7.809  22.014  0.00  0.00    +0.005 A 
ATOM     18  C   UNL     1      12.302   7.686  19.443  0.00  0.00    +0.052 A 
ATOM     19  C   UNL     1      11.618   6.581  21.480  0.00  0.00    +0.002 A 
ATOM     21  C   UNL     1      12.156   6.520  20.194  0.00  0.00    +0.019 A 
BRANCH  18  26
ATOM      7  N   UNL     1      13.301   7.571  17.057  0.00  0.00    -0.191 NA
ATOM     26  C   UNL     1      12.854   7.623  18.127  0.00  0.00    +0.099 C 
ENDBRANCH  18  26
ENDBRANCH  12  14
ENDBRANCH   2  12
TORSDOF 6
ENDMDL
MODEL 7
REMARK VINA RESULT:      -6.4     14.179     19.332
REMARK  Name = 45783799
REMARK  8 active torsions:
REMARK  status: ('A' for Active; 'I' for Inactive)
REMARK    1  A    between atoms: N_2  and  C_12
REMARK    2  A    between atoms: N_6  and  C_25
REMARK    3  A    between atoms: N_6  and  C_27
REMARK    4  A    between atoms: N_6  and  C_28
REMARK    5  A    between atoms: C_8  and  C_13
REMARK    6  A    between atoms: C_12  and  C_14
REMARK    7  A    between atoms: C_17  and  C_20
REMARK    8  A    between atoms: C_18  and  C_26
REMARK                            x       y       z     vdW  Elec       q    Type
REMARK                         _______ _______ _______ _____ _____    ______ ____
ROOT
ATOM      2  N   UNL     1       9.477   7.652   6.304  0.00  0.00    -0.287 NA
ATOM      8  C   UNL     1      10.561   6.659   6.451  0.00  0.00    +0.146 C 
ATOM      9  C   UNL     1      10.285   5.976   7.802  0.00  0.00    +0.030 C 
ATOM     10  C   UNL     1       9.065   6.690   8.368  0.00  0.00    +0.017 C 
ATOM     11  C   UNL     1       9.075   8.029   7.659  0.00  0.00    +0.085 C 
ENDROOT
BRANCH   8  13
ATOM      1  O   UNL     1       9.972   4.494   5.482  0.00  0.00    -0.336 OA
ATOM      3  N   UNL     1      11.193   5.800   4.132  0.00  0.00    -0.190 NA
ATOM      4  N   UNL     1      10.158   3.767   4.300  0.00  0.00    -0.056 NA
ATOM     13  C   UNL     1      10.612   5.679   5.299  0.00  0.00    +0.245 A 
ATOM     17  C   UNL     1      10.886   4.602   3.554  0.00  0.00    +0.204 A 
BRANCH  17  20
ATOM      5  N   UNL     1      10.791   4.009  -0.116  0.00  0.00    -0.240 NA
ATOM     20  C   UNL     1      11.322   4.272   2.227  0.00  0.00    +0.041 A 
ATOM     22  C   UNL     1      12.640   3.904   1.978  0.00  0.00    +0.016 A 
ATOM     23  C   UNL     1      10.445   4.308   1.157  0.00  0.00    +0.124 A 
ATOM     24  C   UNL     1      13.034   3.588   0.682  0.00  0.00    +0.044 A 
ATOM     25  C   UNL     1      12.080   3.656  -0.321  0.00  0.00    +0.121 A 
BRANCH  25   6
ATOM      6  N   UNL     1      12.496   3.332  -1.635  0.00  0.00    -0.321 N 
ATOM     27  C   UNL     1      11.756   2.365  -2.416  0.00  0.00    +0.130 C 
ATOM     28  C   UNL     1      13.668   3.961  -2.202  0.00  0.00    +0.130 C 
ENDBRANCH  25   6
ENDBRANCH  17  20
ENDBRANCH   8  13
BRANCH   2  12
ATOM     12  C   UNL     1       9.861   8.808   5.504  0.00  0.00    +0.120 C 
BRANCH  12  14
ATOM     14  C   UNL     1       9.017   8.936   4.264  0.00  0.00    -0.032 A 
ATOM     15  C   UNL     1       7.723   9.448   4.350  0.00  0.00    +0.023 A 
ATOM     16  C   UNL     1       9.531   8.543   3.028  0.00  0.00    +0.005 A 
ATOM     18  C   UNL     1       6.942   9.568   3.199  0.00  0.00    +0.052 A 
ATOM     19  C   UNL     1       8.751   8.662   1.878  0.00  0.00    +0.002 A 
ATOM     21  C   UNL     1       7.456   9.175   1.964  0.00  0.00    +0.019 A 
BRANCH  18  26
ATOM      7  N   UNL     1       4.539  10.521   3.355  0.00  0.00    -0.191 NA
ATOM     26  C   UNL     1       5.616  10.094   3.286  0.00  0.00    +0.099 C 
ENDBRANCH  18  26
ENDBRANCH  12  14
ENDBRANCH   2  12
TORSDOF 6
ENDMDL
MODEL 8
REMARK VINA RESULT:      -6.4      3.277      7.640
REMARK  Name = 45783799
REMARK  8 active torsions:
REMARK  status: ('A' for Active; 'I' for Inactive)
REMARK    1  A    between atoms: N_2  and  C_12
REMARK    2  A    between atoms: N_6  and  C_25
REMARK    3  A    between atoms: N_6  and  C_27
REMARK    4  A    between atoms: N_6  and  C_28
REMARK    5  A    between atoms: C_8  and  C_13
REMARK    6  A    between atoms: C_12  and  C_14
REMARK    7  A    between atoms: C_17  and  C_20
REMARK    8  A    between atoms: C_18  and  C_26
REMARK                            x       y       z     vdW  Elec       q    Type
REMARK                         _______ _______ _______ _____ _____    ______ ____
ROOT
ATOM      2  N   UNL     1      12.922  11.279  21.744  0.00  0.00    -0.287 NA
ATOM      8  C   UNL     1      14.314  11.374  22.226  0.00  0.00    +0.146 C 
ATOM      9  C   UNL     1      14.189  11.776  23.707  0.00  0.00    +0.030 C 
ATOM     10  C   UNL     1      12.695  11.943  23.948  0.00  0.00    +0.017 C 
ATOM     11  C   UNL     1      12.136  12.201  22.564  0.00  0.00    +0.085 C 
ENDROOT
BRANCH   8  13
ATOM      1  O   UNL     1      14.386   8.932  22.180  0.00  0.00    -0.336 OA
ATOM      3  N   UNL     1      16.352   9.914  21.743  0.00  0.00    -0.190 NA
ATOM      4  N   UNL     1      15.300   7.894  21.958  0.00  0.00    -0.056 NA
ATOM     13  C   UNL     1      15.087  10.087  22.033  0.00  0.00    +0.245 A 
ATOM     17  C   UNL     1      16.435   8.552  21.707  0.00  0.00    +0.204 A 
BRANCH  17  20
ATOM      5  N   UNL     1      20.084   7.867  21.500  0.00  0.00    -0.240 NA
ATOM     20  C   UNL     1      17.669   7.880  21.415  0.00  0.00    +0.041 A 
ATOM     22  C   UNL     1      17.676   6.638  20.790  0.00  0.00    +0.016 A 
ATOM     23  C   UNL     1      18.888   8.447  21.746  0.00  0.00    +0.124 A 
ATOM     24  C   UNL     1      18.887   6.010  20.520  0.00  0.00    +0.044 A 
ATOM     25  C   UNL     1      20.053   6.660  20.891  0.00  0.00    +0.121 A 
BRANCH  25   6
ATOM      6  N   UNL     1      21.278   6.008  20.610  0.00  0.00    -0.321 N 
ATOM     27  C   UNL     1      22.495   6.776  20.462  0.00  0.00    +0.130 C 
ATOM     28  C   UNL     1      21.319   4.570  20.462  0.00  0.00    +0.130 C 
ENDBRANCH  25   6
ENDBRANCH  17  20
ENDBRANCH   8  13
BRANCH   2  12
ATOM     12  C   UNL     1      12.787  11.561  20.320  0.00  0.00    +0.120 C 
BRANCH  12  14
ATOM     14  C   UNL     1      12.547  10.308  19.522  0.00  0.00    -0.032 A 
ATOM     15  C   UNL     1      13.143  10.150  18.271  0.00  0.00    +0.023 A 
ATOM     16  C   UNL     1      11.728   9.301  20.034  0.00  0.00    +0.005 A 
ATOM     18  C   UNL     1      12.922   8.987  17.533  0.00  0.00    +0.052 A 
ATOM     19  C   UNL     1      11.506   8.138  19.297  0.00  0.00    +0.002 A 
ATOM     21  C   UNL     1      12.103   7.982  18.046  0.00  0.00    +0.019 A 
BRANCH  18  26
ATOM      7  N   UNL     1      14.032   8.695  15.212  0.00  0.00    -0.191 NA
ATOM     26  C   UNL     1      13.534   8.825  16.252  0.00  0.00    +0.099 C 
ENDBRANCH  18  26
ENDBRANCH  12  14
ENDBRANCH   2  12
TORSDOF 6
ENDMDL
MODEL 9
REMARK VINA RESULT:      -6.3      4.132      9.205
REMARK  Name = 45783799
REMARK  8 active torsions:
REMARK  status: ('A' for Active; 'I' for Inactive)
REMARK    1  A    between atoms: N_2  and  C_12
REMARK    2  A    between atoms: N_6  and  C_25
REMARK    3  A    between atoms: N_6  and  C_27
REMARK    4  A    between atoms: N_6  and  C_28
REMARK    5  A    between atoms: C_8  and  C_13
REMARK    6  A    between atoms: C_12  and  C_14
REMARK    7  A    between atoms: C_17  and  C_20
REMARK    8  A    between atoms: C_18  and  C_26
REMARK                            x       y       z     vdW  Elec       q    Type
REMARK                         _______ _______ _______ _____ _____    ______ ____
ROOT
ATOM      2  N   UNL     1      13.801   8.146  19.932  0.00  0.00    -0.287 NA
ATOM      8  C   UNL     1      14.722   7.130  19.383  0.00  0.00    +0.146 C 
ATOM      9  C   UNL     1      14.726   7.384  17.865  0.00  0.00    +0.030 C 
ATOM     10  C   UNL     1      13.734   8.519  17.649  0.00  0.00    +0.017 C 
ATOM     11  C   UNL     1      12.841   8.449  18.870  0.00  0.00    +0.085 C 
ENDROOT
BRANCH   8  13
ATOM      1  O   UNL     1      16.532   8.440  20.374  0.00  0.00    -0.336 OA
ATOM      3  N   UNL     1      16.970   6.249  20.214  0.00  0.00    -0.190 NA
ATOM      4  N   UNL     1      17.817   8.260  20.900  0.00  0.00    -0.056 NA
ATOM     13  C   UNL     1      16.105   7.207  19.994  0.00  0.00    +0.245 A 
ATOM     17  C   UNL     1      18.004   6.943  20.771  0.00  0.00    +0.204 A 
BRANCH  17  20
ATOM      5  N   UNL     1      20.860   5.908  22.915  0.00  0.00    -0.240 NA
ATOM     20  C   UNL     1      19.211   6.291  21.190  0.00  0.00    +0.041 A 
ATOM     22  C   UNL     1      19.898   5.438  20.332  0.00  0.00    +0.016 A 
ATOM     23  C   UNL     1      19.729   6.491  22.458  0.00  0.00    +0.124 A 
ATOM     24  C   UNL     1      21.066   4.820  20.766  0.00  0.00    +0.044 A 
ATOM     25  C   UNL     1      21.501   5.085  22.055  0.00  0.00    +0.121 A 
BRANCH  25   6
ATOM      6  N   UNL     1      22.692   4.448  22.481  0.00  0.00    -0.321 N 
ATOM     27  C   UNL     1      23.002   4.352  23.891  0.00  0.00    +0.130 C 
ATOM     28  C   UNL     1      23.608   3.893  21.510  0.00  0.00    +0.130 C 
ENDBRANCH  25   6
ENDBRANCH  17  20
ENDBRANCH   8  13
BRANCH   2  12
ATOM     12  C   UNL     1      13.144   7.722  21.162  0.00  0.00    +0.120 C 
BRANCH  12  14
ATOM     14  C   UNL     1      12.525   8.882  21.894  0.00  0.00    -0.032 A 
ATOM     15  C   UNL     1      13.300   9.992  22.227  0.00  0.00    +0.023 A 
ATOM     16  C   UNL     1      11.173   8.847  22.239  0.00  0.00    +0.005 A 
ATOM     18  C   UNL     1      12.725  11.068  22.905  0.00  0.00    +0.052 A 
ATOM     19  C   UNL     1      10.597   9.921  22.917  0.00  0.00    +0.002 A 
ATOM     21  C   UNL     1      11.373  11.032  23.250  0.00  0.00    +0.019 A 
BRANCH  18  26
ATOM      7  N   UNL     1      14.164  13.130  23.523  0.00  0.00    -0.191 NA
ATOM     26  C   UNL     1      13.518  12.206  23.246  0.00  0.00    +0.099 C 
ENDBRANCH  18  26
ENDBRANCH  12  14
ENDBRANCH   2  12
TORSDOF 6
ENDMDL
MODEL 10
REMARK VINA RESULT:      -6.2      3.580      8.713
REMARK  Name = 45783799
REMARK  8 active torsions:
REMARK  status: ('A' for Active; 'I' for Inactive)
REMARK    1  A    between atoms: N_2  and  C_12
REMARK    2  A    between atoms: N_6  and  C_25
REMARK    3  A    between atoms: N_6  and  C_27
REMARK    4  A    between atoms: N_6  and  C_28
REMARK    5  A    between atoms: C_8  and  C_13
REMARK    6  A    between atoms: C_12  and  C_14
REMARK    7  A    between atoms: C_17  and  C_20
REMARK    8  A    between atoms: C_18  and  C_26
REMARK                            x       y       z     vdW  Elec       q    Type
REMARK                         _______ _______ _______ _____ _____    ______ ____
ROOT
ATOM      2  N   UNL     1      13.693   9.138  19.551  0.00  0.00    -0.287 NA
ATOM      8  C   UNL     1      14.089   7.989  18.712  0.00  0.00    +0.146 C 
ATOM      9  C   UNL     1      14.133   8.548  17.278  0.00  0.00    +0.030 C 
ATOM     10  C   UNL     1      13.689   9.998  17.403  0.00  0.00    +0.017 C 
ATOM     11  C   UNL     1      12.899  10.020  18.695  0.00  0.00    +0.085 C 
ENDROOT
BRANCH   8  13
ATOM      1  O   UNL     1      15.754   6.208  18.550  0.00  0.00    -0.336 OA
ATOM      3  N   UNL     1      16.276   7.816  20.019  0.00  0.00    -0.190 NA
ATOM      4  N   UNL     1      16.990   5.846  19.102  0.00  0.00    -0.056 NA
ATOM     13  C   UNL     1      15.406   7.379  19.143  0.00  0.00    +0.245 A 
ATOM     17  C   UNL     1      17.230   6.843  19.959  0.00  0.00    +0.204 A 
BRANCH  17  20
ATOM      5  N   UNL     1      20.582   5.981  21.318  0.00  0.00    -0.240 NA
ATOM     20  C   UNL     1      18.414   6.897  20.767  0.00  0.00    +0.041 A 
ATOM     22  C   UNL     1      18.563   7.866  21.754  0.00  0.00    +0.016 A 
ATOM     23  C   UNL     1      19.442   5.986  20.591  0.00  0.00    +0.124 A 
ATOM     24  C   UNL     1      19.722   7.893  22.522  0.00  0.00    +0.044 A 
ATOM     25  C   UNL     1      20.693   6.938  22.268  0.00  0.00    +0.121 A 
BRANCH  25   6
ATOM      6  N   UNL     1      21.867   6.979  23.058  0.00  0.00    -0.321 N 
ATOM     27  C   UNL     1      22.318   8.231  23.627  0.00  0.00    +0.130 C 
ATOM     28  C   UNL     1      22.625   5.772  23.298  0.00  0.00    +0.130 C 
ENDBRANCH  25   6
ENDBRANCH  17  20
ENDBRANCH   8  13
BRANCH   2  12
ATOM     12  C   UNL     1      12.973   8.749  20.756  0.00  0.00    +0.120 C 
BRANCH  12  14
ATOM     14  C   UNL     1      13.183   9.731  21.876  0.00  0.00    -0.032 A 
ATOM     15  C   UNL     1      12.087  10.350  22.479  0.00  0.00    +0.023 A 
ATOM     16  C   UNL     1      14.475  10.023  22.314  0.00  0.00    +0.005 A 
ATOM     18  C   UNL     1      12.283  11.259  23.518  0.00  0.00    +0.052 A 
ATOM     19  C   UNL     1      14.672  10.932  23.353  0.00  0.00    +0.002 A 
ATOM     21  C   UNL     1      13.576  11.550  23.955  0.00  0.00    +0.019 A 
BRANCH  18  26
ATOM      7  N   UNL     1      10.250  12.404  24.640  0.00  0.00    -0.191 NA
ATOM     26  C   UNL     1      11.162  11.892  24.137  0.00  0.00    +0.099 C 
ENDBRANCH  18  26
ENDBRANCH  12  14
ENDBRANCH   2  12
TORSDOF 6
ENDMDL
