MODEL 1
REMARK VINA RESULT:      -7.1      0.000      0.000
REMARK  Name = 51136831
REMARK  6 active torsions:
REMARK  status: ('A' for Active; 'I' for Inactive)
REMARK    1  A    between atoms: N_3  and  C_13
REMARK    2  A    between atoms: C_9  and  C_14
REMARK    3  A    between atoms: C_13  and  C_15
REMARK    4  A    between atoms: C_13  and  C_16
REMARK    5  A    between atoms: C_21  and  C_23
REMARK    6  A    between atoms: C_25  and  C_28
REMARK                            x       y       z     vdW  Elec       q    Type
REMARK                         _______ _______ _______ _____ _____    ______ ____
ROOT
ATOM      2  O   UNL     1     -13.647  -8.702  16.873  0.00  0.00    -0.276 OA
ATOM      4  N   UNL     1      -8.666  -9.465  17.299  0.00  0.00    -0.312 N 
ATOM      6  N   UNL     1     -11.337  -8.484  16.766  0.00  0.00    -0.299 N 
ATOM      8  N   UNL     1      -7.078 -10.240  18.866  0.00  0.00    -0.240 NA
ATOM     17  C   UNL     1      -9.818  -9.949  18.063  0.00  0.00    +0.125 C 
ATOM     18  C   UNL     1      -8.908  -8.527  16.201  0.00  0.00    +0.125 C 
ATOM     19  C   UNL     1     -11.098  -9.846  17.234  0.00  0.00    +0.126 C 
ATOM     20  C   UNL     1     -10.149  -7.677  16.477  0.00  0.00    +0.126 C 
ATOM     22  C   UNL     1      -7.380  -9.917  17.588  0.00  0.00    +0.122 A 
ATOM     23  C   UNL     1      -5.199 -10.454  16.807  0.00  0.00    +0.027 A 
ATOM     24  C   UNL     1      -6.487 -10.006  16.533  0.00  0.00    +0.055 A 
ATOM     25  C   UNL     1     -12.647  -8.023  16.630  0.00  0.00    +0.213 C 
ATOM     26  C   UNL     1      -4.850 -10.795  18.108  0.00  0.00    +0.031 A 
ATOM     27  C   UNL     1      -5.817 -10.672  19.093  0.00  0.00    +0.113 A 
ATOM     28  C   UNL     1     -12.807  -6.602  16.149  0.00  0.00    +0.109 C 
ENDROOT
BRANCH  23  21
ATOM      1  O   UNL     1      -2.390 -10.747  14.687  0.00  0.00    -0.336 OA
ATOM      5  N   UNL     1      -4.610 -10.578  14.436  0.00  0.00    -0.190 NA
ATOM      7  N   UNL     1      -2.922 -10.663  15.980  0.00  0.00    -0.056 NA
ATOM     14  C   UNL     1      -3.450 -10.690  13.839  0.00  0.00    +0.245 A 
ATOM     21  C   UNL     1      -4.235 -10.566  15.749  0.00  0.00    +0.202 A 
BRANCH  14   9
ATOM      3  N   UNL     1      -3.846  -9.734  11.576  0.00  0.00    -0.289 NA
ATOM      9  C   UNL     1      -3.134 -10.764  12.359  0.00  0.00    +0.146 C 
ATOM     10  C   UNL     1      -1.644 -10.524  12.057  0.00  0.00    +0.030 C 
ATOM     11  C   UNL     1      -2.998  -9.433  10.422  0.00  0.00    +0.085 C 
ATOM     12  C   UNL     1      -1.620  -9.383  11.050  0.00  0.00    +0.017 C 
BRANCH   3  13
ATOM     13  C   UNL     1      -5.188 -10.139  11.179  0.00  0.00    +0.051 C 
ATOM     15  C   UNL     1      -6.180  -9.041  11.550  0.00  0.00    +0.024 C 
ATOM     16  C   UNL     1      -5.231 -10.434   9.683  0.00  0.00    +0.024 C 
ENDBRANCH   3  13
ENDBRANCH  14   9
ENDBRANCH  23  21
TORSDOF 3
ENDMDL
MODEL 2
REMARK VINA RESULT:      -6.9      3.597      6.806
REMARK  Name = 51136831
REMARK  6 active torsions:
REMARK  status: ('A' for Active; 'I' for Inactive)
REMARK    1  A    between atoms: N_3  and  C_13
REMARK    2  A    between atoms: C_9  and  C_14
REMARK    3  A    between atoms: C_13  and  C_15
REMARK    4  A    between atoms: C_13  and  C_16
REMARK    5  A    between atoms: C_21  and  C_23
REMARK    6  A    between atoms: C_25  and  C_28
REMARK                            x       y       z     vdW  Elec       q    Type
REMARK                         _______ _______ _______ _____ _____    ______ ____
ROOT
ATOM      2  O   UNL     1      -5.440 -12.476  18.937  0.00  0.00    -0.276 OA
ATOM      4  N   UNL     1      -4.324 -10.636  14.360  0.00  0.00    -0.312 N 
ATOM      6  N   UNL     1      -5.311 -11.153  17.032  0.00  0.00    -0.299 N 
ATOM      8  N   UNL     1      -2.481 -10.393  12.904  0.00  0.00    -0.240 NA
ATOM     17  C   UNL     1      -3.631 -11.563  15.258  0.00  0.00    +0.125 C 
ATOM     18  C   UNL     1      -5.576 -10.032  14.820  0.00  0.00    +0.125 C 
ATOM     19  C   UNL     1      -4.609 -12.175  16.261  0.00  0.00    +0.126 C 
ATOM     20  C   UNL     1      -5.584  -9.889  16.342  0.00  0.00    +0.126 C 
ATOM     22  C   UNL     1      -3.820 -10.367  13.090  0.00  0.00    +0.122 A 
ATOM     23  C   UNL     1      -4.248  -9.814  10.817  0.00  0.00    +0.027 A 
ATOM     24  C   UNL     1      -4.737 -10.086  12.090  0.00  0.00    +0.055 A 
ATOM     25  C   UNL     1      -5.668 -11.413  18.355  0.00  0.00    +0.213 C 
ATOM     26  C   UNL     1      -2.878  -9.831  10.585  0.00  0.00    +0.031 A 
ATOM     27  C   UNL     1      -2.044 -10.124  11.653  0.00  0.00    +0.113 A 
ATOM     28  C   UNL     1      -6.383 -10.302  19.084  0.00  0.00    +0.109 C 
ENDROOT
BRANCH  23  21
ATOM      1  O   UNL     1      -6.034  -9.374   7.802  0.00  0.00    -0.336 OA
ATOM      5  N   UNL     1      -6.341  -8.877   9.965  0.00  0.00    -0.190 NA
ATOM      7  N   UNL     1      -4.901  -9.849   8.475  0.00  0.00    -0.056 NA
ATOM     14  C   UNL     1      -6.830  -8.817   8.752  0.00  0.00    +0.245 A 
ATOM     21  C   UNL     1      -5.156  -9.519   9.744  0.00  0.00    +0.202 A 
BRANCH  14   9
ATOM      3  N   UNL     1      -9.094  -7.992   9.373  0.00  0.00    -0.289 NA
ATOM      9  C   UNL     1      -8.138  -8.223   8.272  0.00  0.00    +0.146 C 
ATOM     10  C   UNL     1      -7.958  -6.842   7.615  0.00  0.00    +0.030 C 
ATOM     11  C   UNL     1      -9.923  -6.856   8.970  0.00  0.00    +0.085 C 
ATOM     12  C   UNL     1      -8.896  -5.915   8.373  0.00  0.00    +0.017 C 
BRANCH   3  13
ATOM     13  C   UNL     1      -9.893  -9.167   9.696  0.00  0.00    +0.051 C 
ATOM     15  C   UNL     1     -11.033  -8.764  10.627  0.00  0.00    +0.024 C 
ATOM     16  C   UNL     1     -10.429  -9.810   8.420  0.00  0.00    +0.024 C 
ENDBRANCH   3  13
ENDBRANCH  14   9
ENDBRANCH  23  21
TORSDOF 3
ENDMDL
MODEL 3
REMARK VINA RESULT:      -6.8      2.677      4.225
REMARK  Name = 51136831
REMARK  6 active torsions:
REMARK  status: ('A' for Active; 'I' for Inactive)
REMARK    1  A    between atoms: N_3  and  C_13
REMARK    2  A    between atoms: C_9  and  C_14
REMARK    3  A    between atoms: C_13  and  C_15
REMARK    4  A    between atoms: C_13  and  C_16
REMARK    5  A    between atoms: C_21  and  C_23
REMARK    6  A    between atoms: C_25  and  C_28
REMARK                            x       y       z     vdW  Elec       q    Type
REMARK                         _______ _______ _______ _____ _____    ______ ____
ROOT
ATOM      2  O   UNL     1      -9.260 -12.525  19.871  0.00  0.00    -0.276 OA
ATOM      4  N   UNL     1      -5.356 -11.101  16.989  0.00  0.00    -0.312 N 
ATOM      6  N   UNL     1      -7.849 -11.364  18.437  0.00  0.00    -0.299 N 
ATOM      8  N   UNL     1      -2.995 -11.047  17.032  0.00  0.00    -0.240 NA
ATOM     17  C   UNL     1      -5.466 -11.979  18.156  0.00  0.00    +0.125 C 
ATOM     18  C   UNL     1      -6.563 -10.415  16.522  0.00  0.00    +0.125 C 
ATOM     19  C   UNL     1      -6.902 -12.470  18.329  0.00  0.00    +0.126 C 
ATOM     20  C   UNL     1      -7.520 -10.150  17.684  0.00  0.00    +0.126 C 
ATOM     22  C   UNL     1      -4.142 -10.954  16.321  0.00  0.00    +0.122 A 
ATOM     23  C   UNL     1      -2.988 -10.569  14.278  0.00  0.00    +0.027 A 
ATOM     24  C   UNL     1      -4.192 -10.720  14.957  0.00  0.00    +0.055 A 
ATOM     25  C   UNL     1      -8.983 -11.504  19.237  0.00  0.00    +0.213 C 
ATOM     26  C   UNL     1      -1.788 -10.657  14.973  0.00  0.00    +0.031 A 
ATOM     27  C   UNL     1      -1.845 -10.895  16.337  0.00  0.00    +0.113 A 
ATOM     28  C   UNL     1      -9.905 -10.311  19.302  0.00  0.00    +0.109 C 
ENDROOT
BRANCH  23  21
ATOM      1  O   UNL     1      -2.351 -10.138  10.831  0.00  0.00    -0.336 OA
ATOM      5  N   UNL     1      -4.109  -9.922  12.202  0.00  0.00    -0.190 NA
ATOM      7  N   UNL     1      -1.891 -10.478  12.110  0.00  0.00    -0.056 NA
ATOM     14  C   UNL     1      -3.665  -9.824  10.974  0.00  0.00    +0.245 A 
ATOM     21  C   UNL     1      -2.985 -10.326  12.862  0.00  0.00    +0.202 A 
BRANCH  14   9
ATOM      3  N   UNL     1      -5.213 -10.514   9.154  0.00  0.00    -0.289 NA
ATOM      9  C   UNL     1      -4.402  -9.417   9.716  0.00  0.00    +0.146 C 
ATOM     10  C   UNL     1      -5.405  -8.273   9.957  0.00  0.00    +0.030 C 
ATOM     11  C   UNL     1      -6.342  -9.885   8.467  0.00  0.00    +0.085 C 
ATOM     12  C   UNL     1      -6.738  -8.798   9.445  0.00  0.00    +0.017 C 
BRANCH   3  13
ATOM     13  C   UNL     1      -4.458 -11.396   8.273  0.00  0.00    +0.051 C 
ATOM     15  C   UNL     1      -4.680 -12.845   8.694  0.00  0.00    +0.024 C 
ATOM     16  C   UNL     1      -4.874 -11.176   6.821  0.00  0.00    +0.024 C 
ENDBRANCH   3  13
ENDBRANCH  14   9
ENDBRANCH  23  21
TORSDOF 3
ENDMDL
MODEL 4
REMARK VINA RESULT:      -6.8      1.633      2.241
REMARK  Name = 51136831
REMARK  6 active torsions:
REMARK  status: ('A' for Active; 'I' for Inactive)
REMARK    1  A    between atoms: N_3  and  C_13
REMARK    2  A    between atoms: C_9  and  C_14
REMARK    3  A    between atoms: C_13  and  C_15
REMARK    4  A    between atoms: C_13  and  C_16
REMARK    5  A    between atoms: C_21  and  C_23
REMARK    6  A    between atoms: C_25  and  C_28
REMARK                            x       y       z     vdW  Elec       q    Type
REMARK                         _______ _______ _______ _____ _____    ______ ____
ROOT
ATOM      2  O   UNL     1     -12.353 -10.711  17.775  0.00  0.00    -0.276 OA
ATOM      4  N   UNL     1      -7.364 -10.509  16.971  0.00  0.00    -0.312 N 
ATOM      6  N   UNL     1     -10.214 -10.038  17.171  0.00  0.00    -0.299 N 
ATOM      8  N   UNL     1      -5.332 -11.060  18.039  0.00  0.00    -0.240 NA
ATOM     17  C   UNL     1      -8.192 -11.260  17.918  0.00  0.00    +0.125 C 
ATOM     18  C   UNL     1      -8.027  -9.565  16.068  0.00  0.00    +0.125 C 
ATOM     19  C   UNL     1      -9.633 -11.354  17.418  0.00  0.00    +0.126 C 
ATOM     20  C   UNL     1      -9.292  -8.995  16.712  0.00  0.00    +0.126 C 
ATOM     22  C   UNL     1      -5.988 -10.718  16.908  0.00  0.00    +0.122 A 
ATOM     23  C   UNL     1      -4.005 -10.763  15.597  0.00  0.00    +0.027 A 
ATOM     24  C   UNL     1      -5.378 -10.559  15.674  0.00  0.00    +0.055 A 
ATOM     25  C   UNL     1     -11.576  -9.834  17.389  0.00  0.00    +0.213 C 
ATOM     26  C   UNL     1      -3.294 -11.115  16.738  0.00  0.00    +0.031 A 
ATOM     27  C   UNL     1      -3.998 -11.250  17.924  0.00  0.00    +0.113 A 
ATOM     28  C   UNL     1     -12.095  -8.443  17.118  0.00  0.00    +0.109 C 
ENDROOT
BRANCH  23  21
ATOM      1  O   UNL     1      -1.801 -10.290  12.878  0.00  0.00    -0.336 OA
ATOM      5  N   UNL     1      -3.981 -10.729  13.151  0.00  0.00    -0.190 NA
ATOM      7  N   UNL     1      -2.015 -10.350  14.261  0.00  0.00    -0.056 NA
ATOM     14  C   UNL     1      -3.008 -10.524  12.299  0.00  0.00    +0.245 A 
ATOM     21  C   UNL     1      -3.323 -10.612  14.342  0.00  0.00    +0.202 A 
BRANCH  14   9
ATOM      3  N   UNL     1      -4.249 -11.169  10.242  0.00  0.00    -0.289 NA
ATOM      9  C   UNL     1      -3.043 -10.514  10.785  0.00  0.00    +0.146 C 
ATOM     10  C   UNL     1      -3.076  -9.089  10.202  0.00  0.00    +0.030 C 
ATOM     11  C   UNL     1      -4.534 -10.516   8.963  0.00  0.00    +0.085 C 
ATOM     12  C   UNL     1      -4.298  -9.057   9.297  0.00  0.00    +0.017 C 
BRANCH   3  13
ATOM     13  C   UNL     1      -4.106 -12.612  10.101  0.00  0.00    +0.051 C 
ATOM     15  C   UNL     1      -5.185 -13.311  10.922  0.00  0.00    +0.024 C 
ATOM     16  C   UNL     1      -4.190 -13.011   8.630  0.00  0.00    +0.024 C 
ENDBRANCH   3  13
ENDBRANCH  14   9
ENDBRANCH  23  21
TORSDOF 3
ENDMDL
MODEL 5
REMARK VINA RESULT:      -6.5      1.978      3.294
REMARK  Name = 51136831
REMARK  6 active torsions:
REMARK  status: ('A' for Active; 'I' for Inactive)
REMARK    1  A    between atoms: N_3  and  C_13
REMARK    2  A    between atoms: C_9  and  C_14
REMARK    3  A    between atoms: C_13  and  C_15
REMARK    4  A    between atoms: C_13  and  C_16
REMARK    5  A    between atoms: C_21  and  C_23
REMARK    6  A    between atoms: C_25  and  C_28
REMARK                            x       y       z     vdW  Elec       q    Type
REMARK                         _______ _______ _______ _____ _____    ______ ____
ROOT
ATOM      2  O   UNL     1     -14.141  -6.472  13.318  0.00  0.00    -0.276 OA
ATOM      4  N   UNL     1     -10.739  -8.485  16.473  0.00  0.00    -0.312 N 
ATOM      6  N   UNL     1     -12.293  -6.826  14.681  0.00  0.00    -0.299 N 
ATOM      8  N   UNL     1     -10.639  -9.776  18.448  0.00  0.00    -0.240 NA
ATOM     17  C   UNL     1     -12.165  -8.739  16.249  0.00  0.00    +0.125 C 
ATOM     18  C   UNL     1     -10.097  -7.416  15.706  0.00  0.00    +0.125 C 
ATOM     19  C   UNL     1     -12.591  -8.243  14.869  0.00  0.00    +0.126 C 
ATOM     20  C   UNL     1     -11.102  -6.315  15.364  0.00  0.00    +0.126 C 
ATOM     22  C   UNL     1     -10.009  -9.268  17.366  0.00  0.00    +0.122 A 
ATOM     23  C   UNL     1      -7.928 -10.252  17.962  0.00  0.00    +0.027 A 
ATOM     24  C   UNL     1      -8.669  -9.475  17.079  0.00  0.00    +0.055 A 
ATOM     25  C   UNL     1     -13.138  -6.043  13.894  0.00  0.00    +0.213 C 
ATOM     26  C   UNL     1      -8.540 -10.792  19.087  0.00  0.00    +0.031 A 
ATOM     27  C   UNL     1      -9.886 -10.527  19.283  0.00  0.00    +0.113 A 
ATOM     28  C   UNL     1     -12.764  -4.588  13.757  0.00  0.00    +0.109 C 
ENDROOT
BRANCH  23  21
ATOM      1  O   UNL     1      -4.427 -10.717  17.974  0.00  0.00    -0.336 OA
ATOM      5  N   UNL     1      -6.084 -10.855  16.473  0.00  0.00    -0.190 NA
ATOM      7  N   UNL     1      -5.604 -10.396  18.663  0.00  0.00    -0.056 NA
ATOM     14  C   UNL     1      -4.799 -10.973  16.693  0.00  0.00    +0.245 A 
ATOM     21  C   UNL     1      -6.536 -10.499  17.711  0.00  0.00    +0.202 A 
BRANCH  14   9
ATOM      3  N   UNL     1      -3.719 -10.553  14.491  0.00  0.00    -0.289 NA
ATOM      9  C   UNL     1      -3.690 -11.351  15.732  0.00  0.00    +0.146 C 
ATOM     10  C   UNL     1      -2.287 -11.110  16.320  0.00  0.00    +0.030 C 
ATOM     11  C   UNL     1      -2.336 -10.468  14.021  0.00  0.00    +0.085 C 
ATOM     12  C   UNL     1      -1.581 -10.216  15.311  0.00  0.00    +0.017 C 
BRANCH   3  13
ATOM     13  C   UNL     1      -4.610 -11.099  13.476  0.00  0.00    +0.051 C 
ATOM     15  C   UNL     1      -4.527 -10.244  12.215  0.00  0.00    +0.024 C 
ATOM     16  C   UNL     1      -4.246 -12.551  13.179  0.00  0.00    +0.024 C 
ENDBRANCH   3  13
ENDBRANCH  14   9
ENDBRANCH  23  21
TORSDOF 3
ENDMDL
MODEL 6
REMARK VINA RESULT:      -6.4      2.815      7.770
REMARK  Name = 51136831
REMARK  6 active torsions:
REMARK  status: ('A' for Active; 'I' for Inactive)
REMARK    1  A    between atoms: N_3  and  C_13
REMARK    2  A    between atoms: C_9  and  C_14
REMARK    3  A    between atoms: C_13  and  C_15
REMARK    4  A    between atoms: C_13  and  C_16
REMARK    5  A    between atoms: C_21  and  C_23
REMARK    6  A    between atoms: C_25  and  C_28
REMARK                            x       y       z     vdW  Elec       q    Type
REMARK                         _______ _______ _______ _____ _____    ______ ____
ROOT
ATOM      2  O   UNL     1      -7.708  -9.670   6.325  0.00  0.00    -0.276 OA
ATOM      4  N   UNL     1      -4.864 -10.503  10.424  0.00  0.00    -0.312 N 
ATOM      6  N   UNL     1      -6.783 -10.569   8.257  0.00  0.00    -0.299 N 
ATOM      8  N   UNL     1      -2.609 -10.402  11.117  0.00  0.00    -0.240 NA
ATOM     17  C   UNL     1      -4.629  -9.766   9.179  0.00  0.00    +0.125 C 
ATOM     18  C   UNL     1      -6.135 -11.214  10.577  0.00  0.00    +0.125 C 
ATOM     19  C   UNL     1      -5.953  -9.396   8.513  0.00  0.00    +0.126 C 
ATOM     20  C   UNL     1      -6.671 -11.668   9.219  0.00  0.00    +0.126 C 
ATOM     22  C   UNL     1      -3.917 -10.494  11.446  0.00  0.00    +0.122 A 
ATOM     23  C   UNL     1      -3.453 -10.575  13.776  0.00  0.00    +0.027 A 
ATOM     24  C   UNL     1      -4.386 -10.581  12.746  0.00  0.00    +0.055 A 
ATOM     25  C   UNL     1      -7.612 -10.594   7.135  0.00  0.00    +0.213 C 
ATOM     26  C   UNL     1      -2.098 -10.482  13.479  0.00  0.00    +0.031 A 
ATOM     27  C   UNL     1      -1.731 -10.398  12.145  0.00  0.00    +0.113 A 
ATOM     28  C   UNL     1      -8.431 -11.847   6.939  0.00  0.00    +0.109 C 
ENDROOT
BRANCH  23  21
ATOM      1  O   UNL     1      -3.911 -10.991  17.253  0.00  0.00    -0.336 OA
ATOM      5  N   UNL     1      -5.160 -10.337  15.512  0.00  0.00    -0.190 NA
ATOM      7  N   UNL     1      -3.079 -11.063  16.129  0.00  0.00    -0.056 NA
ATOM     14  C   UNL     1      -5.117 -10.556  16.802  0.00  0.00    +0.245 A 
ATOM     21  C   UNL     1      -3.886 -10.661  15.143  0.00  0.00    +0.202 A 
BRANCH  14   9
ATOM      3  N   UNL     1      -7.428 -11.150  17.504  0.00  0.00    -0.289 NA
ATOM      9  C   UNL     1      -6.207 -10.393  17.841  0.00  0.00    +0.146 C 
ATOM     10  C   UNL     1      -5.790 -10.919  19.227  0.00  0.00    +0.030 C 
ATOM     11  C   UNL     1      -8.060 -11.503  18.776  0.00  0.00    +0.085 C 
ATOM     12  C   UNL     1      -6.868 -11.921  19.613  0.00  0.00    +0.017 C 
BRANCH   3  13
ATOM     13  C   UNL     1      -8.334 -10.421  16.626  0.00  0.00    +0.051 C 
ATOM     15  C   UNL     1      -9.680 -11.138  16.577  0.00  0.00    +0.024 C 
ATOM     16  C   UNL     1      -8.496  -8.983  17.110  0.00  0.00    +0.024 C 
ENDBRANCH   3  13
ENDBRANCH  14   9
ENDBRANCH  23  21
TORSDOF 3
ENDMDL
MODEL 7
REMARK VINA RESULT:      -6.4      5.044     10.764
REMARK  Name = 51136831
REMARK  6 active torsions:
REMARK  status: ('A' for Active; 'I' for Inactive)
REMARK    1  A    between atoms: N_3  and  C_13
REMARK    2  A    between atoms: C_9  and  C_14
REMARK    3  A    between atoms: C_13  and  C_15
REMARK    4  A    between atoms: C_13  and  C_16
REMARK    5  A    between atoms: C_21  and  C_23
REMARK    6  A    between atoms: C_25  and  C_28
REMARK                            x       y       z     vdW  Elec       q    Type
REMARK                         _______ _______ _______ _____ _____    ______ ____
ROOT
ATOM      2  O   UNL     1      -3.195 -12.336  10.857  0.00  0.00    -0.276 OA
ATOM      4  N   UNL     1      -6.383  -8.959   8.855  0.00  0.00    -0.312 N 
ATOM      6  N   UNL     1      -4.312 -10.378  10.297  0.00  0.00    -0.299 N 
ATOM      8  N   UNL     1      -7.401  -8.428   6.792  0.00  0.00    -0.240 NA
ATOM     17  C   UNL     1      -5.914 -10.274   8.410  0.00  0.00    +0.125 C 
ATOM     18  C   UNL     1      -5.832  -8.411  10.097  0.00  0.00    +0.125 C 
ATOM     19  C   UNL     1      -5.378 -11.083   9.590  0.00  0.00    +0.126 C 
ATOM     20  C   UNL     1      -4.408  -8.916  10.328  0.00  0.00    +0.126 C 
ATOM     22  C   UNL     1      -7.354  -8.268   8.133  0.00  0.00    +0.122 A 
ATOM     23  C   UNL     1      -9.191  -6.758   8.141  0.00  0.00    +0.027 A 
ATOM     24  C   UNL     1      -8.218  -7.454   8.849  0.00  0.00    +0.055 A 
ATOM     25  C   UNL     1      -3.276 -11.106  10.882  0.00  0.00    +0.213 C 
ATOM     26  C   UNL     1      -9.271  -6.895   6.760  0.00  0.00    +0.031 A 
ATOM     27  C   UNL     1      -8.361  -7.735   6.139  0.00  0.00    +0.113 A 
ATOM     28  C   UNL     1      -2.211 -10.301  11.586  0.00  0.00    +0.109 C 
ENDROOT
BRANCH  23  21
ATOM      1  O   UNL     1     -11.091  -4.169   9.610  0.00  0.00    -0.336 OA
ATOM      5  N   UNL     1     -11.155  -6.407   9.556  0.00  0.00    -0.190 NA
ATOM      7  N   UNL     1     -10.007  -4.570   8.819  0.00  0.00    -0.056 NA
ATOM     14  C   UNL     1     -11.713  -5.311  10.003  0.00  0.00    +0.245 A 
ATOM     21  C   UNL     1     -10.112  -5.902   8.835  0.00  0.00    +0.202 A 
BRANCH  14   9
ATOM      3  N   UNL     1     -12.594  -5.042  12.315  0.00  0.00    -0.289 NA
ATOM      9  C   UNL     1     -12.936  -5.144  10.882  0.00  0.00    +0.146 C 
ATOM     10  C   UNL     1     -13.718  -3.854  10.573  0.00  0.00    +0.030 C 
ATOM     11  C   UNL     1     -13.637  -4.221  12.931  0.00  0.00    +0.085 C 
ATOM     12  C   UNL     1     -13.818  -3.122  11.903  0.00  0.00    +0.017 C 
BRANCH   3  13
ATOM     13  C   UNL     1     -12.460  -6.338  12.967  0.00  0.00    +0.051 C 
ATOM     15  C   UNL     1     -12.334  -6.135  14.474  0.00  0.00    +0.024 C 
ATOM     16  C   UNL     1     -13.653  -7.226  12.631  0.00  0.00    +0.024 C 
ENDBRANCH   3  13
ENDBRANCH  14   9
ENDBRANCH  23  21
TORSDOF 3
ENDMDL
MODEL 8
REMARK VINA RESULT:      -6.4      2.723      8.125
REMARK  Name = 51136831
REMARK  6 active torsions:
REMARK  status: ('A' for Active; 'I' for Inactive)
REMARK    1  A    between atoms: N_3  and  C_13
REMARK    2  A    between atoms: C_9  and  C_14
REMARK    3  A    between atoms: C_13  and  C_15
REMARK    4  A    between atoms: C_13  and  C_16
REMARK    5  A    between atoms: C_21  and  C_23
REMARK    6  A    between atoms: C_25  and  C_28
REMARK                            x       y       z     vdW  Elec       q    Type
REMARK                         _______ _______ _______ _____ _____    ______ ____
ROOT
ATOM      2  O   UNL     1      -4.457 -10.616   7.434  0.00  0.00    -0.276 OA
ATOM      4  N   UNL     1      -3.432 -10.911  12.378  0.00  0.00    -0.312 N 
ATOM      6  N   UNL     1      -4.257 -11.331   9.635  0.00  0.00    -0.299 N 
ATOM      8  N   UNL     1      -1.712 -10.382  13.907  0.00  0.00    -0.240 NA
ATOM     17  C   UNL     1      -2.845 -10.136  11.282  0.00  0.00    +0.125 C 
ATOM     18  C   UNL     1      -4.507 -11.853  12.061  0.00  0.00    +0.125 C 
ATOM     19  C   UNL     1      -3.825 -10.022  10.116  0.00  0.00    +0.126 C 
ATOM     20  C   UNL     1      -4.353 -12.394  10.639  0.00  0.00    +0.126 C 
ATOM     22  C   UNL     1      -3.002 -10.726  13.690  0.00  0.00    +0.122 A 
ATOM     23  C   UNL     1      -3.520 -10.729  16.011  0.00  0.00    +0.027 A 
ATOM     24  C   UNL     1      -3.936 -10.909  14.696  0.00  0.00    +0.055 A 
ATOM     25  C   UNL     1      -4.538 -11.509   8.280  0.00  0.00    +0.213 C 
ATOM     26  C   UNL     1      -2.202 -10.376  16.276  0.00  0.00    +0.031 A 
ATOM     27  C   UNL     1      -1.345 -10.216  15.198  0.00  0.00    +0.113 A 
ATOM     28  C   UNL     1      -4.970 -12.895   7.865  0.00  0.00    +0.109 C 
ENDROOT
BRANCH  23  21
ATOM      1  O   UNL     1      -5.293 -11.394  18.992  0.00  0.00    -0.336 OA
ATOM      5  N   UNL     1      -5.766 -10.564  16.966  0.00  0.00    -0.190 NA
ATOM      7  N   UNL     1      -4.090 -11.409  18.275  0.00  0.00    -0.056 NA
ATOM     14  C   UNL     1      -6.228 -10.883  18.149  0.00  0.00    +0.245 A 
ATOM     21  C   UNL     1      -4.450 -10.904  17.091  0.00  0.00    +0.202 A 
BRANCH  14   9
ATOM      3  N   UNL     1      -8.664 -10.893  17.647  0.00  0.00    -0.289 NA
ATOM      9  C   UNL     1      -7.635 -10.761  18.697  0.00  0.00    +0.146 C 
ATOM     10  C   UNL     1      -7.972 -11.863  19.718  0.00  0.00    +0.030 C 
ATOM     11  C   UNL     1      -9.848 -11.457  18.298  0.00  0.00    +0.085 C 
ATOM     12  C   UNL     1      -9.239 -12.520  19.190  0.00  0.00    +0.017 C 
BRANCH   3  13
ATOM     13  C   UNL     1      -8.958  -9.639  16.967  0.00  0.00    +0.051 C 
ATOM     15  C   UNL     1      -9.522  -9.933  15.581  0.00  0.00    +0.024 C 
ATOM     16  C   UNL     1      -9.935  -8.806  17.792  0.00  0.00    +0.024 C 
ENDBRANCH   3  13
ENDBRANCH  14   9
ENDBRANCH  23  21
TORSDOF 3
ENDMDL
MODEL 9
REMARK VINA RESULT:      -6.4      2.496      8.790
REMARK  Name = 51136831
REMARK  6 active torsions:
REMARK  status: ('A' for Active; 'I' for Inactive)
REMARK    1  A    between atoms: N_3  and  C_13
REMARK    2  A    between atoms: C_9  and  C_14
REMARK    3  A    between atoms: C_13  and  C_15
REMARK    4  A    between atoms: C_13  and  C_16
REMARK    5  A    between atoms: C_21  and  C_23
REMARK    6  A    between atoms: C_25  and  C_28
REMARK                            x       y       z     vdW  Elec       q    Type
REMARK                         _______ _______ _______ _____ _____    ______ ____
ROOT
ATOM      2  O   UNL     1      -1.914 -10.994  15.905  0.00  0.00    -0.276 OA
ATOM      4  N   UNL     1      -6.843 -10.041  16.521  0.00  0.00    -0.312 N 
ATOM      6  N   UNL     1      -4.193 -10.699  15.561  0.00  0.00    -0.299 N 
ATOM      8  N   UNL     1      -8.591 -10.452  18.055  0.00  0.00    -0.240 NA
ATOM     17  C   UNL     1      -5.787 -10.471  17.442  0.00  0.00    +0.125 C 
ATOM     18  C   UNL     1      -6.503  -9.877  15.107  0.00  0.00    +0.125 C 
ATOM     19  C   UNL     1      -4.409 -10.121  16.884  0.00  0.00    +0.126 C 
ATOM     20  C   UNL     1      -5.375 -10.828  14.705  0.00  0.00    +0.126 C 
ATOM     22  C   UNL     1      -8.125  -9.762  16.990  0.00  0.00    +0.122 A 
ATOM     23  C   UNL     1     -10.126  -8.495  16.780  0.00  0.00    +0.027 A 
ATOM     24  C   UNL     1      -8.845  -8.783  16.325  0.00  0.00    +0.055 A 
ATOM     25  C   UNL     1      -2.911 -11.102  15.186  0.00  0.00    +0.213 C 
ATOM     26  C   UNL     1     -10.641  -9.184  17.872  0.00  0.00    +0.031 A 
ATOM     27  C   UNL     1      -9.841 -10.144  18.470  0.00  0.00    +0.113 A 
ATOM     28  C   UNL     1      -2.775 -11.697  13.806  0.00  0.00    +0.109 C 
ENDROOT
BRANCH  23  21
ATOM      1  O   UNL     1     -11.939  -5.662  15.703  0.00  0.00    -0.336 OA
ATOM      5  N   UNL     1     -11.476  -7.702  14.901  0.00  0.00    -0.190 NA
ATOM      7  N   UNL     1     -11.147  -6.291  16.672  0.00  0.00    -0.056 NA
ATOM     14  C   UNL     1     -12.085  -6.561  14.695  0.00  0.00    +0.245 A 
ATOM     21  C   UNL     1     -10.914  -7.488  16.127  0.00  0.00    +0.202 A 
BRANCH  14   9
ATOM      3  N   UNL     1     -14.244  -5.612  13.903  0.00  0.00    -0.289 NA
ATOM      9  C   UNL     1     -12.913  -6.115  13.508  0.00  0.00    +0.146 C 
ATOM     10  C   UNL     1     -12.267  -4.949  12.737  0.00  0.00    +0.030 C 
ATOM     11  C   UNL     1     -14.626  -4.620  12.897  0.00  0.00    +0.085 C 
ATOM     12  C   UNL     1     -13.330  -3.861  12.697  0.00  0.00    +0.017 C 
BRANCH   3  13
ATOM     13  C   UNL     1     -15.240  -6.666  14.039  0.00  0.00    +0.051 C 
ATOM     15  C   UNL     1     -15.841  -6.618  15.441  0.00  0.00    +0.024 C 
ATOM     16  C   UNL     1     -16.321  -6.514  12.973  0.00  0.00    +0.024 C 
ENDBRANCH   3  13
ENDBRANCH  14   9
ENDBRANCH  23  21
TORSDOF 3
ENDMDL
MODEL 10
REMARK VINA RESULT:      -6.3      4.109      7.123
REMARK  Name = 51136831
REMARK  6 active torsions:
REMARK  status: ('A' for Active; 'I' for Inactive)
REMARK    1  A    between atoms: N_3  and  C_13
REMARK    2  A    between atoms: C_9  and  C_14
REMARK    3  A    between atoms: C_13  and  C_15
REMARK    4  A    between atoms: C_13  and  C_16
REMARK    5  A    between atoms: C_21  and  C_23
REMARK    6  A    between atoms: C_25  and  C_28
REMARK                            x       y       z     vdW  Elec       q    Type
REMARK                         _______ _______ _______ _____ _____    ______ ____
ROOT
ATOM      2  O   UNL     1      -4.702 -12.912  18.776  0.00  0.00    -0.276 OA
ATOM      4  N   UNL     1      -3.983 -10.711  14.280  0.00  0.00    -0.312 N 
ATOM      6  N   UNL     1      -4.756 -11.453  16.969  0.00  0.00    -0.299 N 
ATOM      8  N   UNL     1      -2.260 -10.296  12.720  0.00  0.00    -0.240 NA
ATOM     17  C   UNL     1      -3.197 -11.673  15.057  0.00  0.00    +0.125 C 
ATOM     18  C   UNL     1      -5.219 -10.190  14.869  0.00  0.00    +0.125 C 
ATOM     19  C   UNL     1      -4.078 -12.390  16.078  0.00  0.00    +0.126 C 
ATOM     20  C   UNL     1      -5.120 -10.156  16.395  0.00  0.00    +0.126 C 
ATOM     22  C   UNL     1      -3.582 -10.334  13.000  0.00  0.00    +0.122 A 
ATOM     23  C   UNL     1      -4.192  -9.639  10.810  0.00  0.00    +0.027 A 
ATOM     24  C   UNL     1      -4.578 -10.019  12.090  0.00  0.00    +0.055 A 
ATOM     25  C   UNL     1      -5.008 -11.820  18.291  0.00  0.00    +0.213 C 
ATOM     26  C   UNL     1      -2.842  -9.587  10.482  0.00  0.00    +0.031 A 
ATOM     27  C   UNL     1      -1.924  -9.922  11.464  0.00  0.00    +0.113 A 
ATOM     28  C   UNL     1      -5.705 -10.791  19.148  0.00  0.00    +0.109 C 
ENDROOT
BRANCH  23  21
ATOM      1  O   UNL     1      -6.536  -8.202   8.593  0.00  0.00    -0.336 OA
ATOM      5  N   UNL     1      -5.782 -10.259   9.058  0.00  0.00    -0.190 NA
ATOM      7  N   UNL     1      -5.584  -8.047   9.608  0.00  0.00    -0.056 NA
ATOM     14  C   UNL     1      -6.592  -9.534   8.329  0.00  0.00    +0.245 A 
ATOM     21  C   UNL     1      -5.185  -9.303   9.828  0.00  0.00    +0.202 A 
BRANCH  14   9
ATOM      3  N   UNL     1      -7.068 -11.118   6.471  0.00  0.00    -0.289 NA
ATOM      9  C   UNL     1      -7.563  -9.966   7.250  0.00  0.00    +0.146 C 
ATOM     10  C   UNL     1      -8.916 -10.432   7.820  0.00  0.00    +0.030 C 
ATOM     11  C   UNL     1      -8.251 -11.852   6.020  0.00  0.00    +0.085 C 
ATOM     12  C   UNL     1      -9.124 -11.831   7.259  0.00  0.00    +0.017 C 
BRANCH   3  13
ATOM     13  C   UNL     1      -6.206 -10.734   5.361  0.00  0.00    +0.051 C 
ATOM     15  C   UNL     1      -4.852 -11.421   5.510  0.00  0.00    +0.024 C 
ATOM     16  C   UNL     1      -6.861 -11.096   4.032  0.00  0.00    +0.024 C 
ENDBRANCH   3  13
ENDBRANCH  14   9
ENDBRANCH  23  21
TORSDOF 3
ENDMDL
