MODEL 1
REMARK VINA RESULT:      -6.7      0.000      0.000
REMARK  Name = 7134491
REMARK  14 active torsions:
REMARK  status: ('A' for Active; 'I' for Inactive)
REMARK    1  A    between atoms: O_2  and  C_20
REMARK    2  A    between atoms: O_3  and  C_23
REMARK    3  A    between atoms: O_4  and  C_24
REMARK    4  A    between atoms: O_7  and  C_28
REMARK    5  A    between atoms: N_10  and  C_19
REMARK    6  A    between atoms: N_11  and  C_29
REMARK    7  A    between atoms: C_13  and  C_18
REMARK    8  A    between atoms: C_13  and  C_22
REMARK    9  A    between atoms: C_18  and  C_26
REMARK   10  A    between atoms: C_20  and  C_27
REMARK   11  A    between atoms: C_22  and  C_28
REMARK   12  A    between atoms: C_29  and  C_30
REMARK   13  A    between atoms: C_29  and  C_31
REMARK   14  A    between atoms: C_30  and  C_32
REMARK                            x       y       z     vdW  Elec       q    Type
REMARK                         _______ _______ _______ _____ _____    ______ ____
ROOT
ATOM     19  C   UNL     1      18.466   6.495  21.017  0.00  0.00    +0.107 C 
ATOM     20  C   UNL     1      16.097   7.416  21.059  0.00  0.00    +0.146 C 
ATOM     21  C   UNL     1      17.573   7.695  21.354  0.00  0.00    +0.069 C 
ATOM     23  C   UNL     1      18.254   6.012  19.577  0.00  0.00    +0.163 C 
ATOM     24  C   UNL     1      16.776   5.753  19.269  0.00  0.00    +0.148 C 
ATOM     25  C   UNL     1      15.898   6.956  19.616  0.00  0.00    +0.078 C 
ENDROOT
BRANCH  19  10
ATOM      5  O   UNL     1      19.957   6.253  23.485  0.00  0.00    -0.276 OA
ATOM     10  N   UNL     1      19.853   6.841  21.240  0.00  0.00    -0.310 N 
ATOM     26  C   UNL     1      20.482   6.688  22.465  0.00  0.00    +0.214 C 
ATOM     36  H   UNL     1      20.355   7.275  20.472  0.00  0.00    +0.149 HD
BRANCH  26  18
ATOM     18  C   UNL     1      21.934   7.128  22.402  0.00  0.00    +0.103 C 
BRANCH  18  13
ATOM     13  C   UNL     1      22.906   5.995  22.732  0.00  0.00    -0.011 C 
ATOM     14  C   UNL     1      24.350   6.364  22.366  0.00  0.00    +0.008 C 
ATOM     15  C   UNL     1      23.018   5.769  24.247  0.00  0.00    +0.008 C 
ATOM     16  C   UNL     1      25.223   5.467  23.240  0.00  0.00    +0.001 C 
ATOM     17  C   UNL     1      24.367   5.083  24.447  0.00  0.00    +0.001 C 
BRANCH  13  22
ATOM     22  C   UNL     1      22.457   4.714  22.008  0.00  0.00    +0.127 C 
BRANCH  22  28
ATOM      8  O   UNL     1      23.947   4.522  20.089  0.00  0.00    -0.251 OA
ATOM     28  C   UNL     1      22.841   4.743  20.558  0.00  0.00    +0.305 C 
BRANCH  28   7
ATOM      7  O   UNL     1      21.754   5.059  19.810  0.00  0.00    -0.481 OA
ATOM     41  H   UNL     1      20.987   5.314  20.367  0.00  0.00    +0.295 HD
ENDBRANCH  28   7
ENDBRANCH  22  28
ENDBRANCH  13  22
ENDBRANCH  18  13
ENDBRANCH  26  18
ENDBRANCH  19  10
BRANCH  20  27
ATOM      6  O   UNL     1      15.715   9.603  21.939  0.00  0.00    -0.273 OA
ATOM     11  N   UNL     1      13.975   8.508  20.847  0.00  0.00    -0.301 N 
ATOM     27  C   UNL     1      15.265   8.635  21.332  0.00  0.00    +0.246 C 
ATOM     40  H   UNL     1      13.677   7.636  20.420  0.00  0.00    +0.150 HD
BRANCH  11  29
ATOM     29  C   UNL     1      12.968   9.534  21.000  0.00  0.00    +0.163 C 
BRANCH  29  31
ATOM      9  O   UNL     1      11.505   8.110  22.319  0.00  0.00    -0.274 OA
ATOM     12  N   UNL     1      12.198  10.107  23.218  0.00  0.00    -0.328 N 
ATOM     31  C   UNL     1      12.134   9.161  22.217  0.00  0.00    +0.231 C 
ATOM     42  H   UNL     1      11.698   9.975  24.091  0.00  0.00    +0.145 HD
ATOM     43  H   UNL     1      12.723  10.970  23.122  0.00  0.00    +0.145 HD
ENDBRANCH  29  31
BRANCH  29  30
ATOM     30  C   UNL     1      12.076   9.664  19.760  0.00  0.00    +0.074 C 
BRANCH  30  32
ATOM      1  S   UNL     1      13.862  10.895  18.012  0.00  0.00    -0.102 S 
ATOM     32  C   UNL     1      12.865   9.582  18.475  0.00  0.00    -0.008 A 
ATOM     33  C   UNL     1      12.910   8.553  17.560  0.00  0.00    +0.011 A 
ATOM     34  C   UNL     1      13.773   8.846  16.465  0.00  0.00    +0.008 A 
ATOM     35  C   UNL     1      14.357  10.089  16.585  0.00  0.00    +0.045 A 
ENDBRANCH  30  32
ENDBRANCH  29  30
ENDBRANCH  11  29
ENDBRANCH  20  27
BRANCH  20   2
ATOM      2  O   UNL     1      15.593   6.419  21.939  0.00  0.00    -0.379 OA
ATOM     37  H   UNL     1      14.642   6.577  22.071  0.00  0.00    +0.211 HD
ENDBRANCH  20   2
BRANCH  23   3
ATOM      3  O   UNL     1      18.957   4.780  19.389  0.00  0.00    -0.387 OA
ATOM     38  H   UNL     1      18.573   4.328  18.617  0.00  0.00    +0.210 HD
ENDBRANCH  23   3
BRANCH  24   4
ATOM      4  O   UNL     1      16.647   5.474  17.875  0.00  0.00    -0.389 OA
ATOM     39  H   UNL     1      15.745   5.143  17.725  0.00  0.00    +0.210 HD
ENDBRANCH  24   4
TORSDOF 14
ENDMDL
MODEL 2
REMARK VINA RESULT:      -6.7      1.789      2.317
REMARK  Name = 7134491
REMARK  14 active torsions:
REMARK  status: ('A' for Active; 'I' for Inactive)
REMARK    1  A    between atoms: O_2  and  C_20
REMARK    2  A    between atoms: O_3  and  C_23
REMARK    3  A    between atoms: O_4  and  C_24
REMARK    4  A    between atoms: O_7  and  C_28
REMARK    5  A    between atoms: N_10  and  C_19
REMARK    6  A    between atoms: N_11  and  C_29
REMARK    7  A    between atoms: C_13  and  C_18
REMARK    8  A    between atoms: C_13  and  C_22
REMARK    9  A    between atoms: C_18  and  C_26
REMARK   10  A    between atoms: C_20  and  C_27
REMARK   11  A    between atoms: C_22  and  C_28
REMARK   12  A    between atoms: C_29  and  C_30
REMARK   13  A    between atoms: C_29  and  C_31
REMARK   14  A    between atoms: C_30  and  C_32
REMARK                            x       y       z     vdW  Elec       q    Type
REMARK                         _______ _______ _______ _____ _____    ______ ____
ROOT
ATOM     19  C   UNL     1      18.667   6.767  21.372  0.00  0.00    +0.107 C 
ATOM     20  C   UNL     1      16.163   7.008  21.002  0.00  0.00    +0.146 C 
ATOM     21  C   UNL     1      17.445   7.685  21.494  0.00  0.00    +0.069 C 
ATOM     23  C   UNL     1      18.824   6.213  19.950  0.00  0.00    +0.163 C 
ATOM     24  C   UNL     1      17.538   5.554  19.444  0.00  0.00    +0.148 C 
ATOM     25  C   UNL     1      16.328   6.480  19.578  0.00  0.00    +0.078 C 
ENDROOT
BRANCH  19  10
ATOM      5  O   UNL     1      20.845   5.771  22.994  0.00  0.00    -0.276 OA
ATOM     10  N   UNL     1      19.858   7.483  21.775  0.00  0.00    -0.310 N 
ATOM     26  C   UNL     1      20.851   6.918  22.558  0.00  0.00    +0.214 C 
ATOM     36  H   UNL     1      19.922   8.464  21.519  0.00  0.00    +0.149 HD
BRANCH  26  18
ATOM     18  C   UNL     1      21.979   7.899  22.818  0.00  0.00    +0.103 C 
BRANCH  18  13
ATOM     13  C   UNL     1      23.195   7.648  21.926  0.00  0.00    -0.011 C 
ATOM     14  C   UNL     1      24.381   7.095  22.730  0.00  0.00    +0.008 C 
ATOM     15  C   UNL     1      22.939   6.510  20.928  0.00  0.00    +0.008 C 
ATOM     16  C   UNL     1      25.251   6.370  21.705  0.00  0.00    +0.001 C 
ATOM     17  C   UNL     1      24.325   5.996  20.547  0.00  0.00    +0.001 C 
BRANCH  13  22
ATOM     22  C   UNL     1      23.571   8.951  21.202  0.00  0.00    +0.127 C 
BRANCH  22  28
ATOM      8  O   UNL     1      21.421   9.724  20.353  0.00  0.00    -0.251 OA
ATOM     28  C   UNL     1      22.554   9.310  20.159  0.00  0.00    +0.305 C 
BRANCH  28   7
ATOM      7  O   UNL     1      23.082   9.105  18.926  0.00  0.00    -0.481 OA
ATOM     41  H   UNL     1      22.852   9.829  18.304  0.00  0.00    +0.295 HD
ENDBRANCH  28   7
ENDBRANCH  22  28
ENDBRANCH  13  22
ENDBRANCH  18  13
ENDBRANCH  26  18
ENDBRANCH  19  10
BRANCH  20  27
ATOM      6  O   UNL     1      15.148   9.132  21.405  0.00  0.00    -0.273 OA
ATOM     11  N   UNL     1      13.807   7.350  20.739  0.00  0.00    -0.301 N 
ATOM     27  C   UNL     1      15.004   7.959  21.069  0.00  0.00    +0.246 C 
ATOM     40  H   UNL     1      13.781   6.354  20.544  0.00  0.00    +0.150 HD
BRANCH  11  29
ATOM     29  C   UNL     1      12.538   8.043  20.747  0.00  0.00    +0.163 C 
BRANCH  29  31
ATOM      9  O   UNL     1      10.648   7.681  22.233  0.00  0.00    -0.274 OA
ATOM     12  N   UNL     1      11.838   5.856  21.504  0.00  0.00    -0.328 N 
ATOM     31  C   UNL     1      11.581   7.209  21.587  0.00  0.00    +0.231 C 
ATOM     42  H   UNL     1      11.263   5.186  22.005  0.00  0.00    +0.145 HD
ATOM     43  H   UNL     1      12.610   5.478  20.964  0.00  0.00    +0.145 HD
ENDBRANCH  29  31
BRANCH  29  30
ATOM     30  C   UNL     1      11.974   8.244  19.336  0.00  0.00    +0.074 C 
BRANCH  30  32
ATOM      1  S   UNL     1      13.637   8.446  17.110  0.00  0.00    -0.102 S 
ATOM     32  C   UNL     1      12.864   9.117  18.483  0.00  0.00    -0.008 A 
ATOM     33  C   UNL     1      13.169  10.451  18.647  0.00  0.00    +0.011 A 
ATOM     34  C   UNL     1      14.050  10.927  17.633  0.00  0.00    +0.008 A 
ATOM     35  C   UNL     1      14.383   9.940  16.731  0.00  0.00    +0.045 A 
ENDBRANCH  30  32
ENDBRANCH  29  30
ENDBRANCH  11  29
ENDBRANCH  20  27
BRANCH  20   2
ATOM      2  O   UNL     1      15.808   5.931  21.860  0.00  0.00    -0.379 OA
ATOM     37  H   UNL     1      14.963   6.146  22.291  0.00  0.00    +0.211 HD
ENDBRANCH  20   2
BRANCH  23   3
ATOM      3  O   UNL     1      19.851   5.216  19.948  0.00  0.00    -0.387 OA
ATOM     38  H   UNL     1      20.099   5.041  19.024  0.00  0.00    +0.210 HD
ENDBRANCH  23   3
BRANCH  24   4
ATOM      4  O   UNL     1      17.713   5.220  18.067  0.00  0.00    -0.389 OA
ATOM     39  H   UNL     1      18.642   4.957  17.946  0.00  0.00    +0.210 HD
ENDBRANCH  24   4
TORSDOF 14
ENDMDL
MODEL 3
REMARK VINA RESULT:      -6.6     31.312     34.336
REMARK  Name = 7134491
REMARK  14 active torsions:
REMARK  status: ('A' for Active; 'I' for Inactive)
REMARK    1  A    between atoms: O_2  and  C_20
REMARK    2  A    between atoms: O_3  and  C_23
REMARK    3  A    between atoms: O_4  and  C_24
REMARK    4  A    between atoms: O_7  and  C_28
REMARK    5  A    between atoms: N_10  and  C_19
REMARK    6  A    between atoms: N_11  and  C_29
REMARK    7  A    between atoms: C_13  and  C_18
REMARK    8  A    between atoms: C_13  and  C_22
REMARK    9  A    between atoms: C_18  and  C_26
REMARK   10  A    between atoms: C_20  and  C_27
REMARK   11  A    between atoms: C_22  and  C_28
REMARK   12  A    between atoms: C_29  and  C_30
REMARK   13  A    between atoms: C_29  and  C_31
REMARK   14  A    between atoms: C_30  and  C_32
REMARK                            x       y       z     vdW  Elec       q    Type
REMARK                         _______ _______ _______ _____ _____    ______ ____
ROOT
ATOM     19  C   UNL     1     -16.592   2.993  26.867  0.00  0.00    +0.107 C 
ATOM     20  C   UNL     1     -17.311   4.093  24.691  0.00  0.00    +0.146 C 
ATOM     21  C   UNL     1     -16.358   4.149  25.887  0.00  0.00    +0.069 C 
ATOM     23  C   UNL     1     -16.546   1.631  26.165  0.00  0.00    +0.163 C 
ATOM     24  C   UNL     1     -17.481   1.576  24.954  0.00  0.00    +0.148 C 
ATOM     25  C   UNL     1     -17.240   2.738  23.989  0.00  0.00    +0.078 C 
ENDROOT
BRANCH  19  10
ATOM      5  O   UNL     1     -17.079   3.561  29.662  0.00  0.00    -0.276 OA
ATOM     10  N   UNL     1     -15.615   3.051  27.932  0.00  0.00    -0.310 N 
ATOM     26  C   UNL     1     -15.947   3.333  29.248  0.00  0.00    +0.214 C 
ATOM     36  H   UNL     1     -14.638   2.944  27.676  0.00  0.00    +0.149 HD
BRANCH  26  18
ATOM     18  C   UNL     1     -14.721   3.323  30.144  0.00  0.00    +0.103 C 
BRANCH  18  13
ATOM     13  C   UNL     1     -14.454   1.949  30.759  0.00  0.00    -0.011 C 
ATOM     14  C   UNL     1     -15.720   1.081  30.778  0.00  0.00    +0.008 C 
ATOM     15  C   UNL     1     -13.515   1.109  29.881  0.00  0.00    +0.008 C 
ATOM     16  C   UNL     1     -15.214  -0.357  30.846  0.00  0.00    +0.001 C 
ATOM     17  C   UNL     1     -13.798  -0.340  30.270  0.00  0.00    +0.001 C 
BRANCH  13  22
ATOM     22  C   UNL     1     -13.880   2.130  32.174  0.00  0.00    +0.127 C 
BRANCH  22  28
ATOM      8  O   UNL     1     -15.727   3.363  33.180  0.00  0.00    -0.251 OA
ATOM     28  C   UNL     1     -14.965   2.408  33.173  0.00  0.00    +0.305 C 
BRANCH  28   7
ATOM      7  O   UNL     1     -14.987   1.418  34.101  0.00  0.00    -0.481 OA
ATOM     41  H   UNL     1     -14.691   1.734  34.981  0.00  0.00    +0.295 HD
ENDBRANCH  28   7
ENDBRANCH  22  28
ENDBRANCH  13  22
ENDBRANCH  18  13
ENDBRANCH  26  18
ENDBRANCH  19  10
BRANCH  20  27
ATOM      6  O   UNL     1     -17.761   6.152  23.568  0.00  0.00    -0.273 OA
ATOM     11  N   UNL     1     -15.822   4.979  23.037  0.00  0.00    -0.301 N 
ATOM     27  C   UNL     1     -17.006   5.195  23.720  0.00  0.00    +0.246 C 
ATOM     40  H   UNL     1     -15.302   4.118  23.182  0.00  0.00    +0.150 HD
BRANCH  11  29
ATOM     29  C   UNL     1     -15.313   5.882  22.029  0.00  0.00    +0.163 C 
BRANCH  29  31
ATOM      9  O   UNL     1     -16.344   4.709  20.166  0.00  0.00    -0.274 OA
ATOM     12  N   UNL     1     -16.921   6.901  20.539  0.00  0.00    -0.328 N 
ATOM     31  C   UNL     1     -16.217   5.747  20.812  0.00  0.00    +0.231 C 
ATOM     42  H   UNL     1     -17.572   6.941  19.762  0.00  0.00    +0.145 HD
ATOM     43  H   UNL     1     -16.809   7.751  21.082  0.00  0.00    +0.145 HD
ENDBRANCH  29  31
BRANCH  29  30
ATOM     30  C   UNL     1     -13.860   5.574  21.652  0.00  0.00    +0.074 C 
BRANCH  30  32
ATOM      1  S   UNL     1     -13.681   8.354  21.662  0.00  0.00    -0.102 S 
ATOM     32  C   UNL     1     -13.111   6.807  21.202  0.00  0.00    -0.008 A 
ATOM     33  C   UNL     1     -11.971   6.884  20.432  0.00  0.00    +0.011 A 
ATOM     34  C   UNL     1     -11.561   8.232  20.216  0.00  0.00    +0.008 A 
ATOM     35  C   UNL     1     -12.402   9.133  20.830  0.00  0.00    +0.045 A 
ENDBRANCH  30  32
ENDBRANCH  29  30
ENDBRANCH  11  29
ENDBRANCH  20  27
BRANCH  20   2
ATOM      2  O   UNL     1     -18.650   4.330  25.110  0.00  0.00    -0.379 OA
ATOM     37  H   UNL     1     -18.633   4.664  26.023  0.00  0.00    +0.211 HD
ENDBRANCH  20   2
BRANCH  23   3
ATOM      3  O   UNL     1     -16.967   0.617  27.083  0.00  0.00    -0.387 OA
ATOM     38  H   UNL     1     -16.984   1.006  27.974  0.00  0.00    +0.210 HD
ENDBRANCH  23   3
BRANCH  24   4
ATOM      4  O   UNL     1     -17.255   0.347  24.263  0.00  0.00    -0.389 OA
ATOM     39  H   UNL     1     -16.867   0.566  23.398  0.00  0.00    +0.210 HD
ENDBRANCH  24   4
TORSDOF 14
ENDMDL
MODEL 4
REMARK VINA RESULT:      -6.3     15.222     19.044
REMARK  Name = 7134491
REMARK  14 active torsions:
REMARK  status: ('A' for Active; 'I' for Inactive)
REMARK    1  A    between atoms: O_2  and  C_20
REMARK    2  A    between atoms: O_3  and  C_23
REMARK    3  A    between atoms: O_4  and  C_24
REMARK    4  A    between atoms: O_7  and  C_28
REMARK    5  A    between atoms: N_10  and  C_19
REMARK    6  A    between atoms: N_11  and  C_29
REMARK    7  A    between atoms: C_13  and  C_18
REMARK    8  A    between atoms: C_13  and  C_22
REMARK    9  A    between atoms: C_18  and  C_26
REMARK   10  A    between atoms: C_20  and  C_27
REMARK   11  A    between atoms: C_22  and  C_28
REMARK   12  A    between atoms: C_29  and  C_30
REMARK   13  A    between atoms: C_29  and  C_31
REMARK   14  A    between atoms: C_30  and  C_32
REMARK                            x       y       z     vdW  Elec       q    Type
REMARK                         _______ _______ _______ _____ _____    ______ ____
ROOT
ATOM     19  C   UNL     1      13.761   8.029   5.845  0.00  0.00    +0.107 C 
ATOM     20  C   UNL     1      14.911   7.401   3.667  0.00  0.00    +0.146 C 
ATOM     21  C   UNL     1      13.616   7.346   4.480  0.00  0.00    +0.069 C 
ATOM     23  C   UNL     1      14.290   9.463   5.712  0.00  0.00    +0.163 C 
ATOM     24  C   UNL     1      15.574   9.527   4.881  0.00  0.00    +0.148 C 
ATOM     25  C   UNL     1      15.415   8.836   3.525  0.00  0.00    +0.078 C 
ENDROOT
BRANCH  19  10
ATOM      5  O   UNL     1      12.820   6.064   7.749  0.00  0.00    -0.276 OA
ATOM     10  N   UNL     1      12.489   8.017   6.535  0.00  0.00    -0.310 N 
ATOM     26  C   UNL     1      12.127   7.027   7.434  0.00  0.00    +0.214 C 
ATOM     36  H   UNL     1      11.817   8.737   6.288  0.00  0.00    +0.149 HD
BRANCH  26  18
ATOM     18  C   UNL     1      10.742   7.274   8.004  0.00  0.00    +0.103 C 
BRANCH  18  13
ATOM     13  C   UNL     1       9.664   6.433   7.317  0.00  0.00    -0.011 C 
ATOM     14  C   UNL     1       8.648   7.312   6.576  0.00  0.00    +0.008 C 
ATOM     15  C   UNL     1      10.247   5.595   6.170  0.00  0.00    +0.008 C 
ATOM     16  C   UNL     1       8.036   6.401   5.515  0.00  0.00    +0.001 C 
ATOM     17  C   UNL     1       9.062   5.298   5.255  0.00  0.00    +0.001 C 
BRANCH  13  22
ATOM     22  C   UNL     1       8.974   5.542   8.364  0.00  0.00    +0.127 C 
BRANCH  22  28
ATOM      8  O   UNL     1      10.251   4.914  10.343  0.00  0.00    -0.251 OA
ATOM     28  C   UNL     1       9.975   4.761   9.162  0.00  0.00    +0.305 C 
BRANCH  28   7
ATOM      7  O   UNL     1      10.553   3.825   8.368  0.00  0.00    -0.481 OA
ATOM     41  H   UNL     1      11.095   3.190   8.883  0.00  0.00    +0.295 HD
ENDBRANCH  28   7
ENDBRANCH  22  28
ENDBRANCH  13  22
ENDBRANCH  18  13
ENDBRANCH  26  18
ENDBRANCH  19  10
BRANCH  20  27
ATOM      6  O   UNL     1      14.950   7.407   1.279  0.00  0.00    -0.273 OA
ATOM     11  N   UNL     1      14.221   5.496   2.389  0.00  0.00    -0.301 N 
ATOM     27  C   UNL     1      14.711   6.788   2.312  0.00  0.00    +0.246 C 
ATOM     40  H   UNL     1      13.986   5.095   3.292  0.00  0.00    +0.150 HD
BRANCH  11  29
ATOM     29  C   UNL     1      13.921   4.693   1.225  0.00  0.00    +0.163 C 
BRANCH  29  31
ATOM      9  O   UNL     1      12.896   2.489   1.255  0.00  0.00    -0.274 OA
ATOM     12  N   UNL     1      11.997   4.137   2.578  0.00  0.00    -0.328 N 
ATOM     31  C   UNL     1      12.897   3.652   1.653  0.00  0.00    +0.231 C 
ATOM     42  H   UNL     1      11.269   3.541   2.958  0.00  0.00    +0.145 HD
ATOM     43  H   UNL     1      12.010   5.099   2.901  0.00  0.00    +0.145 HD
ENDBRANCH  29  31
BRANCH  29  30
ATOM     30  C   UNL     1      15.169   4.010   0.652  0.00  0.00    +0.074 C 
BRANCH  30  32
ATOM      1  S   UNL     1      16.970   4.722  -1.350  0.00  0.00    -0.102 S 
ATOM     32  C   UNL     1      15.391   4.350  -0.803  0.00  0.00    -0.008 A 
ATOM     33  C   UNL     1      14.464   4.411  -1.820  0.00  0.00    +0.011 A 
ATOM     34  C   UNL     1      15.058   4.769  -3.066  0.00  0.00    +0.008 A 
ATOM     35  C   UNL     1      16.417   4.966  -2.952  0.00  0.00    +0.045 A 
ENDBRANCH  30  32
ENDBRANCH  29  30
ENDBRANCH  11  29
ENDBRANCH  20  27
BRANCH  20   2
ATOM      2  O   UNL     1      15.921   6.612   4.284  0.00  0.00    -0.379 OA
ATOM     37  H   UNL     1      16.593   6.393   3.616  0.00  0.00    +0.211 HD
ENDBRANCH  20   2
BRANCH  23   3
ATOM      3  O   UNL     1      14.592   9.972   7.015  0.00  0.00    -0.387 OA
ATOM     38  H   UNL     1      14.624   9.221   7.632  0.00  0.00    +0.210 HD
ENDBRANCH  23   3
BRANCH  24   4
ATOM      4  O   UNL     1      15.903  10.899   4.664  0.00  0.00    -0.389 OA
ATOM     39  H   UNL     1      16.818  10.931   4.334  0.00  0.00    +0.210 HD
ENDBRANCH  24   4
TORSDOF 14
ENDMDL
MODEL 5
REMARK VINA RESULT:      -6.3      2.172      3.121
REMARK  Name = 7134491
REMARK  14 active torsions:
REMARK  status: ('A' for Active; 'I' for Inactive)
REMARK    1  A    between atoms: O_2  and  C_20
REMARK    2  A    between atoms: O_3  and  C_23
REMARK    3  A    between atoms: O_4  and  C_24
REMARK    4  A    between atoms: O_7  and  C_28
REMARK    5  A    between atoms: N_10  and  C_19
REMARK    6  A    between atoms: N_11  and  C_29
REMARK    7  A    between atoms: C_13  and  C_18
REMARK    8  A    between atoms: C_13  and  C_22
REMARK    9  A    between atoms: C_18  and  C_26
REMARK   10  A    between atoms: C_20  and  C_27
REMARK   11  A    between atoms: C_22  and  C_28
REMARK   12  A    between atoms: C_29  and  C_30
REMARK   13  A    between atoms: C_29  and  C_31
REMARK   14  A    between atoms: C_30  and  C_32
REMARK                            x       y       z     vdW  Elec       q    Type
REMARK                         _______ _______ _______ _____ _____    ______ ____
ROOT
ATOM     19  C   UNL     1      18.537   6.754  21.417  0.00  0.00    +0.107 C 
ATOM     20  C   UNL     1      16.078   6.989  20.819  0.00  0.00    +0.146 C 
ATOM     21  C   UNL     1      17.302   7.663  21.443  0.00  0.00    +0.069 C 
ATOM     23  C   UNL     1      18.832   6.231  20.006  0.00  0.00    +0.163 C 
ATOM     24  C   UNL     1      17.604   5.576  19.368  0.00  0.00    +0.148 C 
ATOM     25  C   UNL     1      16.379   6.491  19.406  0.00  0.00    +0.078 C 
ENDROOT
BRANCH  19  10
ATOM      5  O   UNL     1      20.703   5.670  23.000  0.00  0.00    -0.276 OA
ATOM     10  N   UNL     1      19.679   7.469  21.945  0.00  0.00    -0.310 N 
ATOM     26  C   UNL     1      20.671   6.859  22.697  0.00  0.00    +0.214 C 
ATOM     36  H   UNL     1      19.707   8.474  21.805  0.00  0.00    +0.149 HD
BRANCH  26  18
ATOM     18  C   UNL     1      21.743   7.850  23.111  0.00  0.00    +0.103 C 
BRANCH  18  13
ATOM     13  C   UNL     1      21.676   8.202  24.598  0.00  0.00    -0.011 C 
ATOM     14  C   UNL     1      20.424   7.614  25.262  0.00  0.00    +0.008 C 
ATOM     15  C   UNL     1      22.799   7.519  25.391  0.00  0.00    +0.008 C 
ATOM     16  C   UNL     1      20.767   7.526  26.747  0.00  0.00    +0.001 C 
ATOM     17  C   UNL     1      22.293   7.466  26.830  0.00  0.00    +0.001 C 
BRANCH  13  22
ATOM     22  C   UNL     1      21.729   9.731  24.760  0.00  0.00    +0.127 C 
BRANCH  22  28
ATOM      8  O   UNL     1      21.220  10.905  22.685  0.00  0.00    -0.251 OA
ATOM     28  C   UNL     1      20.861  10.417  23.746  0.00  0.00    +0.305 C 
BRANCH  28   7
ATOM      7  O   UNL     1      19.576  10.424  24.183  0.00  0.00    -0.481 OA
ATOM     41  H   UNL     1      19.520  10.544  25.155  0.00  0.00    +0.295 HD
ENDBRANCH  28   7
ENDBRANCH  22  28
ENDBRANCH  13  22
ENDBRANCH  18  13
ENDBRANCH  26  18
ENDBRANCH  19  10
BRANCH  20  27
ATOM      6  O   UNL     1      15.014   9.100  21.163  0.00  0.00    -0.273 OA
ATOM     11  N   UNL     1      13.753   7.322  20.348  0.00  0.00    -0.301 N 
ATOM     27  C   UNL     1      14.910   7.932  20.796  0.00  0.00    +0.246 C 
ATOM     40  H   UNL     1      13.752   6.329  20.135  0.00  0.00    +0.150 HD
BRANCH  11  29
ATOM     29  C   UNL     1      12.483   8.007  20.252  0.00  0.00    +0.163 C 
BRANCH  29  31
ATOM      9  O   UNL     1      11.725   6.084  21.532  0.00  0.00    -0.274 OA
ATOM     12  N   UNL     1      10.216   7.747  21.050  0.00  0.00    -0.328 N 
ATOM     31  C   UNL     1      11.462   7.158  20.996  0.00  0.00    +0.231 C 
ATOM     42  H   UNL     1       9.446   7.293  21.530  0.00  0.00    +0.145 HD
ATOM     43  H   UNL     1      10.012   8.637  20.606  0.00  0.00    +0.145 HD
ENDBRANCH  29  31
BRANCH  29  30
ATOM     30  C   UNL     1      12.044   8.219  18.799  0.00  0.00    +0.074 C 
BRANCH  30  32
ATOM      1  S   UNL     1      13.765   8.677  16.657  0.00  0.00    -0.102 S 
ATOM     32  C   UNL     1      12.939   9.190  18.066  0.00  0.00    -0.008 A 
ATOM     33  C   UNL     1      13.211  10.506  18.373  0.00  0.00    +0.011 A 
ATOM     34  C   UNL     1      14.110  11.099  17.440  0.00  0.00    +0.008 A 
ATOM     35  C   UNL     1      14.489  10.215  16.454  0.00  0.00    +0.045 A 
ENDBRANCH  30  32
ENDBRANCH  29  30
ENDBRANCH  11  29
ENDBRANCH  20  27
BRANCH  20   2
ATOM      2  O   UNL     1      15.651   5.893  21.618  0.00  0.00    -0.379 OA
ATOM     37  H   UNL     1      15.999   6.014  22.518  0.00  0.00    +0.211 HD
ENDBRANCH  20   2
BRANCH  23   3
ATOM      3  O   UNL     1      19.861   5.240  20.081  0.00  0.00    -0.387 OA
ATOM     38  H   UNL     1      19.882   4.763  19.233  0.00  0.00    +0.210 HD
ENDBRANCH  23   3
BRANCH  24   4
ATOM      4  O   UNL     1      17.910   5.271  18.007  0.00  0.00    -0.389 OA
ATOM     39  H   UNL     1      18.842   4.994  17.972  0.00  0.00    +0.210 HD
ENDBRANCH  24   4
TORSDOF 14
ENDMDL
MODEL 6
REMARK VINA RESULT:      -6.2      1.959      2.642
REMARK  Name = 7134491
REMARK  14 active torsions:
REMARK  status: ('A' for Active; 'I' for Inactive)
REMARK    1  A    between atoms: O_2  and  C_20
REMARK    2  A    between atoms: O_3  and  C_23
REMARK    3  A    between atoms: O_4  and  C_24
REMARK    4  A    between atoms: O_7  and  C_28
REMARK    5  A    between atoms: N_10  and  C_19
REMARK    6  A    between atoms: N_11  and  C_29
REMARK    7  A    between atoms: C_13  and  C_18
REMARK    8  A    between atoms: C_13  and  C_22
REMARK    9  A    between atoms: C_18  and  C_26
REMARK   10  A    between atoms: C_20  and  C_27
REMARK   11  A    between atoms: C_22  and  C_28
REMARK   12  A    between atoms: C_29  and  C_30
REMARK   13  A    between atoms: C_29  and  C_31
REMARK   14  A    between atoms: C_30  and  C_32
REMARK                            x       y       z     vdW  Elec       q    Type
REMARK                         _______ _______ _______ _____ _____    ______ ____
ROOT
ATOM     19  C   UNL     1      18.301   6.633  21.107  0.00  0.00    +0.107 C 
ATOM     20  C   UNL     1      15.780   6.944  21.216  0.00  0.00    +0.146 C 
ATOM     21  C   UNL     1      17.149   7.561  21.510  0.00  0.00    +0.069 C 
ATOM     23  C   UNL     1      18.182   6.178  19.647  0.00  0.00    +0.163 C 
ATOM     24  C   UNL     1      16.807   5.579  19.341  0.00  0.00    +0.148 C 
ATOM     25  C   UNL     1      15.669   6.515  19.754  0.00  0.00    +0.078 C 
ENDROOT
BRANCH  19  10
ATOM      5  O   UNL     1      20.046   6.343  23.396  0.00  0.00    -0.276 OA
ATOM     10  N   UNL     1      19.566   7.297  21.333  0.00  0.00    -0.310 N 
ATOM     26  C   UNL     1      20.334   7.093  22.468  0.00  0.00    +0.214 C 
ATOM     36  H   UNL     1      19.857   7.991  20.651  0.00  0.00    +0.149 HD
BRANCH  26  18
ATOM     18  C   UNL     1      21.608   7.918  22.431  0.00  0.00    +0.103 C 
BRANCH  18  13
ATOM     13  C   UNL     1      22.844   7.078  22.103  0.00  0.00    -0.011 C 
ATOM     14  C   UNL     1      24.141   7.841  22.403  0.00  0.00    +0.008 C 
ATOM     15  C   UNL     1      22.970   5.869  23.040  0.00  0.00    +0.008 C 
ATOM     16  C   UNL     1      25.201   6.759  22.596  0.00  0.00    +0.001 C 
ATOM     17  C   UNL     1      24.449   5.492  23.004  0.00  0.00    +0.001 C 
BRANCH  13  22
ATOM     22  C   UNL     1      22.781   6.639  20.630  0.00  0.00    +0.127 C 
BRANCH  22  28
ATOM      8  O   UNL     1      21.419   4.628  20.838  0.00  0.00    -0.251 OA
ATOM     28  C   UNL     1      22.459   5.179  20.509  0.00  0.00    +0.305 C 
BRANCH  28   7
ATOM      7  O   UNL     1      23.517   4.528  19.963  0.00  0.00    -0.481 OA
ATOM     41  H   UNL     1      24.339   4.665  20.481  0.00  0.00    +0.295 HD
ENDBRANCH  28   7
ENDBRANCH  22  28
ENDBRANCH  13  22
ENDBRANCH  18  13
ENDBRANCH  26  18
ENDBRANCH  19  10
BRANCH  20  27
ATOM      6  O   UNL     1      14.919   9.057  21.920  0.00  0.00    -0.273 OA
ATOM     11  N   UNL     1      13.427   7.339  21.431  0.00  0.00    -0.301 N 
ATOM     27  C   UNL     1      14.682   7.908  21.556  0.00  0.00    +0.246 C 
ATOM     40  H   UNL     1      13.337   6.356  21.192  0.00  0.00    +0.150 HD
BRANCH  11  29
ATOM     29  C   UNL     1      12.203   8.051  21.721  0.00  0.00    +0.163 C 
BRANCH  29  31
ATOM      9  O   UNL     1      11.209   5.899  21.181  0.00  0.00    -0.274 OA
ATOM     12  N   UNL     1       9.848   7.568  21.980  0.00  0.00    -0.328 N 
ATOM     31  C   UNL     1      11.062   7.054  21.574  0.00  0.00    +0.231 C 
ATOM     42  H   UNL     1       9.007   7.001  21.948  0.00  0.00    +0.145 HD
ATOM     43  H   UNL     1       9.740   8.523  22.306  0.00  0.00    +0.145 HD
ENDBRANCH  29  31
BRANCH  29  30
ATOM     30  C   UNL     1      11.989   9.247  20.787  0.00  0.00    +0.074 C 
BRANCH  30  32
ATOM      1  S   UNL     1      11.332  10.460  23.207  0.00  0.00    -0.102 S 
ATOM     32  C   UNL     1      11.739  10.529  21.546  0.00  0.00    -0.008 A 
ATOM     33  C   UNL     1      11.791  11.825  21.080  0.00  0.00    +0.011 A 
ATOM     34  C   UNL     1      11.491  12.774  22.101  0.00  0.00    +0.008 A 
ATOM     35  C   UNL     1      11.223  12.166  23.308  0.00  0.00    +0.045 A 
ENDBRANCH  30  32
ENDBRANCH  29  30
ENDBRANCH  11  29
ENDBRANCH  20  27
BRANCH  20   2
ATOM      2  O   UNL     1      15.553   5.816  22.051  0.00  0.00    -0.379 OA
ATOM     37  H   UNL     1      14.625   5.542  21.955  0.00  0.00    +0.211 HD
ENDBRANCH  20   2
BRANCH  23   3
ATOM      3  O   UNL     1      19.161   5.165  19.392  0.00  0.00    -0.387 OA
ATOM     38  H   UNL     1      19.104   4.920  18.452  0.00  0.00    +0.210 HD
ENDBRANCH  23   3
BRANCH  24   4
ATOM      4  O   UNL     1      16.720   5.340  17.936  0.00  0.00    -0.389 OA
ATOM     39  H   UNL     1      16.758   6.204  17.490  0.00  0.00    +0.210 HD
ENDBRANCH  24   4
TORSDOF 14
ENDMDL
MODEL 7
REMARK VINA RESULT:      -6.2     28.972     31.137
REMARK  Name = 7134491
REMARK  14 active torsions:
REMARK  status: ('A' for Active; 'I' for Inactive)
REMARK    1  A    between atoms: O_2  and  C_20
REMARK    2  A    between atoms: O_3  and  C_23
REMARK    3  A    between atoms: O_4  and  C_24
REMARK    4  A    between atoms: O_7  and  C_28
REMARK    5  A    between atoms: N_10  and  C_19
REMARK    6  A    between atoms: N_11  and  C_29
REMARK    7  A    between atoms: C_13  and  C_18
REMARK    8  A    between atoms: C_13  and  C_22
REMARK    9  A    between atoms: C_18  and  C_26
REMARK   10  A    between atoms: C_20  and  C_27
REMARK   11  A    between atoms: C_22  and  C_28
REMARK   12  A    between atoms: C_29  and  C_30
REMARK   13  A    between atoms: C_29  and  C_31
REMARK   14  A    between atoms: C_30  and  C_32
REMARK                            x       y       z     vdW  Elec       q    Type
REMARK                         _______ _______ _______ _____ _____    ______ ____
ROOT
ATOM     19  C   UNL     1      -4.032 -12.261  15.189  0.00  0.00    +0.107 C 
ATOM     20  C   UNL     1      -5.657 -11.377  16.934  0.00  0.00    +0.146 C 
ATOM     21  C   UNL     1      -5.168 -11.274  15.488  0.00  0.00    +0.069 C 
ATOM     23  C   UNL     1      -4.415 -13.699  15.561  0.00  0.00    +0.163 C 
ATOM     24  C   UNL     1      -4.926 -13.805  17.000  0.00  0.00    +0.148 C 
ATOM     25  C   UNL     1      -6.053 -12.810  17.284  0.00  0.00    +0.078 C 
ENDROOT
BRANCH  19  10
ATOM      5  O   UNL     1      -2.293 -10.308  13.952  0.00  0.00    -0.276 OA
ATOM     10  N   UNL     1      -3.666 -12.175  13.792  0.00  0.00    -0.310 N 
ATOM     26  C   UNL     1      -2.821 -11.197  13.292  0.00  0.00    +0.214 C 
ATOM     36  H   UNL     1      -4.108 -12.828  13.153  0.00  0.00    +0.149 HD
BRANCH  26  18
ATOM     18  C   UNL     1      -2.612 -11.356  11.797  0.00  0.00    +0.103 C 
BRANCH  18  13
ATOM     13  C   UNL     1      -3.680 -10.634  10.974  0.00  0.00    -0.011 C 
ATOM     14  C   UNL     1      -4.815 -10.103  11.861  0.00  0.00    +0.008 C 
ATOM     15  C   UNL     1      -3.136  -9.337  10.356  0.00  0.00    +0.008 C 
ATOM     16  C   UNL     1      -5.446  -8.967  11.059  0.00  0.00    +0.001 C 
ATOM     17  C   UNL     1      -4.369  -8.476  10.092  0.00  0.00    +0.001 C 
BRANCH  13  22
ATOM     22  C   UNL     1      -4.216 -11.585   9.891  0.00  0.00    +0.127 C 
BRANCH  22  28
ATOM      8  O   UNL     1      -5.157 -13.320  11.322  0.00  0.00    -0.251 OA
ATOM     28  C   UNL     1      -4.400 -12.974  10.427  0.00  0.00    +0.305 C 
BRANCH  28   7
ATOM      7  O   UNL     1      -3.583 -13.827   9.759  0.00  0.00    -0.481 OA
ATOM     41  H   UNL     1      -2.899 -14.215  10.346  0.00  0.00    +0.295 HD
ENDBRANCH  28   7
ENDBRANCH  22  28
ENDBRANCH  13  22
ENDBRANCH  18  13
ENDBRANCH  26  18
ENDBRANCH  19  10
BRANCH  20  27
ATOM      6  O   UNL     1      -6.840  -9.317  16.693  0.00  0.00    -0.273 OA
ATOM     11  N   UNL     1      -7.784 -11.016  17.974  0.00  0.00    -0.301 N 
ATOM     27  C   UNL     1      -6.813 -10.449  17.168  0.00  0.00    +0.246 C 
ATOM     40  H   UNL     1      -7.636 -11.936  18.378  0.00  0.00    +0.150 HD
BRANCH  11  29
ATOM     29  C   UNL     1      -8.989 -10.321  18.368  0.00  0.00    +0.163 C 
BRANCH  29  31
ATOM      9  O   UNL     1      -8.989 -11.961  20.163  0.00  0.00    -0.274 OA
ATOM     12  N   UNL     1     -10.336 -10.112  20.364  0.00  0.00    -0.328 N 
ATOM     31  C   UNL     1      -9.428 -10.910  19.701  0.00  0.00    +0.231 C 
ATOM     42  H   UNL     1     -10.699 -10.382  21.273  0.00  0.00    +0.145 HD
ATOM     43  H   UNL     1     -10.690  -9.245  19.974  0.00  0.00    +0.145 HD
ENDBRANCH  29  31
BRANCH  29  30
ATOM     30  C   UNL     1     -10.108 -10.460  17.329  0.00  0.00    +0.074 C 
BRANCH  30  32
ATOM      1  S   UNL     1     -12.071  -9.063  15.932  0.00  0.00    -0.102 S 
ATOM     32  C   UNL     1     -10.656  -9.122  16.894  0.00  0.00    -0.008 A 
ATOM     33  C   UNL     1     -10.165  -7.864  17.168  0.00  0.00    +0.011 A 
ATOM     34  C   UNL     1     -10.960  -6.838  16.579  0.00  0.00    +0.008 A 
ATOM     35  C   UNL     1     -12.030  -7.352  15.878  0.00  0.00    +0.045 A 
ENDBRANCH  30  32
ENDBRANCH  29  30
ENDBRANCH  11  29
ENDBRANCH  20  27
BRANCH  20   2
ATOM      2  O   UNL     1      -4.645 -10.941  17.834  0.00  0.00    -0.379 OA
ATOM     37  H   UNL     1      -4.454 -10.005  17.653  0.00  0.00    +0.211 HD
ENDBRANCH  20   2
BRANCH  23   3
ATOM      3  O   UNL     1      -3.257 -14.533  15.451  0.00  0.00    -0.387 OA
ATOM     38  H   UNL     1      -3.181 -15.054  16.269  0.00  0.00    +0.210 HD
ENDBRANCH  23   3
BRANCH  24   4
ATOM      4  O   UNL     1      -5.415 -15.129  17.210  0.00  0.00    -0.389 OA
ATOM     39  H   UNL     1      -4.866 -15.731  16.679  0.00  0.00    +0.210 HD
ENDBRANCH  24   4
TORSDOF 14
ENDMDL
MODEL 8
REMARK VINA RESULT:      -6.1     15.503     18.442
REMARK  Name = 7134491
REMARK  14 active torsions:
REMARK  status: ('A' for Active; 'I' for Inactive)
REMARK    1  A    between atoms: O_2  and  C_20
REMARK    2  A    between atoms: O_3  and  C_23
REMARK    3  A    between atoms: O_4  and  C_24
REMARK    4  A    between atoms: O_7  and  C_28
REMARK    5  A    between atoms: N_10  and  C_19
REMARK    6  A    between atoms: N_11  and  C_29
REMARK    7  A    between atoms: C_13  and  C_18
REMARK    8  A    between atoms: C_13  and  C_22
REMARK    9  A    between atoms: C_18  and  C_26
REMARK   10  A    between atoms: C_20  and  C_27
REMARK   11  A    between atoms: C_22  and  C_28
REMARK   12  A    between atoms: C_29  and  C_30
REMARK   13  A    between atoms: C_29  and  C_31
REMARK   14  A    between atoms: C_30  and  C_32
REMARK                            x       y       z     vdW  Elec       q    Type
REMARK                         _______ _______ _______ _____ _____    ______ ____
ROOT
ATOM     19  C   UNL     1      13.814   8.456   4.003  0.00  0.00    +0.107 C 
ATOM     20  C   UNL     1      12.378   9.218   5.957  0.00  0.00    +0.146 C 
ATOM     21  C   UNL     1      12.655   8.106   4.943  0.00  0.00    +0.069 C 
ATOM     23  C   UNL     1      15.078   8.849   4.778  0.00  0.00    +0.163 C 
ATOM     24  C   UNL     1      14.802   9.947   5.809  0.00  0.00    +0.148 C 
ATOM     25  C   UNL     1      13.640   9.585   6.736  0.00  0.00    +0.078 C 
ENDROOT
BRANCH  19  10
ATOM      5  O   UNL     1      12.617   7.937   1.421  0.00  0.00    -0.276 OA
ATOM     10  N   UNL     1      14.082   7.340   3.122  0.00  0.00    -0.310 N 
ATOM     26  C   UNL     1      13.454   7.177   1.898  0.00  0.00    +0.214 C 
ATOM     36  H   UNL     1      14.712   6.620   3.460  0.00  0.00    +0.149 HD
BRANCH  26  18
ATOM     18  C   UNL     1      13.934   5.922   1.191  0.00  0.00    +0.103 C 
BRANCH  18  13
ATOM     13  C   UNL     1      12.885   4.810   1.190  0.00  0.00    -0.011 C 
ATOM     14  C   UNL     1      12.032   4.835   2.466  0.00  0.00    +0.008 C 
ATOM     15  C   UNL     1      11.824   5.035   0.102  0.00  0.00    +0.008 C 
ATOM     16  C   UNL     1      10.735   4.123   2.090  0.00  0.00    +0.001 C 
ATOM     17  C   UNL     1      10.602   4.250   0.572  0.00  0.00    +0.001 C 
BRANCH  13  22
ATOM     22  C   UNL     1      13.585   3.452   1.013  0.00  0.00    +0.127 C 
BRANCH  22  28
ATOM      8  O   UNL     1      15.873   3.950   0.334  0.00  0.00    -0.251 OA
ATOM     28  C   UNL     1      15.071   3.578   1.178  0.00  0.00    +0.305 C 
BRANCH  28   7
ATOM      7  O   UNL     1      15.417   3.211   2.438  0.00  0.00    -0.481 OA
ATOM     41  H   UNL     1      15.421   2.237   2.548  0.00  0.00    +0.295 HD
ENDBRANCH  28   7
ENDBRANCH  22  28
ENDBRANCH  13  22
ENDBRANCH  18  13
ENDBRANCH  26  18
ENDBRANCH  19  10
BRANCH  20  27
ATOM      6  O   UNL     1      10.950   9.521   7.847  0.00  0.00    -0.273 OA
ATOM     11  N   UNL     1      10.758   7.571   6.591  0.00  0.00    -0.301 N 
ATOM     27  C   UNL     1      11.287   8.810   6.904  0.00  0.00    +0.246 C 
ATOM     40  H   UNL     1      11.155   7.027   5.831  0.00  0.00    +0.150 HD
BRANCH  11  29
ATOM     29  C   UNL     1       9.710   6.941   7.362  0.00  0.00    +0.163 C 
BRANCH  29  31
ATOM      9  O   UNL     1      10.709   5.454   9.005  0.00  0.00    -0.274 OA
ATOM     12  N   UNL     1      10.167   4.605   6.941  0.00  0.00    -0.328 N 
ATOM     31  C   UNL     1      10.264   5.618   7.872  0.00  0.00    +0.231 C 
ATOM     42  H   UNL     1      10.487   3.667   7.159  0.00  0.00    +0.145 HD
ATOM     43  H   UNL     1       9.794   4.753   6.009  0.00  0.00    +0.145 HD
ENDBRANCH  29  31
BRANCH  29  30
ATOM     30  C   UNL     1       8.441   6.705   6.535  0.00  0.00    +0.074 C 
BRANCH  30  32
ATOM      1  S   UNL     1       7.918   8.815   4.794  0.00  0.00    -0.102 S 
ATOM     32  C   UNL     1       8.555   7.264   5.137  0.00  0.00    -0.008 A 
ATOM     33  C   UNL     1       9.129   6.684   4.026  0.00  0.00    +0.011 A 
ATOM     34  C   UNL     1       9.042   7.525   2.878  0.00  0.00    +0.008 A 
ATOM     35  C   UNL     1       8.407   8.715   3.156  0.00  0.00    +0.045 A 
ENDBRANCH  30  32
ENDBRANCH  29  30
ENDBRANCH  11  29
ENDBRANCH  20  27
BRANCH  20   2
ATOM      2  O   UNL     1      11.882  10.378   5.300  0.00  0.00    -0.379 OA
ATOM     37  H   UNL     1      12.633  10.856   4.909  0.00  0.00    +0.211 HD
ENDBRANCH  20   2
BRANCH  23   3
ATOM      3  O   UNL     1      16.051   9.355   3.858  0.00  0.00    -0.387 OA
ATOM     38  H   UNL     1      15.604   9.976   3.257  0.00  0.00    +0.210 HD
ENDBRANCH  23   3
BRANCH  24   4
ATOM      4  O   UNL     1      15.979  10.133   6.596  0.00  0.00    -0.389 OA
ATOM     39  H   UNL     1      16.419  10.940   6.277  0.00  0.00    +0.210 HD
ENDBRANCH  24   4
TORSDOF 14
ENDMDL
MODEL 9
REMARK VINA RESULT:      -6.0     27.680     30.978
REMARK  Name = 7134491
REMARK  14 active torsions:
REMARK  status: ('A' for Active; 'I' for Inactive)
REMARK    1  A    between atoms: O_2  and  C_20
REMARK    2  A    between atoms: O_3  and  C_23
REMARK    3  A    between atoms: O_4  and  C_24
REMARK    4  A    between atoms: O_7  and  C_28
REMARK    5  A    between atoms: N_10  and  C_19
REMARK    6  A    between atoms: N_11  and  C_29
REMARK    7  A    between atoms: C_13  and  C_18
REMARK    8  A    between atoms: C_13  and  C_22
REMARK    9  A    between atoms: C_18  and  C_26
REMARK   10  A    between atoms: C_20  and  C_27
REMARK   11  A    between atoms: C_22  and  C_28
REMARK   12  A    between atoms: C_29  and  C_30
REMARK   13  A    between atoms: C_29  and  C_31
REMARK   14  A    between atoms: C_30  and  C_32
REMARK                            x       y       z     vdW  Elec       q    Type
REMARK                         _______ _______ _______ _____ _____    ______ ____
ROOT
ATOM     19  C   UNL     1      -3.960 -11.821  14.519  0.00  0.00    +0.107 C 
ATOM     20  C   UNL     1      -2.739 -11.085  12.414  0.00  0.00    +0.146 C 
ATOM     21  C   UNL     1      -4.097 -11.361  13.062  0.00  0.00    +0.069 C 
ATOM     23  C   UNL     1      -3.120 -10.842  15.349  0.00  0.00    +0.163 C 
ATOM     24  C   UNL     1      -1.768 -10.545  14.694  0.00  0.00    +0.148 C 
ATOM     25  C   UNL     1      -1.922 -10.094  13.240  0.00  0.00    +0.078 C 
ENDROOT
BRANCH  19  10
ATOM      5  O   UNL     1      -4.789 -13.849  16.408  0.00  0.00    -0.276 OA
ATOM     10  N   UNL     1      -5.273 -11.989  15.104  0.00  0.00    -0.310 N 
ATOM     26  C   UNL     1      -5.575 -12.997  16.005  0.00  0.00    +0.214 C 
ATOM     36  H   UNL     1      -6.011 -11.373  14.778  0.00  0.00    +0.149 HD
BRANCH  26  18
ATOM     18  C   UNL     1      -7.023 -12.927  16.452  0.00  0.00    +0.103 C 
BRANCH  18  13
ATOM     13  C   UNL     1      -7.214 -12.050  17.691  0.00  0.00    -0.011 C 
ATOM     14  C   UNL     1      -7.441 -12.895  18.952  0.00  0.00    +0.008 C 
ATOM     15  C   UNL     1      -5.928 -11.293  18.051  0.00  0.00    +0.008 C 
ATOM     16  C   UNL     1      -7.037 -11.990  20.113  0.00  0.00    +0.001 C 
ATOM     17  C   UNL     1      -6.066 -10.960  19.535  0.00  0.00    +0.001 C 
BRANCH  13  22
ATOM     22  C   UNL     1      -8.384 -11.081  17.450  0.00  0.00    +0.127 C 
BRANCH  22  28
ATOM      8  O   UNL     1      -7.433  -9.751  15.642  0.00  0.00    -0.251 OA
ATOM     28  C   UNL     1      -7.925  -9.832  16.757  0.00  0.00    +0.305 C 
BRANCH  28   7
ATOM      7  O   UNL     1      -8.138  -8.763  17.566  0.00  0.00    -0.481 OA
ATOM     41  H   UNL     1      -9.074  -8.471  17.548  0.00  0.00    +0.295 HD
ENDBRANCH  28   7
ENDBRANCH  22  28
ENDBRANCH  13  22
ENDBRANCH  18  13
ENDBRANCH  26  18
ENDBRANCH  19  10
BRANCH  20  27
ATOM      6  O   UNL     1      -2.268  -9.618  10.590  0.00  0.00    -0.273 OA
ATOM     11  N   UNL     1      -3.882 -11.273  10.317  0.00  0.00    -0.301 N 
ATOM     27  C   UNL     1      -2.916 -10.570  11.016  0.00  0.00    +0.246 C 
ATOM     40  H   UNL     1      -4.415 -12.001  10.782  0.00  0.00    +0.150 HD
BRANCH  11  29
ATOM     29  C   UNL     1      -4.258 -10.960   8.956  0.00  0.00    +0.163 C 
BRANCH  29  31
ATOM      9  O   UNL     1      -6.322  -9.756   9.400  0.00  0.00    -0.274 OA
ATOM     12  N   UNL     1      -4.506  -8.578   8.630  0.00  0.00    -0.328 N 
ATOM     31  C   UNL     1      -5.156  -9.733   9.012  0.00  0.00    +0.231 C 
ATOM     42  H   UNL     1      -4.988  -7.685   8.636  0.00  0.00    +0.145 HD
ATOM     43  H   UNL     1      -3.542  -8.572   8.315  0.00  0.00    +0.145 HD
ENDBRANCH  29  31
BRANCH  29  30
ATOM     30  C   UNL     1      -4.985 -12.123   8.272  0.00  0.00    +0.074 C 
BRANCH  30  32
ATOM      1  S   UNL     1      -3.572 -13.678   6.443  0.00  0.00    -0.102 S 
ATOM     32  C   UNL     1      -4.535 -12.320   6.844  0.00  0.00    -0.008 A 
ATOM     33  C   UNL     1      -4.794 -11.529   5.746  0.00  0.00    +0.011 A 
ATOM     34  C   UNL     1      -4.192 -12.044   4.560  0.00  0.00    +0.008 A 
ATOM     35  C   UNL     1      -3.498 -13.210   4.797  0.00  0.00    +0.045 A 
ENDBRANCH  30  32
ENDBRANCH  29  30
ENDBRANCH  11  29
ENDBRANCH  20  27
BRANCH  20   2
ATOM      2  O   UNL     1      -2.001 -12.293  12.272  0.00  0.00    -0.379 OA
ATOM     37  H   UNL     1      -1.405 -12.382  13.035  0.00  0.00    +0.211 HD
ENDBRANCH  20   2
BRANCH  23   3
ATOM      3  O   UNL     1      -2.861 -11.420  16.632  0.00  0.00    -0.387 OA
ATOM     38  H   UNL     1      -2.105 -12.027  16.542  0.00  0.00    +0.210 HD
ENDBRANCH  23   3
BRANCH  24   4
ATOM      4  O   UNL     1      -1.126  -9.507  15.434  0.00  0.00    -0.389 OA
ATOM     39  H   UNL     1      -0.804  -9.897  16.265  0.00  0.00    +0.210 HD
ENDBRANCH  24   4
TORSDOF 14
ENDMDL
MODEL 10
REMARK VINA RESULT:      -6.0     32.534     34.939
REMARK  Name = 7134491
REMARK  14 active torsions:
REMARK  status: ('A' for Active; 'I' for Inactive)
REMARK    1  A    between atoms: O_2  and  C_20
REMARK    2  A    between atoms: O_3  and  C_23
REMARK    3  A    between atoms: O_4  and  C_24
REMARK    4  A    between atoms: O_7  and  C_28
REMARK    5  A    between atoms: N_10  and  C_19
REMARK    6  A    between atoms: N_11  and  C_29
REMARK    7  A    between atoms: C_13  and  C_18
REMARK    8  A    between atoms: C_13  and  C_22
REMARK    9  A    between atoms: C_18  and  C_26
REMARK   10  A    between atoms: C_20  and  C_27
REMARK   11  A    between atoms: C_22  and  C_28
REMARK   12  A    between atoms: C_29  and  C_30
REMARK   13  A    between atoms: C_29  and  C_31
REMARK   14  A    between atoms: C_30  and  C_32
REMARK                            x       y       z     vdW  Elec       q    Type
REMARK                         _______ _______ _______ _____ _____    ______ ____
ROOT
ATOM     19  C   UNL     1     -15.432   2.689  28.241  0.00  0.00    +0.107 C 
ATOM     20  C   UNL     1     -14.173   2.597  30.448  0.00  0.00    +0.146 C 
ATOM     21  C   UNL     1     -14.944   3.478  29.462  0.00  0.00    +0.069 C 
ATOM     23  C   UNL     1     -16.237   1.448  28.648  0.00  0.00    +0.163 C 
ATOM     24  C   UNL     1     -15.480   0.574  29.651  0.00  0.00    +0.148 C 
ATOM     25  C   UNL     1     -14.995   1.376  30.860  0.00  0.00    +0.078 C 
ENDROOT
BRANCH  19  10
ATOM      5  O   UNL     1     -15.758   2.486  25.373  0.00  0.00    -0.276 OA
ATOM     10  N   UNL     1     -16.220   3.550  27.386  0.00  0.00    -0.310 N 
ATOM     26  C   UNL     1     -16.314   3.372  26.015  0.00  0.00    +0.214 C 
ATOM     36  H   UNL     1     -16.664   4.356  27.817  0.00  0.00    +0.149 HD
BRANCH  26  18
ATOM     18  C   UNL     1     -17.210   4.420  25.380  0.00  0.00    +0.103 C 
BRANCH  18  13
ATOM     13  C   UNL     1     -16.624   4.988  24.086  0.00  0.00    -0.011 C 
ATOM     14  C   UNL     1     -16.578   6.522  24.112  0.00  0.00    +0.008 C 
ATOM     15  C   UNL     1     -15.137   4.635  23.936  0.00  0.00    +0.008 C 
ATOM     16  C   UNL     1     -15.498   6.903  23.103  0.00  0.00    +0.001 C 
ATOM     17  C   UNL     1     -14.573   5.691  22.989  0.00  0.00    +0.001 C 
BRANCH  13  22
ATOM     22  C   UNL     1     -17.443   4.473  22.890  0.00  0.00    +0.127 C 
BRANCH  22  28
ATOM      8  O   UNL     1     -18.846   2.577  23.505  0.00  0.00    -0.251 OA
ATOM     28  C   UNL     1     -17.802   3.026  23.057  0.00  0.00    +0.305 C 
BRANCH  28   7
ATOM      7  O   UNL     1     -16.773   2.254  22.625  0.00  0.00    -0.481 OA
ATOM     41  H   UNL     1     -16.230   2.712  21.948  0.00  0.00    +0.295 HD
ENDBRANCH  28   7
ENDBRANCH  22  28
ENDBRANCH  13  22
ENDBRANCH  18  13
ENDBRANCH  26  18
ENDBRANCH  19  10
BRANCH  20  27
ATOM      6  O   UNL     1     -12.855   3.028  32.391  0.00  0.00    -0.273 OA
ATOM     11  N   UNL     1     -14.568   4.504  31.843  0.00  0.00    -0.301 N 
ATOM     27  C   UNL     1     -13.775   3.385  31.661  0.00  0.00    +0.246 C 
ATOM     40  H   UNL     1     -15.353   4.676  31.222  0.00  0.00    +0.150 HD
BRANCH  11  29
ATOM     29  C   UNL     1     -14.405   5.418  32.950  0.00  0.00    +0.163 C 
BRANCH  29  31
ATOM      9  O   UNL     1     -16.678   5.086  33.743  0.00  0.00    -0.274 OA
ATOM     12  N   UNL     1     -14.941   4.683  35.190  0.00  0.00    -0.328 N 
ATOM     31  C   UNL     1     -15.472   5.070  33.978  0.00  0.00    +0.231 C 
ATOM     42  H   UNL     1     -15.544   4.410  35.959  0.00  0.00    +0.145 HD
ATOM     43  H   UNL     1     -13.942   4.671  35.370  0.00  0.00    +0.145 HD
ENDBRANCH  29  31
BRANCH  29  30
ATOM     30  C   UNL     1     -14.536   6.884  32.520  0.00  0.00    +0.074 C 
BRANCH  30  32
ATOM      1  S   UNL     1     -12.381   8.618  32.192  0.00  0.00    -0.102 S 
ATOM     32  C   UNL     1     -13.498   7.768  33.171  0.00  0.00    -0.008 A 
ATOM     33  C   UNL     1     -13.299   8.011  34.513  0.00  0.00    +0.011 A 
ATOM     34  C   UNL     1     -12.213   8.907  34.739  0.00  0.00    +0.008 A 
ATOM     35  C   UNL     1     -11.626   9.315  33.562  0.00  0.00    +0.045 A 
ENDBRANCH  30  32
ENDBRANCH  29  30
ENDBRANCH  11  29
ENDBRANCH  20  27
BRANCH  20   2
ATOM      2  O   UNL     1     -12.948   2.160  29.872  0.00  0.00    -0.379 OA
ATOM     37  H   UNL     1     -13.136   1.417  29.274  0.00  0.00    +0.211 HD
ENDBRANCH  20   2
BRANCH  23   3
ATOM      3  O   UNL     1     -16.489   0.653  27.485  0.00  0.00    -0.387 OA
ATOM     38  H   UNL     1     -15.646   0.259  27.201  0.00  0.00    +0.210 HD
ENDBRANCH  23   3
BRANCH  24   4
ATOM      4  O   UNL     1     -16.356  -0.458  30.103  0.00  0.00    -0.389 OA
ATOM     39  H   UNL     1     -16.520  -0.308  31.050  0.00  0.00    +0.210 HD
ENDBRANCH  24   4
TORSDOF 14
ENDMDL
