MODEL 1
REMARK VINA RESULT:      -7.0      0.000      0.000
REMARK  Name = 51137131
REMARK  6 active torsions:
REMARK  status: ('A' for Active; 'I' for Inactive)
REMARK    1  A    between atoms: S_2  and  C_18
REMARK    2  A    between atoms: S_2  and  C_23
REMARK    3  A    between atoms: N_6  and  C_13
REMARK    4  A    between atoms: C_8  and  C_12
REMARK    5  A    between atoms: C_13  and  C_14
REMARK    6  A    between atoms: C_23  and  C_27
REMARK                            x       y       z     vdW  Elec       q    Type
REMARK                         _______ _______ _______ _____ _____    ______ ____
ROOT
ATOM      3  O   UNL     1     -12.158  -7.725  16.537  0.00  0.00    -0.439 OA
ATOM      7  N   UNL     1     -10.535  -6.481  15.560  0.00  0.00    -0.213 NA
ATOM     12  C   UNL     1     -10.838  -7.405  16.445  0.00  0.00    +0.201 A 
ATOM     15  C   UNL     1     -11.753  -6.157  15.014  0.00  0.00    +0.111 A 
ATOM     16  C   UNL     1     -12.750  -6.917  15.609  0.00  0.00    +0.155 A 
ATOM     17  C   UNL     1     -12.109  -5.238  14.015  0.00  0.00    +0.058 A 
ATOM     18  C   UNL     1     -13.463  -5.131  13.668  0.00  0.00    +0.090 A 
ATOM     21  C   UNL     1     -14.100  -6.840  15.292  0.00  0.00    +0.050 A 
ATOM     22  C   UNL     1     -14.436  -5.918  14.295  0.00  0.00    +0.030 A 
ENDROOT
BRANCH  12   8
ATOM      6  N   UNL     1      -8.544 -10.058  17.509  0.00  0.00    -0.297 NA
ATOM      8  C   UNL     1      -9.910  -8.157  17.373  0.00  0.00    +0.090 C 
ATOM      9  C   UNL     1     -10.594  -9.221  18.249  0.00  0.00    +0.029 C 
ATOM     10  C   UNL     1      -8.806  -8.919  16.627  0.00  0.00    +0.097 C 
ATOM     11  C   UNL     1      -9.866 -10.520  17.932  0.00  0.00    +0.085 C 
BRANCH   6  13
ATOM     13  C   UNL     1      -7.775 -11.104  16.852  0.00  0.00    +0.119 C 
BRANCH  13  14
ATOM      1 CL   UNL     1      -2.598 -10.772  16.360  0.00  0.00    -0.084 Cl
ATOM     14  C   UNL     1      -6.410 -11.266  17.466  0.00  0.00    -0.032 A 
ATOM     19  C   UNL     1      -5.269 -10.977  16.717  0.00  0.00    +0.025 A 
ATOM     20  C   UNL     1      -6.286 -11.703  18.785  0.00  0.00    +0.005 A 
ATOM     24  C   UNL     1      -4.005 -11.126  17.285  0.00  0.00    +0.041 A 
ATOM     25  C   UNL     1      -5.021 -11.852  19.354  0.00  0.00    +0.002 A 
ATOM     26  C   UNL     1      -3.880 -11.563  18.605  0.00  0.00    +0.020 A 
ENDBRANCH  13  14
ENDBRANCH   6  13
ENDBRANCH  12   8
BRANCH  18   2
ATOM      2  S   UNL     1     -13.942  -3.994  12.429  0.00  0.00    -0.003 S 
ATOM      4  O   UNL     1     -14.498  -4.734  11.304  0.00  0.00    -0.169 OA
ATOM      5  O   UNL     1     -14.725  -2.946  13.064  0.00  0.00    -0.169 OA
BRANCH   2  23
ATOM     23  C   UNL     1     -12.412  -3.278  11.875  0.00  0.00    +0.168 C 
ATOM     27  C   UNL     1     -12.012  -3.806  10.515  0.00  0.00    +0.028 C 
ENDBRANCH   2  23
ENDBRANCH  18   2
TORSDOF 5
ENDMDL
MODEL 2
REMARK VINA RESULT:      -6.8     30.291     33.657
REMARK  Name = 51137131
REMARK  6 active torsions:
REMARK  status: ('A' for Active; 'I' for Inactive)
REMARK    1  A    between atoms: S_2  and  C_18
REMARK    2  A    between atoms: S_2  and  C_23
REMARK    3  A    between atoms: N_6  and  C_13
REMARK    4  A    between atoms: C_8  and  C_12
REMARK    5  A    between atoms: C_13  and  C_14
REMARK    6  A    between atoms: C_23  and  C_27
REMARK                            x       y       z     vdW  Elec       q    Type
REMARK                         _______ _______ _______ _____ _____    ______ ____
ROOT
ATOM      3  O   UNL     1      20.103   6.385  21.678  0.00  0.00    -0.439 OA
ATOM      7  N   UNL     1      19.959   4.740  20.125  0.00  0.00    -0.213 NA
ATOM     12  C   UNL     1      19.488   5.884  20.571  0.00  0.00    +0.201 A 
ATOM     15  C   UNL     1      20.973   4.452  21.005  0.00  0.00    +0.111 A 
ATOM     16  C   UNL     1      21.065   5.457  21.957  0.00  0.00    +0.155 A 
ATOM     17  C   UNL     1      21.864   3.371  21.075  0.00  0.00    +0.058 A 
ATOM     18  C   UNL     1      22.808   3.358  22.112  0.00  0.00    +0.090 A 
ATOM     21  C   UNL     1      21.986   5.480  22.998  0.00  0.00    +0.050 A 
ATOM     22  C   UNL     1      22.865   4.393  23.052  0.00  0.00    +0.030 A 
ENDROOT
BRANCH  12   8
ATOM      6  N   UNL     1      16.293   7.679  20.584  0.00  0.00    -0.297 NA
ATOM      8  C   UNL     1      18.353   6.713  20.014  0.00  0.00    +0.090 C 
ATOM      9  C   UNL     1      17.210   5.902  19.379  0.00  0.00    +0.029 C 
ATOM     10  C   UNL     1      17.667   7.580  21.080  0.00  0.00    +0.097 C 
ATOM     11  C   UNL     1      15.957   6.329  20.131  0.00  0.00    +0.085 C 
BRANCH   6  13
ATOM     13  C   UNL     1      15.370   8.169  21.597  0.00  0.00    +0.119 C 
BRANCH  13  14
ATOM      1 CL   UNL     1      10.248   7.310  22.027  0.00  0.00    -0.084 Cl
ATOM     14  C   UNL     1      13.982   8.359  21.046  0.00  0.00    -0.032 A 
ATOM     19  C   UNL     1      12.886   7.811  21.714  0.00  0.00    +0.025 A 
ATOM     20  C   UNL     1      13.791   9.084  19.870  0.00  0.00    +0.005 A 
ATOM     24  C   UNL     1      11.600   7.988  21.205  0.00  0.00    +0.041 A 
ATOM     25  C   UNL     1      12.504   9.260  19.361  0.00  0.00    +0.002 A 
ATOM     26  C   UNL     1      11.409   8.713  20.029  0.00  0.00    +0.020 A 
ENDBRANCH  13  14
ENDBRANCH   6  13
ENDBRANCH  12   8
BRANCH  18   2
ATOM      2  S   UNL     1      23.932   2.024  22.230  0.00  0.00    -0.003 S 
ATOM      4  O   UNL     1      23.665   1.294  23.461  0.00  0.00    -0.169 OA
ATOM      5  O   UNL     1      23.925   1.322  20.956  0.00  0.00    -0.169 OA
BRANCH   2  23
ATOM     23  C   UNL     1      25.519   2.802  22.420  0.00  0.00    +0.168 C 
ATOM     27  C   UNL     1      26.310   2.770  21.131  0.00  0.00    +0.028 C 
ENDBRANCH   2  23
ENDBRANCH  18   2
TORSDOF 5
ENDMDL
MODEL 3
REMARK VINA RESULT:      -6.7      5.677      8.722
REMARK  Name = 51137131
REMARK  6 active torsions:
REMARK  status: ('A' for Active; 'I' for Inactive)
REMARK    1  A    between atoms: S_2  and  C_18
REMARK    2  A    between atoms: S_2  and  C_23
REMARK    3  A    between atoms: N_6  and  C_13
REMARK    4  A    between atoms: C_8  and  C_12
REMARK    5  A    between atoms: C_13  and  C_14
REMARK    6  A    between atoms: C_23  and  C_27
REMARK                            x       y       z     vdW  Elec       q    Type
REMARK                         _______ _______ _______ _____ _____    ______ ____
ROOT
ATOM      3  O   UNL     1      -4.226 -10.716  17.524  0.00  0.00    -0.439 OA
ATOM      7  N   UNL     1      -5.718 -10.311  15.867  0.00  0.00    -0.213 NA
ATOM     12  C   UNL     1      -4.455 -10.431  16.212  0.00  0.00    +0.201 A 
ATOM     15  C   UNL     1      -6.390 -10.535  17.044  0.00  0.00    +0.111 A 
ATOM     16  C   UNL     1      -5.479 -10.784  18.061  0.00  0.00    +0.155 A 
ATOM     17  C   UNL     1      -7.760 -10.549  17.344  0.00  0.00    +0.058 A 
ATOM     18  C   UNL     1      -8.143 -10.813  18.667  0.00  0.00    +0.090 A 
ATOM     21  C   UNL     1      -5.820 -11.050  19.382  0.00  0.00    +0.050 A 
ATOM     22  C   UNL     1      -7.191 -11.059  19.662  0.00  0.00    +0.030 A 
ENDROOT
BRANCH  12   8
ATOM      6  N   UNL     1      -2.178 -11.174  13.439  0.00  0.00    -0.297 NA
ATOM      8  C   UNL     1      -3.226 -10.292  15.342  0.00  0.00    +0.090 C 
ATOM      9  C   UNL     1      -2.031 -11.163  15.768  0.00  0.00    +0.029 C 
ATOM     10  C   UNL     1      -3.483 -10.677  13.878  0.00  0.00    +0.097 C 
ATOM     11  C   UNL     1      -1.698 -12.003  14.544  0.00  0.00    +0.085 C 
BRANCH   6  13
ATOM     13  C   UNL     1      -2.258 -11.911  12.186  0.00  0.00    +0.119 C 
BRANCH  13  14
ATOM      1 CL   UNL     1      -5.838 -11.719   8.404  0.00  0.00    -0.084 Cl
ATOM     14  C   UNL     1      -2.957 -11.119  11.114  0.00  0.00    -0.032 A 
ATOM     19  C   UNL     1      -3.957 -11.715  10.346  0.00  0.00    +0.025 A 
ATOM     20  C   UNL     1      -2.606  -9.788  10.889  0.00  0.00    +0.005 A 
ATOM     24  C   UNL     1      -4.605 -10.982   9.353  0.00  0.00    +0.041 A 
ATOM     25  C   UNL     1      -3.255  -9.054   9.895  0.00  0.00    +0.002 A 
ATOM     26  C   UNL     1      -4.255  -9.651   9.128  0.00  0.00    +0.020 A 
ENDBRANCH  13  14
ENDBRANCH   6  13
ENDBRANCH  12   8
BRANCH  18   2
ATOM      2  S   UNL     1      -9.843 -10.836  19.076  0.00  0.00    -0.003 S 
ATOM      4  O   UNL     1     -10.452 -12.017  18.482  0.00  0.00    -0.169 OA
ATOM      5  O   UNL     1      -9.960 -10.604  20.507  0.00  0.00    -0.169 OA
BRANCH   2  23
ATOM     23  C   UNL     1     -10.517  -9.423  18.234  0.00  0.00    +0.168 C 
ATOM     27  C   UNL     1     -12.029  -9.427  18.266  0.00  0.00    +0.028 C 
ENDBRANCH   2  23
ENDBRANCH  18   2
TORSDOF 5
ENDMDL
MODEL 4
REMARK VINA RESULT:      -6.6      5.217      7.566
REMARK  Name = 51137131
REMARK  6 active torsions:
REMARK  status: ('A' for Active; 'I' for Inactive)
REMARK    1  A    between atoms: S_2  and  C_18
REMARK    2  A    between atoms: S_2  and  C_23
REMARK    3  A    between atoms: N_6  and  C_13
REMARK    4  A    between atoms: C_8  and  C_12
REMARK    5  A    between atoms: C_13  and  C_14
REMARK    6  A    between atoms: C_23  and  C_27
REMARK                            x       y       z     vdW  Elec       q    Type
REMARK                         _______ _______ _______ _____ _____    ______ ____
ROOT
ATOM      3  O   UNL     1      -7.007 -10.889  18.138  0.00  0.00    -0.439 OA
ATOM      7  N   UNL     1      -8.113  -9.247  17.035  0.00  0.00    -0.213 NA
ATOM     12  C   UNL     1      -6.987  -9.909  17.193  0.00  0.00    +0.201 A 
ATOM     15  C   UNL     1      -8.955  -9.832  17.948  0.00  0.00    +0.111 A 
ATOM     16  C   UNL     1      -8.282 -10.839  18.625  0.00  0.00    +0.155 A 
ATOM     17  C   UNL     1     -10.296  -9.580  18.270  0.00  0.00    +0.058 A 
ATOM     18  C   UNL     1     -10.894 -10.362  19.269  0.00  0.00    +0.090 A 
ATOM     21  C   UNL     1      -8.839 -11.634  19.619  0.00  0.00    +0.050 A 
ATOM     22  C   UNL     1     -10.177 -11.368  19.928  0.00  0.00    +0.030 A 
ENDROOT
BRANCH  12   8
ATOM      6  N   UNL     1      -4.324 -10.651  14.788  0.00  0.00    -0.297 NA
ATOM      8  C   UNL     1      -5.677  -9.722  16.463  0.00  0.00    +0.090 C 
ATOM      9  C   UNL     1      -4.471 -10.428  17.107  0.00  0.00    +0.029 C 
ATOM     10  C   UNL     1      -5.714 -10.252  15.023  0.00  0.00    +0.097 C 
ATOM     11  C   UNL     1      -3.914 -11.332  16.016  0.00  0.00    +0.085 C 
BRANCH   6  13
ATOM     13  C   UNL     1      -4.181 -11.495  13.611  0.00  0.00    +0.119 C 
BRANCH  13  14
ATOM      1 CL   UNL     1      -0.473  -8.918  11.009  0.00  0.00    -0.084 Cl
ATOM     14  C   UNL     1      -3.773 -10.702  12.399  0.00  0.00    -0.032 A 
ATOM     19  C   UNL     1      -2.465 -10.232  12.279  0.00  0.00    +0.025 A 
ATOM     20  C   UNL     1      -4.703 -10.437  11.393  0.00  0.00    +0.005 A 
ATOM     24  C   UNL     1      -2.087  -9.498  11.155  0.00  0.00    +0.041 A 
ATOM     25  C   UNL     1      -4.325  -9.703  10.268  0.00  0.00    +0.002 A 
ATOM     26  C   UNL     1      -3.017  -9.234  10.150  0.00  0.00    +0.020 A 
ENDBRANCH  13  14
ENDBRANCH   6  13
ENDBRANCH  12   8
BRANCH  18   2
ATOM      2  S   UNL     1     -12.564 -10.073  19.698  0.00  0.00    -0.003 S 
ATOM      4  O   UNL     1     -12.606  -9.368  20.971  0.00  0.00    -0.169 OA
ATOM      5  O   UNL     1     -13.231  -9.508  18.535  0.00  0.00    -0.169 OA
BRANCH   2  23
ATOM     23  C   UNL     1     -13.233 -11.696  19.980  0.00  0.00    +0.168 C 
ATOM     27  C   UNL     1     -13.539 -11.923  21.443  0.00  0.00    +0.028 C 
ENDBRANCH   2  23
ENDBRANCH  18   2
TORSDOF 5
ENDMDL
MODEL 5
REMARK VINA RESULT:      -6.5      5.258      9.761
REMARK  Name = 51137131
REMARK  6 active torsions:
REMARK  status: ('A' for Active; 'I' for Inactive)
REMARK    1  A    between atoms: S_2  and  C_18
REMARK    2  A    between atoms: S_2  and  C_23
REMARK    3  A    between atoms: N_6  and  C_13
REMARK    4  A    between atoms: C_8  and  C_12
REMARK    5  A    between atoms: C_13  and  C_14
REMARK    6  A    between atoms: C_23  and  C_27
REMARK                            x       y       z     vdW  Elec       q    Type
REMARK                         _______ _______ _______ _____ _____    ______ ____
ROOT
ATOM      3  O   UNL     1      -7.269  -9.902  17.023  0.00  0.00    -0.439 OA
ATOM      7  N   UNL     1      -7.211 -10.197  14.776  0.00  0.00    -0.213 NA
ATOM     12  C   UNL     1      -7.935  -9.906  15.835  0.00  0.00    +0.201 A 
ATOM     15  C   UNL     1      -5.958 -10.404  15.298  0.00  0.00    +0.111 A 
ATOM     16  C   UNL     1      -5.989 -10.224  16.674  0.00  0.00    +0.155 A 
ATOM     17  C   UNL     1      -4.742 -10.744  14.687  0.00  0.00    +0.058 A 
ATOM     18  C   UNL     1      -3.611 -10.889  15.504  0.00  0.00    +0.090 A 
ATOM     21  C   UNL     1      -4.891 -10.358  17.514  0.00  0.00    +0.050 A 
ATOM     22  C   UNL     1      -3.687 -10.699  16.888  0.00  0.00    +0.030 A 
ENDROOT
BRANCH  12   8
ATOM      6  N   UNL     1     -10.912  -7.812  16.260  0.00  0.00    -0.297 NA
ATOM      8  C   UNL     1      -9.409  -9.576  15.904  0.00  0.00    +0.090 C 
ATOM      9  C   UNL     1     -10.037  -9.709  17.302  0.00  0.00    +0.029 C 
ATOM     10  C   UNL     1      -9.720  -8.136  15.474  0.00  0.00    +0.097 C 
ATOM     11  C   UNL     1     -10.639  -8.342  17.596  0.00  0.00    +0.085 C 
BRANCH   6  13
ATOM     13  C   UNL     1     -11.196  -6.385  16.277  0.00  0.00    +0.119 C 
BRANCH  13  14
ATOM      1 CL   UNL     1     -12.395  -3.707  11.970  0.00  0.00    -0.084 Cl
ATOM     14  C   UNL     1     -12.219  -6.005  15.240  0.00  0.00    -0.032 A 
ATOM     19  C   UNL     1     -11.874  -5.135  14.205  0.00  0.00    +0.025 A 
ATOM     20  C   UNL     1     -13.512  -6.525  15.311  0.00  0.00    +0.005 A 
ATOM     24  C   UNL     1     -12.820  -4.783  13.244  0.00  0.00    +0.041 A 
ATOM     25  C   UNL     1     -14.459  -6.173  14.349  0.00  0.00    +0.002 A 
ATOM     26  C   UNL     1     -14.113  -5.302  13.315  0.00  0.00    +0.020 A 
ENDBRANCH  13  14
ENDBRANCH   6  13
ENDBRANCH  12   8
BRANCH  18   2
ATOM      2  S   UNL     1      -2.079 -11.315  14.776  0.00  0.00    -0.003 S 
ATOM      4  O   UNL     1      -1.004 -10.824  15.626  0.00  0.00    -0.169 OA
ATOM      5  O   UNL     1      -2.133 -12.723  14.417  0.00  0.00    -0.169 OA
BRANCH   2  23
ATOM     23  C   UNL     1      -2.027 -10.366  13.273  0.00  0.00    +0.168 C 
ATOM     27  C   UNL     1      -2.199 -11.247  12.055  0.00  0.00    +0.028 C 
ENDBRANCH   2  23
ENDBRANCH  18   2
TORSDOF 5
ENDMDL
MODEL 6
REMARK VINA RESULT:      -6.5     16.160     18.924
REMARK  Name = 51137131
REMARK  6 active torsions:
REMARK  status: ('A' for Active; 'I' for Inactive)
REMARK    1  A    between atoms: S_2  and  C_18
REMARK    2  A    between atoms: S_2  and  C_23
REMARK    3  A    between atoms: N_6  and  C_13
REMARK    4  A    between atoms: C_8  and  C_12
REMARK    5  A    between atoms: C_13  and  C_14
REMARK    6  A    between atoms: C_23  and  C_27
REMARK                            x       y       z     vdW  Elec       q    Type
REMARK                         _______ _______ _______ _____ _____    ______ ____
ROOT
ATOM      3  O   UNL     1     -13.569   7.709  19.601  0.00  0.00    -0.439 OA
ATOM      7  N   UNL     1     -12.121   6.641  20.978  0.00  0.00    -0.213 NA
ATOM     12  C   UNL     1     -12.283   7.505  20.000  0.00  0.00    +0.201 A 
ATOM     15  C   UNL     1     -13.403   6.233  21.256  0.00  0.00    +0.111 A 
ATOM     16  C   UNL     1     -14.293   6.886  20.415  0.00  0.00    +0.155 A 
ATOM     17  C   UNL     1     -13.904   5.323  22.198  0.00  0.00    +0.058 A 
ATOM     18  C   UNL     1     -15.290   5.115  22.241  0.00  0.00    +0.090 A 
ATOM     21  C   UNL     1     -15.671   6.706  20.429  0.00  0.00    +0.050 A 
ATOM     22  C   UNL     1     -16.153   5.794  21.373  0.00  0.00    +0.030 A 
ENDROOT
BRANCH  12   8
ATOM      6  N   UNL     1     -10.945  10.035  17.712  0.00  0.00    -0.297 NA
ATOM      8  C   UNL     1     -11.229   8.299  19.263  0.00  0.00    +0.090 C 
ATOM      9  C   UNL     1     -10.811   7.712  17.903  0.00  0.00    +0.029 C 
ATOM     10  C   UNL     1     -11.674   9.734  18.946  0.00  0.00    +0.097 C 
ATOM     11  C   UNL     1     -11.066   8.827  16.897  0.00  0.00    +0.085 C 
BRANCH   6  13
ATOM     13  C   UNL     1     -11.463  11.215  17.035  0.00  0.00    +0.119 C 
BRANCH  13  14
ATOM      1 CL   UNL     1      -6.760  13.317  16.243  0.00  0.00    -0.084 Cl
ATOM     14  C   UNL     1     -10.539  12.394  17.179  0.00  0.00    -0.032 A 
ATOM     19  C   UNL     1      -9.231  12.319  16.700  0.00  0.00    +0.025 A 
ATOM     20  C   UNL     1     -10.991  13.565  17.789  0.00  0.00    +0.005 A 
ATOM     24  C   UNL     1      -8.375  13.411  16.832  0.00  0.00    +0.041 A 
ATOM     25  C   UNL     1     -10.134  14.658  17.921  0.00  0.00    +0.002 A 
ATOM     26  C   UNL     1      -8.827  14.582  17.442  0.00  0.00    +0.020 A 
ENDBRANCH  13  14
ENDBRANCH   6  13
ENDBRANCH  12   8
BRANCH  18   2
ATOM      2  S   UNL     1     -15.950   3.985  23.402  0.00  0.00    -0.003 S 
ATOM      4  O   UNL     1     -16.307   2.756  22.708  0.00  0.00    -0.169 OA
ATOM      5  O   UNL     1     -15.046   3.938  24.541  0.00  0.00    -0.169 OA
BRANCH   2  23
ATOM     23  C   UNL     1     -17.468   4.741  23.937  0.00  0.00    +0.168 C 
ATOM     27  C   UNL     1     -17.249   5.639  25.134  0.00  0.00    +0.028 C 
ENDBRANCH   2  23
ENDBRANCH  18   2
TORSDOF 5
ENDMDL
MODEL 7
REMARK VINA RESULT:      -6.4     16.297     19.256
REMARK  Name = 51137131
REMARK  6 active torsions:
REMARK  status: ('A' for Active; 'I' for Inactive)
REMARK    1  A    between atoms: S_2  and  C_18
REMARK    2  A    between atoms: S_2  and  C_23
REMARK    3  A    between atoms: N_6  and  C_13
REMARK    4  A    between atoms: C_8  and  C_12
REMARK    5  A    between atoms: C_13  and  C_14
REMARK    6  A    between atoms: C_23  and  C_27
REMARK                            x       y       z     vdW  Elec       q    Type
REMARK                         _______ _______ _______ _____ _____    ______ ____
ROOT
ATOM      3  O   UNL     1     -11.183   7.458  20.461  0.00  0.00    -0.439 OA
ATOM      7  N   UNL     1     -12.837   8.506  19.320  0.00  0.00    -0.213 NA
ATOM     12  C   UNL     1     -11.549   8.423  19.573  0.00  0.00    +0.201 A 
ATOM     15  C   UNL     1     -13.377   7.515  20.104  0.00  0.00    +0.111 A 
ATOM     16  C   UNL     1     -12.367   6.871  20.804  0.00  0.00    +0.155 A 
ATOM     17  C   UNL     1     -14.702   7.092  20.283  0.00  0.00    +0.058 A 
ATOM     18  C   UNL     1     -14.942   6.032  21.170  0.00  0.00    +0.090 A 
ATOM     21  C   UNL     1     -12.565   5.819  21.689  0.00  0.00    +0.050 A 
ATOM     22  C   UNL     1     -13.893   5.411  21.857  0.00  0.00    +0.030 A 
ENDROOT
BRANCH  12   8
ATOM      6  N   UNL     1      -9.982  11.222  17.801  0.00  0.00    -0.297 NA
ATOM      8  C   UNL     1     -10.424   9.259  19.005  0.00  0.00    +0.090 C 
ATOM      9  C   UNL     1     -10.014   8.899  17.567  0.00  0.00    +0.029 C 
ATOM     10  C   UNL     1     -10.761  10.756  18.950  0.00  0.00    +0.097 C 
ATOM     11  C   UNL     1     -10.166  10.192  16.778  0.00  0.00    +0.085 C 
BRANCH   6  13
ATOM     13  C   UNL     1     -10.400  12.539  17.344  0.00  0.00    +0.119 C 
BRANCH  13  14
ATOM      1 CL   UNL     1      -5.558  13.991  16.078  0.00  0.00    -0.084 Cl
ATOM     14  C   UNL     1      -9.452  13.104  16.321  0.00  0.00    -0.032 A 
ATOM     19  C   UNL     1      -8.102  13.266  16.636  0.00  0.00    +0.025 A 
ATOM     20  C   UNL     1      -9.921  13.465  15.058  0.00  0.00    +0.005 A 
ATOM     24  C   UNL     1      -7.222  13.789  15.689  0.00  0.00    +0.041 A 
ATOM     25  C   UNL     1      -9.041  13.988  14.110  0.00  0.00    +0.002 A 
ATOM     26  C   UNL     1      -7.692  14.150  14.426  0.00  0.00    +0.020 A 
ENDBRANCH  13  14
ENDBRANCH   6  13
ENDBRANCH  12   8
BRANCH  18   2
ATOM      2  S   UNL     1     -16.582   5.480  21.420  0.00  0.00    -0.003 S 
ATOM      4  O   UNL     1     -17.312   5.597  20.165  0.00  0.00    -0.169 OA
ATOM      5  O   UNL     1     -16.521   4.199  22.105  0.00  0.00    -0.169 OA
BRANCH   2  23
ATOM     23  C   UNL     1     -17.281   6.671  22.540  0.00  0.00    +0.168 C 
ATOM     27  C   UNL     1     -16.844   6.413  23.965  0.00  0.00    +0.028 C 
ENDBRANCH   2  23
ENDBRANCH  18   2
TORSDOF 5
ENDMDL
MODEL 8
REMARK VINA RESULT:      -6.3      2.700      4.456
REMARK  Name = 51137131
REMARK  6 active torsions:
REMARK  status: ('A' for Active; 'I' for Inactive)
REMARK    1  A    between atoms: S_2  and  C_18
REMARK    2  A    between atoms: S_2  and  C_23
REMARK    3  A    between atoms: N_6  and  C_13
REMARK    4  A    between atoms: C_8  and  C_12
REMARK    5  A    between atoms: C_13  and  C_14
REMARK    6  A    between atoms: C_23  and  C_27
REMARK                            x       y       z     vdW  Elec       q    Type
REMARK                         _______ _______ _______ _____ _____    ______ ____
ROOT
ATOM      3  O   UNL     1      -9.091 -10.264  18.419  0.00  0.00    -0.439 OA
ATOM      7  N   UNL     1      -8.469  -8.735  16.866  0.00  0.00    -0.213 NA
ATOM     12  C   UNL     1      -8.089  -9.645  17.737  0.00  0.00    +0.201 A 
ATOM     15  C   UNL     1      -9.838  -8.747  16.975  0.00  0.00    +0.111 A 
ATOM     16  C   UNL     1     -10.223  -9.682  17.925  0.00  0.00    +0.155 A 
ATOM     17  C   UNL     1     -10.829  -8.007  16.314  0.00  0.00    +0.058 A 
ATOM     18  C   UNL     1     -12.169  -8.249  16.650  0.00  0.00    +0.090 A 
ATOM     21  C   UNL     1     -11.538  -9.950  18.284  0.00  0.00    +0.050 A 
ATOM     22  C   UNL     1     -12.513  -9.203  17.615  0.00  0.00    +0.030 A 
ENDROOT
BRANCH  12   8
ATOM      6  N   UNL     1      -4.947 -11.492  17.360  0.00  0.00    -0.297 NA
ATOM      8  C   UNL     1      -6.685 -10.091  18.076  0.00  0.00    +0.090 C 
ATOM      9  C   UNL     1      -6.602 -11.321  18.997  0.00  0.00    +0.029 C 
ATOM     10  C   UNL     1      -5.864 -10.477  16.838  0.00  0.00    +0.097 C 
ATOM     11  C   UNL     1      -5.771 -12.336  18.226  0.00  0.00    +0.085 C 
BRANCH   6  13
ATOM     13  C   UNL     1      -4.298 -12.251  16.301  0.00  0.00    +0.119 C 
BRANCH  13  14
ATOM      1 CL   UNL     1      -2.473 -10.212  11.866  0.00  0.00    -0.084 Cl
ATOM     14  C   UNL     1      -3.245 -11.440  15.594  0.00  0.00    -0.032 A 
ATOM     19  C   UNL     1      -3.336 -11.226  14.219  0.00  0.00    +0.025 A 
ATOM     20  C   UNL     1      -2.180 -10.899  16.315  0.00  0.00    +0.005 A 
ATOM     24  C   UNL     1      -2.362 -10.474  13.563  0.00  0.00    +0.041 A 
ATOM     25  C   UNL     1      -1.206 -10.146  15.659  0.00  0.00    +0.002 A 
ATOM     26  C   UNL     1      -1.297  -9.933  14.284  0.00  0.00    +0.020 A 
ENDBRANCH  13  14
ENDBRANCH   6  13
ENDBRANCH  12   8
BRANCH  18   2
ATOM      2  S   UNL     1     -13.430  -7.343  15.846  0.00  0.00    -0.003 S 
ATOM      4  O   UNL     1     -14.658  -7.461  16.621  0.00  0.00    -0.169 OA
ATOM      5  O   UNL     1     -12.899  -6.027  15.527  0.00  0.00    -0.169 OA
BRANCH   2  23
ATOM     23  C   UNL     1     -13.693  -8.214  14.319  0.00  0.00    +0.168 C 
ATOM     27  C   UNL     1     -12.780  -7.706  13.226  0.00  0.00    +0.028 C 
ENDBRANCH   2  23
ENDBRANCH  18   2
TORSDOF 5
ENDMDL
MODEL 9
REMARK VINA RESULT:      -6.2      6.292      7.914
REMARK  Name = 51137131
REMARK  6 active torsions:
REMARK  status: ('A' for Active; 'I' for Inactive)
REMARK    1  A    between atoms: S_2  and  C_18
REMARK    2  A    between atoms: S_2  and  C_23
REMARK    3  A    between atoms: N_6  and  C_13
REMARK    4  A    between atoms: C_8  and  C_12
REMARK    5  A    between atoms: C_13  and  C_14
REMARK    6  A    between atoms: C_23  and  C_27
REMARK                            x       y       z     vdW  Elec       q    Type
REMARK                         _______ _______ _______ _____ _____    ______ ____
ROOT
ATOM      3  O   UNL     1      -8.956 -10.108  19.085  0.00  0.00    -0.439 OA
ATOM      7  N   UNL     1      -8.451 -12.146  19.936  0.00  0.00    -0.213 NA
ATOM     12  C   UNL     1      -8.014 -11.056  19.343  0.00  0.00    +0.201 A 
ATOM     15  C   UNL     1      -9.795 -11.906  20.087  0.00  0.00    +0.111 A 
ATOM     16  C   UNL     1     -10.108 -10.659  19.567  0.00  0.00    +0.155 A 
ATOM     17  C   UNL     1     -10.819 -12.682  20.650  0.00  0.00    +0.058 A 
ATOM     18  C   UNL     1     -12.118 -12.154  20.657  0.00  0.00    +0.090 A 
ATOM     21  C   UNL     1     -11.381 -10.103  19.556  0.00  0.00    +0.050 A 
ATOM     22  C   UNL     1     -12.390 -10.890  20.120  0.00  0.00    +0.030 A 
ENDROOT
BRANCH  12   8
ATOM      6  N   UNL     1      -4.897 -11.375  17.442  0.00  0.00    -0.297 NA
ATOM      8  C   UNL     1      -6.604 -10.722  18.912  0.00  0.00    +0.090 C 
ATOM      9  C   UNL     1      -5.499 -11.451  19.697  0.00  0.00    +0.029 C 
ATOM     10  C   UNL     1      -6.330 -11.070  17.442  0.00  0.00    +0.097 C 
ATOM     11  C   UNL     1      -4.684 -12.185  18.641  0.00  0.00    +0.085 C 
BRANCH   6  13
ATOM     13  C   UNL     1      -4.475 -12.058  16.228  0.00  0.00    +0.119 C 
BRANCH  13  14
ATOM      1 CL   UNL     1      -2.449 -10.243  11.784  0.00  0.00    -0.084 Cl
ATOM     14  C   UNL     1      -3.369 -11.319  15.525  0.00  0.00    -0.032 A 
ATOM     19  C   UNL     1      -3.416 -11.143  14.142  0.00  0.00    +0.025 A 
ATOM     20  C   UNL     1      -2.296 -10.808  16.257  0.00  0.00    +0.005 A 
ATOM     24  C   UNL     1      -2.391 -10.458  13.490  0.00  0.00    +0.041 A 
ATOM     25  C   UNL     1      -1.271 -10.122  15.605  0.00  0.00    +0.002 A 
ATOM     26  C   UNL     1      -1.319  -9.946  14.222  0.00  0.00    +0.020 A 
ENDBRANCH  13  14
ENDBRANCH   6  13
ENDBRANCH  12   8
BRANCH  18   2
ATOM      2  S   UNL     1     -13.420 -13.094  21.349  0.00  0.00    -0.003 S 
ATOM      4  O   UNL     1     -13.516 -14.359  20.633  0.00  0.00    -0.169 OA
ATOM      5  O   UNL     1     -13.254 -13.090  22.793  0.00  0.00    -0.169 OA
BRANCH   2  23
ATOM     23  C   UNL     1     -14.887 -12.166  20.962  0.00  0.00    +0.168 C 
ATOM     27  C   UNL     1     -15.452 -11.486  22.189  0.00  0.00    +0.028 C 
ENDBRANCH   2  23
ENDBRANCH  18   2
TORSDOF 5
ENDMDL
MODEL 10
REMARK VINA RESULT:      -6.2      4.570      9.686
REMARK  Name = 51137131
REMARK  6 active torsions:
REMARK  status: ('A' for Active; 'I' for Inactive)
REMARK    1  A    between atoms: S_2  and  C_18
REMARK    2  A    between atoms: S_2  and  C_23
REMARK    3  A    between atoms: N_6  and  C_13
REMARK    4  A    between atoms: C_8  and  C_12
REMARK    5  A    between atoms: C_13  and  C_14
REMARK    6  A    between atoms: C_23  and  C_27
REMARK                            x       y       z     vdW  Elec       q    Type
REMARK                         _______ _______ _______ _____ _____    ______ ____
ROOT
ATOM      3  O   UNL     1     -10.315  -9.304  18.134  0.00  0.00    -0.439 OA
ATOM      7  N   UNL     1      -9.037  -8.618  16.393  0.00  0.00    -0.213 NA
ATOM     12  C   UNL     1     -10.191  -8.533  17.019  0.00  0.00    +0.201 A 
ATOM     15  C   UNL     1      -8.332  -9.520  17.151  0.00  0.00    +0.111 A 
ATOM     16  C   UNL     1      -9.111  -9.942  18.219  0.00  0.00    +0.155 A 
ATOM     17  C   UNL     1      -7.035 -10.035  17.014  0.00  0.00    +0.058 A 
ATOM     18  C   UNL     1      -6.587 -10.960  17.969  0.00  0.00    +0.090 A 
ATOM     21  C   UNL     1      -8.703 -10.855  19.184  0.00  0.00    +0.050 A 
ATOM     22  C   UNL     1      -7.407 -11.359  19.031  0.00  0.00    +0.030 A 
ENDROOT
BRANCH  12   8
ATOM      6  N   UNL     1     -12.642  -6.897  14.840  0.00  0.00    -0.297 NA
ATOM      8  C   UNL     1     -11.395  -7.692  16.660  0.00  0.00    +0.090 C 
ATOM      9  C   UNL     1     -11.098  -6.197  16.445  0.00  0.00    +0.029 C 
ATOM     10  C   UNL     1     -12.074  -8.143  15.360  0.00  0.00    +0.097 C 
ATOM     11  C   UNL     1     -11.596  -5.894  15.039  0.00  0.00    +0.085 C 
BRANCH   6  13
ATOM     13  C   UNL     1     -13.044  -7.010  13.446  0.00  0.00    +0.119 C 
BRANCH  13  14
ATOM      1 CL   UNL     1     -11.540  -3.392  10.010  0.00  0.00    -0.084 Cl
ATOM     14  C   UNL     1     -13.266  -5.661  12.816  0.00  0.00    -0.032 A 
ATOM     19  C   UNL     1     -12.402  -5.205  11.821  0.00  0.00    +0.025 A 
ATOM     20  C   UNL     1     -14.338  -4.867  13.226  0.00  0.00    +0.005 A 
ATOM     24  C   UNL     1     -12.608  -3.955  11.236  0.00  0.00    +0.041 A 
ATOM     25  C   UNL     1     -14.544  -3.617  12.641  0.00  0.00    +0.002 A 
ATOM     26  C   UNL     1     -13.679  -3.162  11.646  0.00  0.00    +0.020 A 
ENDBRANCH  13  14
ENDBRANCH   6  13
ENDBRANCH  12   8
BRANCH  18   2
ATOM      2  S   UNL     1      -4.976 -11.625  17.827  0.00  0.00    -0.003 S 
ATOM      4  O   UNL     1      -4.368 -11.665  19.149  0.00  0.00    -0.169 OA
ATOM      5  O   UNL     1      -5.064 -12.840  17.033  0.00  0.00    -0.169 OA
BRANCH   2  23
ATOM     23  C   UNL     1      -4.083 -10.414  16.880  0.00  0.00    +0.168 C 
ATOM     27  C   UNL     1      -3.541 -11.003  15.597  0.00  0.00    +0.028 C 
ENDBRANCH   2  23
ENDBRANCH  18   2
TORSDOF 5
ENDMDL
