MODEL 1
REMARK VINA RESULT:      -6.6      0.000      0.000
REMARK  Name = 11886032
REMARK  4 active torsions:
REMARK  status: ('A' for Active; 'I' for Inactive)
REMARK    1  A    between atoms: S_1  and  C_15
REMARK    2  A    between atoms: S_1  and  C_20
REMARK    3  A    between atoms: O_4  and  C_12
REMARK    4  A    between atoms: N_5  and  C_11
REMARK                            x       y       z     vdW  Elec       q    Type
REMARK                         _______ _______ _______ _____ _____    ______ ____
ROOT
ATOM      5  N   UNL     1      12.016   8.178  20.799  0.00  0.00    -0.212 N 
ATOM      6  N   UNL     1      11.211   7.113  20.714  0.00  0.00    -0.043 NA
ATOM      7  N   UNL     1      10.718   8.318  22.522  0.00  0.00    -0.101 NA
ATOM      8  N   UNL     1      10.418   7.204  21.773  0.00  0.00    -0.022 NA
ATOM     20  C   UNL     1      11.713   8.907  21.900  0.00  0.00    +0.210 A 
ENDROOT
BRANCH   5  11
ATOM      2  O   UNL     1      12.630   7.355  17.673  0.00  0.00    -0.369 OA
ATOM      3  O   UNL     1      13.804  10.149  18.282  0.00  0.00    -0.369 OA
ATOM      9  C   UNL     1      12.630   9.463  18.770  0.00  0.00    +0.176 C 
ATOM     10  C   UNL     1      12.068   8.675  17.604  0.00  0.00    +0.180 C 
ATOM     11  C   UNL     1      13.042   8.408  19.777  0.00  0.00    +0.168 C 
ATOM     12  C   UNL     1      12.582   9.440  16.407  0.00  0.00    +0.171 C 
ATOM     13  C   UNL     1      13.366   7.207  18.895  0.00  0.00    +0.190 C 
ATOM     14  C   UNL     1      13.945   9.888  16.878  0.00  0.00    +0.194 C 
BRANCH  12   4
ATOM      4  O   UNL     1      12.655   8.664  15.232  0.00  0.00    -0.387 OA
ATOM     21  H   UNL     1      12.058   7.904  15.345  0.00  0.00    +0.210 HD
ENDBRANCH  12   4
ENDBRANCH   5  11
BRANCH  20   1
ATOM      1  S   UNL     1      12.529  10.351  22.354  0.00  0.00    -0.081 S 
BRANCH   1  15
ATOM     15  C   UNL     1      11.266  11.182  23.351  0.00  0.00    +0.054 C 
ATOM     16  C   UNL     1      10.957  12.586  22.847  0.00  0.00    +0.014 C 
ATOM     17  C   UNL     1      11.723  11.436  24.783  0.00  0.00    +0.014 C 
ATOM     18  C   UNL     1      10.266  13.250  24.035  0.00  0.00    +0.001 C 
ATOM     19  C   UNL     1      10.769  12.519  25.281  0.00  0.00    +0.001 C 
ENDBRANCH   1  15
ENDBRANCH  20   1
TORSDOF 4
ENDMDL
MODEL 2
REMARK VINA RESULT:      -6.0      5.245      7.156
REMARK  Name = 11886032
REMARK  4 active torsions:
REMARK  status: ('A' for Active; 'I' for Inactive)
REMARK    1  A    between atoms: S_1  and  C_15
REMARK    2  A    between atoms: S_1  and  C_20
REMARK    3  A    between atoms: O_4  and  C_12
REMARK    4  A    between atoms: N_5  and  C_11
REMARK                            x       y       z     vdW  Elec       q    Type
REMARK                         _______ _______ _______ _____ _____    ______ ____
ROOT
ATOM      5  N   UNL     1      15.996   7.102  19.673  0.00  0.00    -0.212 N 
ATOM      6  N   UNL     1      15.779   6.207  18.703  0.00  0.00    -0.043 NA
ATOM      7  N   UNL     1      17.869   6.042  19.460  0.00  0.00    -0.101 NA
ATOM      8  N   UNL     1      16.931   5.560  18.576  0.00  0.00    -0.022 NA
ATOM     20  C   UNL     1      17.268   6.998  20.129  0.00  0.00    +0.210 A 
ENDROOT
BRANCH   5  11
ATOM      2  O   UNL     1      12.735   7.398  19.350  0.00  0.00    -0.369 OA
ATOM      3  O   UNL     1      13.643   8.578  22.060  0.00  0.00    -0.369 OA
ATOM      9  C   UNL     1      14.136   7.475  21.268  0.00  0.00    +0.176 C 
ATOM     10  C   UNL     1      12.926   6.808  20.645  0.00  0.00    +0.180 C 
ATOM     11  C   UNL     1      14.924   8.010  20.089  0.00  0.00    +0.168 C 
ATOM     12  C   UNL     1      11.815   7.178  21.598  0.00  0.00    +0.171 C 
ATOM     13  C   UNL     1      13.840   8.262  19.046  0.00  0.00    +0.190 C 
ATOM     14  C   UNL     1      12.208   8.575  22.018  0.00  0.00    +0.194 C 
BRANCH  12   4
ATOM      4  O   UNL     1      10.534   7.142  21.011  0.00  0.00    -0.387 OA
ATOM     21  H   UNL     1       9.949   7.705  21.548  0.00  0.00    +0.210 HD
ENDBRANCH  12   4
ENDBRANCH   5  11
BRANCH  20   1
ATOM      1  S   UNL     1      17.926   7.982  21.376  0.00  0.00    -0.081 S 
BRANCH   1  15
ATOM     15  C   UNL     1      19.638   7.395  21.435  0.00  0.00    +0.054 C 
ATOM     16  C   UNL     1      19.945   6.617  22.709  0.00  0.00    +0.014 C 
ATOM     17  C   UNL     1      20.648   8.535  21.490  0.00  0.00    +0.014 C 
ATOM     18  C   UNL     1      21.470   6.627  22.777  0.00  0.00    +0.001 C 
ATOM     19  C   UNL     1      21.921   7.868  22.005  0.00  0.00    +0.001 C 
ENDBRANCH   1  15
ENDBRANCH  20   1
TORSDOF 4
ENDMDL
MODEL 3
REMARK VINA RESULT:      -6.0      3.987      6.944
REMARK  Name = 11886032
REMARK  4 active torsions:
REMARK  status: ('A' for Active; 'I' for Inactive)
REMARK    1  A    between atoms: S_1  and  C_15
REMARK    2  A    between atoms: S_1  and  C_20
REMARK    3  A    between atoms: O_4  and  C_12
REMARK    4  A    between atoms: N_5  and  C_11
REMARK                            x       y       z     vdW  Elec       q    Type
REMARK                         _______ _______ _______ _____ _____    ______ ____
ROOT
ATOM      5  N   UNL     1      12.307   8.779  17.349  0.00  0.00    -0.212 N 
ATOM      6  N   UNL     1      11.138   8.245  16.979  0.00  0.00    -0.043 NA
ATOM      7  N   UNL     1      12.056   9.358  15.280  0.00  0.00    -0.101 NA
ATOM      8  N   UNL     1      10.989   8.603  15.710  0.00  0.00    -0.022 NA
ATOM     20  C   UNL     1      12.860   9.455  16.314  0.00  0.00    +0.210 A 
ENDROOT
BRANCH   5  11
ATOM      2  O   UNL     1      11.491   9.608  20.427  0.00  0.00    -0.369 OA
ATOM      3  O   UNL     1      12.924   6.869  20.412  0.00  0.00    -0.369 OA
ATOM      9  C   UNL     1      12.045   7.508  19.461  0.00  0.00    +0.176 C 
ATOM     10  C   UNL     1      11.007   8.266  20.265  0.00  0.00    +0.180 C 
ATOM     11  C   UNL     1      12.805   8.585  18.713  0.00  0.00    +0.168 C 
ATOM     12  C   UNL     1      10.990   7.516  21.576  0.00  0.00    +0.171 C 
ATOM     13  C   UNL     1      12.673   9.793  19.635  0.00  0.00    +0.190 C 
ATOM     14  C   UNL     1      12.441   7.127  21.738  0.00  0.00    +0.194 C 
BRANCH  12   4
ATOM      4  O   UNL     1      10.523   8.286  22.660  0.00  0.00    -0.387 OA
ATOM     21  H   UNL     1       9.893   8.938  22.306  0.00  0.00    +0.210 HD
ENDBRANCH  12   4
ENDBRANCH   5  11
BRANCH  20   1
ATOM      1  S   UNL     1      14.365  10.282  16.398  0.00  0.00    -0.081 S 
BRANCH   1  15
ATOM     15  C   UNL     1      14.432  11.081  14.775  0.00  0.00    +0.054 C 
ATOM     16  C   UNL     1      15.849  11.159  14.221  0.00  0.00    +0.014 C 
ATOM     17  C   UNL     1      14.013  12.546  14.824  0.00  0.00    +0.014 C 
ATOM     18  C   UNL     1      15.752  12.229  13.136  0.00  0.00    +0.001 C 
ATOM     19  C   UNL     1      14.580  13.130  13.532  0.00  0.00    +0.001 C 
ENDBRANCH   1  15
ENDBRANCH  20   1
TORSDOF 4
ENDMDL
MODEL 4
REMARK VINA RESULT:      -6.0      3.351      4.640
REMARK  Name = 11886032
REMARK  4 active torsions:
REMARK  status: ('A' for Active; 'I' for Inactive)
REMARK    1  A    between atoms: S_1  and  C_15
REMARK    2  A    between atoms: S_1  and  C_20
REMARK    3  A    between atoms: O_4  and  C_12
REMARK    4  A    between atoms: N_5  and  C_11
REMARK                            x       y       z     vdW  Elec       q    Type
REMARK                         _______ _______ _______ _____ _____    ______ ____
ROOT
ATOM      5  N   UNL     1      12.714   9.041  16.461  0.00  0.00    -0.212 N 
ATOM      6  N   UNL     1      11.900   9.201  15.411  0.00  0.00    -0.043 NA
ATOM      7  N   UNL     1      10.875   8.048  17.020  0.00  0.00    -0.101 NA
ATOM      8  N   UNL     1      10.775   8.590  15.759  0.00  0.00    -0.022 NA
ATOM     20  C   UNL     1      12.086   8.340  17.436  0.00  0.00    +0.210 A 
ENDROOT
BRANCH   5  11
ATOM      2  O   UNL     1      14.656  10.734  14.415  0.00  0.00    -0.369 OA
ATOM      3  O   UNL     1      15.328  11.448  17.347  0.00  0.00    -0.369 OA
ATOM      9  C   UNL     1      14.090  11.089  16.695  0.00  0.00    +0.176 C 
ATOM     10  C   UNL     1      14.123  11.717  15.316  0.00  0.00    +0.180 C 
ATOM     11  C   UNL     1      14.069   9.597  16.433  0.00  0.00    +0.168 C 
ATOM     12  C   UNL     1      15.071  12.878  15.501  0.00  0.00    +0.171 C 
ATOM     13  C   UNL     1      14.796   9.479  15.097  0.00  0.00    +0.190 C 
ATOM     14  C   UNL     1      16.075  12.315  16.480  0.00  0.00    +0.194 C 
BRANCH  12   4
ATOM      4  O   UNL     1      15.680  13.305  14.304  0.00  0.00    -0.387 OA
ATOM     21  H   UNL     1      15.000  13.756  13.774  0.00  0.00    +0.210 HD
ENDBRANCH  12   4
ENDBRANCH   5  11
BRANCH  20   1
ATOM      1  S   UNL     1      12.806   7.929  18.942  0.00  0.00    -0.081 S 
BRANCH   1  15
ATOM     15  C   UNL     1      11.438   8.225  20.090  0.00  0.00    +0.054 C 
ATOM     16  C   UNL     1      11.636   9.488  20.920  0.00  0.00    +0.014 C 
ATOM     17  C   UNL     1      11.322   7.143  21.157  0.00  0.00    +0.014 C 
ATOM     18  C   UNL     1      10.670   9.306  22.087  0.00  0.00    +0.001 C 
ATOM     19  C   UNL     1      10.479   7.797  22.249  0.00  0.00    +0.001 C 
ENDBRANCH   1  15
ENDBRANCH  20   1
TORSDOF 4
ENDMDL
MODEL 5
REMARK VINA RESULT:      -6.0      4.222      5.639
REMARK  Name = 11886032
REMARK  4 active torsions:
REMARK  status: ('A' for Active; 'I' for Inactive)
REMARK    1  A    between atoms: S_1  and  C_15
REMARK    2  A    between atoms: S_1  and  C_20
REMARK    3  A    between atoms: O_4  and  C_12
REMARK    4  A    between atoms: N_5  and  C_11
REMARK                            x       y       z     vdW  Elec       q    Type
REMARK                         _______ _______ _______ _____ _____    ______ ____
ROOT
ATOM      5  N   UNL     1      13.491   9.719  16.460  0.00  0.00    -0.212 N 
ATOM      6  N   UNL     1      13.709   8.832  15.483  0.00  0.00    -0.043 NA
ATOM      7  N   UNL     1      15.081  10.575  15.269  0.00  0.00    -0.101 NA
ATOM      8  N   UNL     1      14.684   9.362  14.756  0.00  0.00    -0.022 NA
ATOM     20  C   UNL     1      14.327  10.777  16.325  0.00  0.00    +0.210 A 
ENDROOT
BRANCH   5  11
ATOM      2  O   UNL     1      11.755   7.186  17.641  0.00  0.00    -0.369 OA
ATOM      3  O   UNL     1      12.236   9.272  19.871  0.00  0.00    -0.369 OA
ATOM      9  C   UNL     1      13.034   8.860  18.740  0.00  0.00    +0.176 C 
ATOM     10  C   UNL     1      12.827   7.368  18.578  0.00  0.00    +0.180 C 
ATOM     11  C   UNL     1      12.462   9.462  17.471  0.00  0.00    +0.168 C 
ATOM     12  C   UNL     1      12.433   6.934  19.970  0.00  0.00    +0.171 C 
ATOM     13  C   UNL     1      11.391   8.452  17.072  0.00  0.00    +0.190 C 
ATOM     14  C   UNL     1      11.620   8.113  20.452  0.00  0.00    +0.194 C 
BRANCH  12   4
ATOM      4  O   UNL     1      11.695   5.734  19.998  0.00  0.00    -0.387 OA
ATOM     21  H   UNL     1      12.294   5.015  19.730  0.00  0.00    +0.210 HD
ENDBRANCH  12   4
ENDBRANCH   5  11
BRANCH  20   1
ATOM      1  S   UNL     1      14.349  12.128  17.389  0.00  0.00    -0.081 S 
BRANCH   1  15
ATOM     15  C   UNL     1      15.589  11.612  18.604  0.00  0.00    +0.054 C 
ATOM     16  C   UNL     1      15.095  11.759  20.038  0.00  0.00    +0.014 C 
ATOM     17  C   UNL     1      16.830  12.495  18.588  0.00  0.00    +0.014 C 
ATOM     18  C   UNL     1      16.379  11.730  20.864  0.00  0.00    +0.001 C 
ATOM     19  C   UNL     1      17.493  12.217  19.934  0.00  0.00    +0.001 C 
ENDBRANCH   1  15
ENDBRANCH  20   1
TORSDOF 4
ENDMDL
MODEL 6
REMARK VINA RESULT:      -5.9      2.673      4.031
REMARK  Name = 11886032
REMARK  4 active torsions:
REMARK  status: ('A' for Active; 'I' for Inactive)
REMARK    1  A    between atoms: S_1  and  C_15
REMARK    2  A    between atoms: S_1  and  C_20
REMARK    3  A    between atoms: O_4  and  C_12
REMARK    4  A    between atoms: N_5  and  C_11
REMARK                            x       y       z     vdW  Elec       q    Type
REMARK                         _______ _______ _______ _____ _____    ______ ____
ROOT
ATOM      5  N   UNL     1      13.225   9.987  20.407  0.00  0.00    -0.212 N 
ATOM      6  N   UNL     1      14.253   9.313  19.878  0.00  0.00    -0.043 NA
ATOM      7  N   UNL     1      14.848  11.414  20.323  0.00  0.00    -0.101 NA
ATOM      8  N   UNL     1      15.245  10.193  19.829  0.00  0.00    -0.022 NA
ATOM     20  C   UNL     1      13.592  11.264  20.675  0.00  0.00    +0.210 A 
ENDROOT
BRANCH   5  11
ATOM      2  O   UNL     1      11.707   7.201  19.535  0.00  0.00    -0.369 OA
ATOM      3  O   UNL     1      10.738   8.106  22.328  0.00  0.00    -0.369 OA
ATOM      9  C   UNL     1      12.013   8.224  21.658  0.00  0.00    +0.176 C 
ATOM     10  C   UNL     1      12.207   6.952  20.858  0.00  0.00    +0.180 C 
ATOM     11  C   UNL     1      11.937   9.321  20.614  0.00  0.00    +0.168 C 
ATOM     12  C   UNL     1      11.347   5.957  21.602  0.00  0.00    +0.171 C 
ATOM     13  C   UNL     1      11.376   8.591  19.399  0.00  0.00    +0.190 C 
ATOM     14  C   UNL     1      10.184   6.813  22.046  0.00  0.00    +0.194 C 
BRANCH  12   4
ATOM      4  O   UNL     1      10.932   4.868  20.809  0.00  0.00    -0.387 OA
ATOM     21  H   UNL     1      10.975   5.149  19.879  0.00  0.00    +0.210 HD
ENDBRANCH  12   4
ENDBRANCH   5  11
BRANCH  20   1
ATOM      1  S   UNL     1      12.545  12.443  21.360  0.00  0.00    -0.081 S 
BRANCH   1  15
ATOM     15  C   UNL     1      12.510  11.931  23.097  0.00  0.00    +0.054 C 
ATOM     16  C   UNL     1      11.134  11.442  23.532  0.00  0.00    +0.014 C 
ATOM     17  C   UNL     1      12.770  13.088  24.055  0.00  0.00    +0.014 C 
ATOM     18  C   UNL     1      11.195  11.511  25.056  0.00  0.00    +0.001 C 
ATOM     19  C   UNL     1      12.237  12.579  25.392  0.00  0.00    +0.001 C 
ENDBRANCH   1  15
ENDBRANCH  20   1
TORSDOF 4
ENDMDL
MODEL 7
REMARK VINA RESULT:      -5.9     26.438     27.364
REMARK  Name = 11886032
REMARK  4 active torsions:
REMARK  status: ('A' for Active; 'I' for Inactive)
REMARK    1  A    between atoms: S_1  and  C_15
REMARK    2  A    between atoms: S_1  and  C_20
REMARK    3  A    between atoms: O_4  and  C_12
REMARK    4  A    between atoms: N_5  and  C_11
REMARK                            x       y       z     vdW  Elec       q    Type
REMARK                         _______ _______ _______ _____ _____    ______ ____
ROOT
ATOM      5  N   UNL     1      -3.607 -11.024  15.554  0.00  0.00    -0.212 N 
ATOM      6  N   UNL     1      -2.567 -10.681  16.322  0.00  0.00    -0.043 NA
ATOM      7  N   UNL     1      -2.020 -10.541  14.166  0.00  0.00    -0.101 NA
ATOM      8  N   UNL     1      -1.597 -10.386  15.466  0.00  0.00    -0.022 NA
ATOM     20  C   UNL     1      -3.270 -10.938  14.245  0.00  0.00    +0.210 A 
ENDROOT
BRANCH   5  11
ATOM      2  O   UNL     1      -4.712 -12.216  18.414  0.00  0.00    -0.369 OA
ATOM      3  O   UNL     1      -6.862 -10.413  17.117  0.00  0.00    -0.369 OA
ATOM      9  C   UNL     1      -5.419 -10.360  17.110  0.00  0.00    +0.176 C 
ATOM     10  C   UNL     1      -4.957 -10.803  18.484  0.00  0.00    +0.180 C 
ATOM     11  C   UNL     1      -4.878 -11.417  16.169  0.00  0.00    +0.168 C 
ATOM     12  C   UNL     1      -6.150 -10.485  19.354  0.00  0.00    +0.171 C 
ATOM     13  C   UNL     1      -4.819 -12.658  17.054  0.00  0.00    +0.190 C 
ATOM     14  C   UNL     1      -7.307 -10.786  18.430  0.00  0.00    +0.194 C 
BRANCH  12   4
ATOM      4  O   UNL     1      -6.204 -11.248  20.538  0.00  0.00    -0.387 OA
ATOM     21  H   UNL     1      -6.348 -12.176  20.281  0.00  0.00    +0.210 HD
ENDBRANCH  12   4
ENDBRANCH   5  11
BRANCH  20   1
ATOM      1  S   UNL     1      -4.339 -11.300  12.948  0.00  0.00    -0.081 S 
BRANCH   1  15
ATOM     15  C   UNL     1      -4.054  -9.898  11.840  0.00  0.00    +0.054 C 
ATOM     16  C   UNL     1      -5.350  -9.216  11.417  0.00  0.00    +0.014 C 
ATOM     17  C   UNL     1      -3.450 -10.318  10.505  0.00  0.00    +0.014 C 
ATOM     18  C   UNL     1      -4.947  -8.414  10.182  0.00  0.00    +0.001 C 
ATOM     19  C   UNL     1      -3.733  -9.131   9.588  0.00  0.00    +0.001 C 
ENDBRANCH   1  15
ENDBRANCH  20   1
TORSDOF 4
ENDMDL
MODEL 8
REMARK VINA RESULT:      -5.6      3.040      5.974
REMARK  Name = 11886032
REMARK  4 active torsions:
REMARK  status: ('A' for Active; 'I' for Inactive)
REMARK    1  A    between atoms: S_1  and  C_15
REMARK    2  A    between atoms: S_1  and  C_20
REMARK    3  A    between atoms: O_4  and  C_12
REMARK    4  A    between atoms: N_5  and  C_11
REMARK                            x       y       z     vdW  Elec       q    Type
REMARK                         _______ _______ _______ _____ _____    ______ ____
ROOT
ATOM      5  N   UNL     1      11.426   9.184  21.338  0.00  0.00    -0.212 N 
ATOM      6  N   UNL     1      10.602   8.872  22.344  0.00  0.00    -0.043 NA
ATOM      7  N   UNL     1      10.953   7.093  21.049  0.00  0.00    -0.101 NA
ATOM      8  N   UNL     1      10.315   7.590  22.162  0.00  0.00    -0.022 NA
ATOM     20  C   UNL     1      11.636   8.100  20.553  0.00  0.00    +0.210 A 
ENDROOT
BRANCH   5  11
ATOM      2  O   UNL     1      11.925  11.828  23.231  0.00  0.00    -0.369 OA
ATOM      3  O   UNL     1      14.077  11.690  21.016  0.00  0.00    -0.369 OA
ATOM      9  C   UNL     1      13.372  10.664  21.748  0.00  0.00    +0.176 C 
ATOM     10  C   UNL     1      13.202  11.175  23.165  0.00  0.00    +0.180 C 
ATOM     11  C   UNL     1      11.958  10.544  21.216  0.00  0.00    +0.168 C 
ATOM     12  C   UNL     1      14.341  12.158  23.302  0.00  0.00    +0.171 C 
ATOM     13  C   UNL     1      11.208  11.611  22.007  0.00  0.00    +0.190 C 
ATOM     14  C   UNL     1      14.413  12.756  21.916  0.00  0.00    +0.194 C 
BRANCH  12   4
ATOM      4  O   UNL     1      14.123  13.138  24.292  0.00  0.00    -0.387 OA
ATOM     21  H   UNL     1      13.322  13.632  24.043  0.00  0.00    +0.210 HD
ENDBRANCH  12   4
ENDBRANCH   5  11
BRANCH  20   1
ATOM      1  S   UNL     1      12.638   8.102  19.156  0.00  0.00    -0.081 S 
BRANCH   1  15
ATOM     15  C   UNL     1      13.949   6.953  19.647  0.00  0.00    +0.054 C 
ATOM     16  C   UNL     1      14.506   7.263  21.032  0.00  0.00    +0.014 C 
ATOM     17  C   UNL     1      15.184   7.058  18.761  0.00  0.00    +0.014 C 
ATOM     18  C   UNL     1      15.843   6.526  21.053  0.00  0.00    +0.001 C 
ATOM     19  C   UNL     1      16.285   6.407  19.593  0.00  0.00    +0.001 C 
ENDBRANCH   1  15
ENDBRANCH  20   1
TORSDOF 4
ENDMDL
MODEL 9
REMARK VINA RESULT:      -5.6     26.162     26.756
REMARK  Name = 11886032
REMARK  4 active torsions:
REMARK  status: ('A' for Active; 'I' for Inactive)
REMARK    1  A    between atoms: S_1  and  C_15
REMARK    2  A    between atoms: S_1  and  C_20
REMARK    3  A    between atoms: O_4  and  C_12
REMARK    4  A    between atoms: N_5  and  C_11
REMARK                            x       y       z     vdW  Elec       q    Type
REMARK                         _______ _______ _______ _____ _____    ______ ____
ROOT
ATOM      5  N   UNL     1      -3.137 -10.736  13.672  0.00  0.00    -0.212 N 
ATOM      6  N   UNL     1      -1.922 -10.199  13.517  0.00  0.00    -0.043 NA
ATOM      7  N   UNL     1      -2.349 -10.545  15.677  0.00  0.00    -0.101 NA
ATOM      8  N   UNL     1      -1.443 -10.084  14.750  0.00  0.00    -0.022 NA
ATOM     20  C   UNL     1      -3.392 -10.944  14.987  0.00  0.00    +0.210 A 
ENDROOT
BRANCH   5  11
ATOM      2  O   UNL     1      -4.930  -9.082  11.464  0.00  0.00    -0.369 OA
ATOM      3  O   UNL     1      -3.753 -11.635  10.176  0.00  0.00    -0.369 OA
ATOM      9  C   UNL     1      -3.252 -10.744  11.196  0.00  0.00    +0.176 C 
ATOM     10  C   UNL     1      -3.681  -9.344  10.805  0.00  0.00    +0.180 C 
ATOM     11  C   UNL     1      -3.974 -11.011  12.502  0.00  0.00    +0.168 C 
ATOM     12  C   UNL     1      -3.851  -9.455   9.308  0.00  0.00    +0.171 C 
ATOM     13  C   UNL     1      -5.226 -10.149  12.377  0.00  0.00    +0.190 C 
ATOM     14  C   UNL     1      -4.393 -10.857   9.153  0.00  0.00    +0.194 C 
BRANCH  12   4
ATOM      4  O   UNL     1      -4.722  -8.488   8.767  0.00  0.00    -0.387 OA
ATOM     21  H   UNL     1      -4.420  -7.616   9.075  0.00  0.00    +0.210 HD
ENDBRANCH  12   4
ENDBRANCH   5  11
BRANCH  20   1
ATOM      1  S   UNL     1      -4.854 -11.619  15.589  0.00  0.00    -0.081 S 
BRANCH   1  15
ATOM     15  C   UNL     1      -4.839 -11.044  17.305  0.00  0.00    +0.054 C 
ATOM     16  C   UNL     1      -4.625 -12.179  18.299  0.00  0.00    +0.014 C 
ATOM     17  C   UNL     1      -6.181 -10.469  17.743  0.00  0.00    +0.014 C 
ATOM     18  C   UNL     1      -5.098 -11.589  19.625  0.00  0.00    +0.001 C 
ATOM     19  C   UNL     1      -6.110 -10.499  19.268  0.00  0.00    +0.001 C 
ENDBRANCH   1  15
ENDBRANCH  20   1
TORSDOF 4
ENDMDL
MODEL 10
REMARK VINA RESULT:      -5.5      4.280      6.265
REMARK  Name = 11886032
REMARK  4 active torsions:
REMARK  status: ('A' for Active; 'I' for Inactive)
REMARK    1  A    between atoms: S_1  and  C_15
REMARK    2  A    between atoms: S_1  and  C_20
REMARK    3  A    between atoms: O_4  and  C_12
REMARK    4  A    between atoms: N_5  and  C_11
REMARK                            x       y       z     vdW  Elec       q    Type
REMARK                         _______ _______ _______ _____ _____    ______ ____
ROOT
ATOM      5  N   UNL     1      13.674   8.925  17.457  0.00  0.00    -0.212 N 
ATOM      6  N   UNL     1      13.640   7.875  16.629  0.00  0.00    -0.043 NA
ATOM      7  N   UNL     1      13.989   9.756  15.485  0.00  0.00    -0.101 NA
ATOM      8  N   UNL     1      13.833   8.390  15.421  0.00  0.00    -0.022 NA
ATOM     20  C   UNL     1      13.886  10.065  16.757  0.00  0.00    +0.210 A 
ENDROOT
BRANCH   5  11
ATOM      2  O   UNL     1      14.217   6.612  19.733  0.00  0.00    -0.369 OA
ATOM      3  O   UNL     1      14.482   9.422  20.995  0.00  0.00    -0.369 OA
ATOM      9  C   UNL     1      14.783   8.919  19.674  0.00  0.00    +0.176 C 
ATOM     10  C   UNL     1      15.327   7.516  19.853  0.00  0.00    +0.180 C 
ATOM     11  C   UNL     1      13.495   8.731  18.898  0.00  0.00    +0.168 C 
ATOM     12  C   UNL     1      15.872   7.547  21.261  0.00  0.00    +0.171 C 
ATOM     13  C   UNL     1      13.049   7.334  19.319  0.00  0.00    +0.190 C 
ATOM     14  C   UNL     1      14.880   8.443  21.966  0.00  0.00    +0.194 C 
BRANCH  12   4
ATOM      4  O   UNL     1      15.958   6.275  21.861  0.00  0.00    -0.387 OA
ATOM     21  H   UNL     1      15.062   5.895  21.872  0.00  0.00    +0.210 HD
ENDBRANCH  12   4
ENDBRANCH   5  11
BRANCH  20   1
ATOM      1  S   UNL     1      13.992  11.627  17.470  0.00  0.00    -0.081 S 
BRANCH   1  15
ATOM     15  C   UNL     1      15.785  11.866  17.553  0.00  0.00    +0.054 C 
ATOM     16  C   UNL     1      16.189  12.879  18.617  0.00  0.00    +0.014 C 
ATOM     17  C   UNL     1      16.355  12.479  16.278  0.00  0.00    +0.014 C 
ATOM     18  C   UNL     1      17.610  13.269  18.220  0.00  0.00    +0.001 C 
ATOM     19  C   UNL     1      17.713  13.025  16.713  0.00  0.00    +0.001 C 
ENDBRANCH   1  15
ENDBRANCH  20   1
TORSDOF 4
ENDMDL
