MODEL 1
REMARK VINA RESULT:      -6.3      0.000      0.000
REMARK  Name = 51136656
REMARK  8 active torsions:
REMARK  status: ('A' for Active; 'I' for Inactive)
REMARK    1  A    between atoms: O_3  and  C_18
REMARK    2  A    between atoms: O_5  and  C_26
REMARK    3  A    between atoms: O_5  and  C_32
REMARK    4  A    between atoms: C_8  and  C_13
REMARK    5  A    between atoms: C_9  and  C_14
REMARK    6  A    between atoms: C_13  and  C_15
REMARK    7  A    between atoms: C_14  and  C_18
REMARK    8  A    between atoms: C_16  and  C_22
REMARK                            x       y       z     vdW  Elec       q    Type
REMARK                         _______ _______ _______ _____ _____    ______ ____
ROOT
ATOM      2  O   UNL     1      -1.176  -9.668  12.204  0.00  0.00    -0.270 OA
ATOM      6  N   UNL     1      -2.286 -11.152  13.631  0.00  0.00    -0.297 N 
ATOM      8  C   UNL     1      -4.262 -11.720  15.026  0.00  0.00    +0.016 C 
ATOM      9  C   UNL     1      -3.426 -11.376  16.284  0.00  0.00    +0.006 C 
ATOM     10  C   UNL     1      -2.316 -10.360  15.964  0.00  0.00    +0.023 C 
ATOM     11  C   UNL     1      -3.331 -12.155  13.879  0.00  0.00    +0.112 C 
ATOM     12  C   UNL     1      -1.457 -10.828  14.792  0.00  0.00    +0.108 C 
ATOM     16  C   UNL     1      -2.046 -10.511  12.414  0.00  0.00    +0.247 C 
ENDROOT
BRANCH  16  22
ATOM      1  F   UNL     1      -4.442  -9.269   8.388  0.00  0.00    -0.205 F 
ATOM     22  C   UNL     1      -2.897 -10.860  11.271  0.00  0.00    +0.040 A 
ATOM     27  C   UNL     1      -3.272  -9.878  10.354  0.00  0.00    +0.051 A 
ATOM     28  C   UNL     1      -3.331 -12.175  11.102  0.00  0.00    +0.013 A 
ATOM     29  C   UNL     1      -4.082 -10.211   9.269  0.00  0.00    +0.124 A 
ATOM     30  C   UNL     1      -4.142 -12.508  10.016  0.00  0.00    +0.004 A 
ATOM     31  C   UNL     1      -4.517 -11.526   9.100  0.00  0.00    +0.038 A 
ENDBRANCH  16  22
BRANCH   8  13
ATOM     13  C   UNL     1      -5.186 -10.586  14.562  0.00  0.00    +0.061 C 
BRANCH  13  15
ATOM      7  N   UNL     1      -6.863 -12.238  14.083  0.00  0.00    -0.287 NA
ATOM     15  C   UNL     1      -6.290 -11.146  13.698  0.00  0.00    +0.044 C 
ATOM     17  C   UNL     1      -6.657 -10.425  12.451  0.00  0.00    -0.001 A 
ATOM     19  C   UNL     1      -7.384 -11.147  11.497  0.00  0.00    -0.033 A 
ATOM     20  C   UNL     1      -7.726 -12.578  11.782  0.00  0.00    +0.059 C 
ATOM     21  C   UNL     1      -7.975 -12.748  13.275  0.00  0.00    +0.146 C 
ATOM     23  C   UNL     1      -6.295  -9.098  12.212  0.00  0.00    +0.013 A 
ATOM     24  C   UNL     1      -7.726 -10.538  10.286  0.00  0.00    +0.050 A 
ATOM     25  C   UNL     1      -6.654  -8.494  11.007  0.00  0.00    +0.046 A 
ATOM     26  C   UNL     1      -7.364  -9.213  10.044  0.00  0.00    +0.120 A 
BRANCH  26   5
ATOM      5  O   UNL     1      -7.704  -8.619   8.867  0.00  0.00    -0.495 OA
ATOM     32  C   UNL     1      -9.039  -8.814   8.404  0.00  0.00    +0.277 C 
ENDBRANCH  26   5
ENDBRANCH  13  15
ENDBRANCH   8  13
BRANCH   9  14
ATOM     14  C   UNL     1      -4.276 -10.893  17.458  0.00  0.00    +0.124 C 
BRANCH  14  18
ATOM      4  O   UNL     1      -5.442 -12.547  18.817  0.00  0.00    -0.251 OA
ATOM     18  C   UNL     1      -4.418 -11.953  18.515  0.00  0.00    +0.305 C 
BRANCH  18   3
ATOM      3  O   UNL     1      -3.217 -12.172  19.108  0.00  0.00    -0.481 OA
ATOM     33  H   UNL     1      -2.634 -11.385  19.054  0.00  0.00    +0.295 HD
ENDBRANCH  18   3
ENDBRANCH  14  18
ENDBRANCH   9  14
TORSDOF 7
ENDMDL
MODEL 2
REMARK VINA RESULT:      -6.1     23.465     25.921
REMARK  Name = 51136656
REMARK  8 active torsions:
REMARK  status: ('A' for Active; 'I' for Inactive)
REMARK    1  A    between atoms: O_3  and  C_18
REMARK    2  A    between atoms: O_5  and  C_26
REMARK    3  A    between atoms: O_5  and  C_32
REMARK    4  A    between atoms: C_8  and  C_13
REMARK    5  A    between atoms: C_9  and  C_14
REMARK    6  A    between atoms: C_13  and  C_15
REMARK    7  A    between atoms: C_14  and  C_18
REMARK    8  A    between atoms: C_16  and  C_22
REMARK                            x       y       z     vdW  Elec       q    Type
REMARK                         _______ _______ _______ _____ _____    ______ ____
ROOT
ATOM      2  O   UNL     1     -14.441   4.582  35.132  0.00  0.00    -0.270 OA
ATOM      6  N   UNL     1     -14.027   3.774  32.976  0.00  0.00    -0.297 N 
ATOM      8  C   UNL     1     -14.863   3.101  30.735  0.00  0.00    +0.016 C 
ATOM      9  C   UNL     1     -14.692   1.620  31.158  0.00  0.00    +0.006 C 
ATOM     10  C   UNL     1     -14.798   1.452  32.684  0.00  0.00    +0.023 C 
ATOM     11  C   UNL     1     -13.889   3.990  31.529  0.00  0.00    +0.112 C 
ATOM     12  C   UNL     1     -13.839   2.391  33.411  0.00  0.00    +0.108 C 
ATOM     16  C   UNL     1     -14.319   4.760  33.921  0.00  0.00    +0.247 C 
ENDROOT
BRANCH  16  22
ATOM      1  F   UNL     1     -12.586   8.790  31.860  0.00  0.00    -0.205 F 
ATOM     22  C   UNL     1     -14.502   6.137  33.448  0.00  0.00    +0.040 A 
ATOM     27  C   UNL     1     -13.435   6.822  32.867  0.00  0.00    +0.051 A 
ATOM     28  C   UNL     1     -15.743   6.759  33.580  0.00  0.00    +0.013 A 
ATOM     29  C   UNL     1     -13.610   8.131  32.418  0.00  0.00    +0.124 A 
ATOM     30  C   UNL     1     -15.917   8.070  33.131  0.00  0.00    +0.004 A 
ATOM     31  C   UNL     1     -14.850   8.754  32.550  0.00  0.00    +0.038 A 
ENDBRANCH  16  22
BRANCH   8  13
ATOM     13  C   UNL     1     -16.298   3.627  30.875  0.00  0.00    +0.061 C 
BRANCH  13  15
ATOM      7  N   UNL     1     -16.676   5.944  30.362  0.00  0.00    -0.287 NA
ATOM     15  C   UNL     1     -16.530   4.749  29.892  0.00  0.00    +0.044 C 
ATOM     17  C   UNL     1     -16.588   4.428  28.442  0.00  0.00    -0.001 A 
ATOM     19  C   UNL     1     -17.178   5.386  27.608  0.00  0.00    -0.033 A 
ATOM     20  C   UNL     1     -17.715   6.644  28.221  0.00  0.00    +0.059 C 
ATOM     21  C   UNL     1     -16.841   7.041  29.404  0.00  0.00    +0.146 C 
ATOM     23  C   UNL     1     -16.100   3.232  27.913  0.00  0.00    +0.013 A 
ATOM     24  C   UNL     1     -17.298   5.128  26.239  0.00  0.00    +0.050 A 
ATOM     25  C   UNL     1     -16.211   2.990  26.544  0.00  0.00    +0.046 A 
ATOM     26  C   UNL     1     -16.812   3.933  25.709  0.00  0.00    +0.120 A 
BRANCH  26   5
ATOM      5  O   UNL     1     -16.924   3.686  24.375  0.00  0.00    -0.495 OA
ATOM     32  C   UNL     1     -15.796   4.000  23.560  0.00  0.00    +0.277 C 
ENDBRANCH  26   5
ENDBRANCH  13  15
ENDBRANCH   8  13
BRANCH   9  14
ATOM     14  C   UNL     1     -15.658   0.676  30.444  0.00  0.00    +0.124 C 
BRANCH  14  18
ATOM      4  O   UNL     1     -14.110  -0.947  29.489  0.00  0.00    -0.251 OA
ATOM     18  C   UNL     1     -15.048  -0.682  30.226  0.00  0.00    +0.305 C 
BRANCH  18   3
ATOM      3  O   UNL     1     -15.699  -1.603  30.982  0.00  0.00    -0.481 OA
ATOM     33  H   UNL     1     -15.131  -2.377  31.182  0.00  0.00    +0.295 HD
ENDBRANCH  18   3
ENDBRANCH  14  18
ENDBRANCH   9  14
TORSDOF 7
ENDMDL
MODEL 3
REMARK VINA RESULT:      -6.1     23.062     26.045
REMARK  Name = 51136656
REMARK  8 active torsions:
REMARK  status: ('A' for Active; 'I' for Inactive)
REMARK    1  A    between atoms: O_3  and  C_18
REMARK    2  A    between atoms: O_5  and  C_26
REMARK    3  A    between atoms: O_5  and  C_32
REMARK    4  A    between atoms: C_8  and  C_13
REMARK    5  A    between atoms: C_9  and  C_14
REMARK    6  A    between atoms: C_13  and  C_15
REMARK    7  A    between atoms: C_14  and  C_18
REMARK    8  A    between atoms: C_16  and  C_22
REMARK                            x       y       z     vdW  Elec       q    Type
REMARK                         _______ _______ _______ _____ _____    ______ ____
ROOT
ATOM      2  O   UNL     1      15.004   6.780   3.040  0.00  0.00    -0.270 OA
ATOM      6  N   UNL     1      12.948   7.407   2.118  0.00  0.00    -0.297 N 
ATOM      8  C   UNL     1      10.505   7.033   1.857  0.00  0.00    +0.016 C 
ATOM      9  C   UNL     1      10.783   6.446   0.450  0.00  0.00    +0.006 C 
ATOM     10  C   UNL     1      12.201   5.857   0.354  0.00  0.00    +0.023 C 
ATOM     11  C   UNL     1      11.619   8.023   2.244  0.00  0.00    +0.112 C 
ATOM     12  C   UNL     1      13.253   6.873   0.792  0.00  0.00    +0.108 C 
ATOM     16  C   UNL     1      13.893   7.299   3.140  0.00  0.00    +0.247 C 
ENDROOT
BRANCH  16  22
ATOM      1  F   UNL     1      12.295   6.714   7.678  0.00  0.00    -0.205 F 
ATOM     22  C   UNL     1      13.552   7.846   4.457  0.00  0.00    +0.040 A 
ATOM     27  C   UNL     1      13.076   7.003   5.462  0.00  0.00    +0.051 A 
ATOM     28  C   UNL     1      13.702   9.210   4.705  0.00  0.00    +0.013 A 
ATOM     29  C   UNL     1      12.750   7.523   6.714  0.00  0.00    +0.124 A 
ATOM     30  C   UNL     1      13.376   9.732   5.958  0.00  0.00    +0.004 A 
ATOM     31  C   UNL     1      12.901   8.888   6.961  0.00  0.00    +0.038 A 
ENDBRANCH  16  22
BRANCH   8  13
ATOM     13  C   UNL     1      10.332   5.971   2.952  0.00  0.00    +0.061 C 
BRANCH  13  15
ATOM      7  N   UNL     1       8.834   7.607   3.874  0.00  0.00    -0.287 NA
ATOM     15  C   UNL     1       9.530   6.541   4.097  0.00  0.00    +0.044 C 
ATOM     17  C   UNL     1       9.583   5.860   5.416  0.00  0.00    -0.001 A 
ATOM     19  C   UNL     1       9.162   6.602   6.526  0.00  0.00    -0.033 A 
ATOM     20  C   UNL     1       8.707   8.015   6.318  0.00  0.00    +0.059 C 
ATOM     21  C   UNL     1       8.008   8.126   4.969  0.00  0.00    +0.146 C 
ATOM     23  C   UNL     1      10.040   4.550   5.571  0.00  0.00    +0.013 A 
ATOM     24  C   UNL     1       9.224   6.032   7.801  0.00  0.00    +0.050 A 
ATOM     25  C   UNL     1      10.084   3.984   6.846  0.00  0.00    +0.046 A 
ATOM     26  C   UNL     1       9.681   4.724   7.958  0.00  0.00    +0.120 A 
BRANCH  26   5
ATOM      5  O   UNL     1       9.735   4.167   9.200  0.00  0.00    -0.495 OA
ATOM     32  C   UNL     1       8.905   4.744  10.206  0.00  0.00    +0.277 C 
ENDBRANCH  26   5
ENDBRANCH  13  15
ENDBRANCH   8  13
BRANCH   9  14
ATOM     14  C   UNL     1       9.742   5.419   0.011  0.00  0.00    +0.124 C 
BRANCH  14  18
ATOM      4  O   UNL     1       9.404   4.456  -2.203  0.00  0.00    -0.251 OA
ATOM     18  C   UNL     1       9.544   5.431  -1.480  0.00  0.00    +0.305 C 
BRANCH  18   3
ATOM      3  O   UNL     1       9.540   6.711  -1.931  0.00  0.00    -0.481 OA
ATOM     33  H   UNL     1       9.697   7.354  -1.207  0.00  0.00    +0.295 HD
ENDBRANCH  18   3
ENDBRANCH  14  18
ENDBRANCH   9  14
TORSDOF 7
ENDMDL
MODEL 4
REMARK VINA RESULT:      -6.1     24.773     27.936
REMARK  Name = 51136656
REMARK  8 active torsions:
REMARK  status: ('A' for Active; 'I' for Inactive)
REMARK    1  A    between atoms: O_3  and  C_18
REMARK    2  A    between atoms: O_5  and  C_26
REMARK    3  A    between atoms: O_5  and  C_32
REMARK    4  A    between atoms: C_8  and  C_13
REMARK    5  A    between atoms: C_9  and  C_14
REMARK    6  A    between atoms: C_13  and  C_15
REMARK    7  A    between atoms: C_14  and  C_18
REMARK    8  A    between atoms: C_16  and  C_22
REMARK                            x       y       z     vdW  Elec       q    Type
REMARK                         _______ _______ _______ _____ _____    ______ ____
ROOT
ATOM      2  O   UNL     1      10.374   4.035  -0.243  0.00  0.00    -0.270 OA
ATOM      6  N   UNL     1      12.538   3.853   0.627  0.00  0.00    -0.297 N 
ATOM      8  C   UNL     1      14.699   4.909   1.253  0.00  0.00    +0.016 C 
ATOM      9  C   UNL     1      15.325   4.294  -0.024  0.00  0.00    +0.006 C 
ATOM     10  C   UNL     1      14.267   4.059  -1.116  0.00  0.00    +0.023 C 
ATOM     11  C   UNL     1      13.504   4.054   1.716  0.00  0.00    +0.112 C 
ATOM     12  C   UNL     1      13.092   3.245  -0.581  0.00  0.00    +0.108 C 
ATOM     16  C   UNL     1      11.185   4.197   0.668  0.00  0.00    +0.247 C 
ENDROOT
BRANCH  16  22
ATOM      1  F   UNL     1      10.170   3.968   5.402  0.00  0.00    -0.205 F 
ATOM     22  C   UNL     1      10.664   4.806   1.897  0.00  0.00    +0.040 A 
ATOM     27  C   UNL     1      10.665   4.083   3.089  0.00  0.00    +0.051 A 
ATOM     28  C   UNL     1      10.168   6.109   1.872  0.00  0.00    +0.013 A 
ATOM     29  C   UNL     1      10.169   4.662   4.257  0.00  0.00    +0.124 A 
ATOM     30  C   UNL     1       9.671   6.690   3.040  0.00  0.00    +0.004 A 
ATOM     31  C   UNL     1       9.673   5.965   4.232  0.00  0.00    +0.038 A 
ENDBRANCH  16  22
BRANCH   8  13
ATOM     13  C   UNL     1      14.275   6.375   1.096  0.00  0.00    +0.061 C 
BRANCH  13  15
ATOM      7  N   UNL     1      16.216   7.684   1.636  0.00  0.00    -0.287 NA
ATOM     15  C   UNL     1      15.071   7.242   2.041  0.00  0.00    +0.044 C 
ATOM     17  C   UNL     1      14.508   7.539   3.384  0.00  0.00    -0.001 A 
ATOM     19  C   UNL     1      15.405   8.000   4.355  0.00  0.00    -0.033 A 
ATOM     20  C   UNL     1      16.851   8.148   3.989  0.00  0.00    +0.059 C 
ATOM     21  C   UNL     1      16.960   8.575   2.531  0.00  0.00    +0.146 C 
ATOM     23  C   UNL     1      13.158   7.362   3.692  0.00  0.00    +0.013 A 
ATOM     24  C   UNL     1      14.946   8.260   5.650  0.00  0.00    +0.050 A 
ATOM     25  C   UNL     1      12.706   7.638   4.983  0.00  0.00    +0.046 A 
ATOM     26  C   UNL     1      13.598   8.083   5.960  0.00  0.00    +0.120 A 
BRANCH  26   5
ATOM      5  O   UNL     1      13.151   8.343   7.220  0.00  0.00    -0.495 OA
ATOM     32  C   UNL     1      12.218   9.412   7.370  0.00  0.00    +0.277 C 
ENDBRANCH  26   5
ENDBRANCH  13  15
ENDBRANCH   8  13
BRANCH   9  14
ATOM     14  C   UNL     1      16.494   5.110  -0.573  0.00  0.00    +0.124 C 
BRANCH  14  18
ATOM      4  O   UNL     1      17.524   4.577  -2.717  0.00  0.00    -0.251 OA
ATOM     18  C   UNL     1      17.323   4.312  -1.542  0.00  0.00    +0.305 C 
BRANCH  18   3
ATOM      3  O   UNL     1      17.837   3.223  -0.915  0.00  0.00    -0.481 OA
ATOM     33  H   UNL     1      17.491   2.387  -1.293  0.00  0.00    +0.295 HD
ENDBRANCH  18   3
ENDBRANCH  14  18
ENDBRANCH   9  14
TORSDOF 7
ENDMDL
MODEL 5
REMARK VINA RESULT:      -5.9     23.649     26.449
REMARK  Name = 51136656
REMARK  8 active torsions:
REMARK  status: ('A' for Active; 'I' for Inactive)
REMARK    1  A    between atoms: O_3  and  C_18
REMARK    2  A    between atoms: O_5  and  C_26
REMARK    3  A    between atoms: O_5  and  C_32
REMARK    4  A    between atoms: C_8  and  C_13
REMARK    5  A    between atoms: C_9  and  C_14
REMARK    6  A    between atoms: C_13  and  C_15
REMARK    7  A    between atoms: C_14  and  C_18
REMARK    8  A    between atoms: C_16  and  C_22
REMARK                            x       y       z     vdW  Elec       q    Type
REMARK                         _______ _______ _______ _____ _____    ______ ____
ROOT
ATOM      2  O   UNL     1      11.123  10.546   1.508  0.00  0.00    -0.270 OA
ATOM      6  N   UNL     1      11.253   8.211   1.454  0.00  0.00    -0.297 N 
ATOM      8  C   UNL     1      11.942   6.071   2.514  0.00  0.00    +0.016 C 
ATOM      9  C   UNL     1      13.133   6.008   1.524  0.00  0.00    +0.006 C 
ATOM     10  C   UNL     1      13.549   7.411   1.050  0.00  0.00    +0.023 C 
ATOM     11  C   UNL     1      10.791   6.889   1.900  0.00  0.00    +0.112 C 
ATOM     12  C   UNL     1      12.356   8.184   0.494  0.00  0.00    +0.108 C 
ATOM     16  C   UNL     1      10.735   9.438   1.875  0.00  0.00    +0.247 C 
ENDROOT
BRANCH  16  22
ATOM      1  F   UNL     1       8.530  11.225   5.803  0.00  0.00    -0.205 F 
ATOM     22  C   UNL     1       9.630   9.426   2.840  0.00  0.00    +0.040 A 
ATOM     27  C   UNL     1       9.605  10.350   3.884  0.00  0.00    +0.051 A 
ATOM     28  C   UNL     1       8.605   8.489   2.713  0.00  0.00    +0.013 A 
ATOM     29  C   UNL     1       8.555  10.338   4.802  0.00  0.00    +0.124 A 
ATOM     30  C   UNL     1       7.554   8.476   3.631  0.00  0.00    +0.004 A 
ATOM     31  C   UNL     1       7.530   9.401   4.675  0.00  0.00    +0.038 A 
ENDBRANCH  16  22
BRANCH   8  13
ATOM     13  C   UNL     1      12.311   6.625   3.897  0.00  0.00    +0.061 C 
BRANCH  13  15
ATOM      7  N   UNL     1      10.708   5.082   4.802  0.00  0.00    -0.287 NA
ATOM     15  C   UNL     1      11.245   6.254   4.898  0.00  0.00    +0.044 C 
ATOM     17  C   UNL     1      10.860   7.248   5.934  0.00  0.00    -0.001 A 
ATOM     19  C   UNL     1       9.636   7.040   6.583  0.00  0.00    -0.033 A 
ATOM     20  C   UNL     1       8.802   5.858   6.187  0.00  0.00    +0.059 C 
ATOM     21  C   UNL     1       9.716   4.699   5.812  0.00  0.00    +0.146 C 
ATOM     23  C   UNL     1      11.653   8.350   6.254  0.00  0.00    +0.013 A 
ATOM     24  C   UNL     1       9.197   7.959   7.539  0.00  0.00    +0.050 A 
ATOM     25  C   UNL     1      11.214   9.255   7.221  0.00  0.00    +0.046 A 
ATOM     26  C   UNL     1       9.988   9.063   7.860  0.00  0.00    +0.120 A 
BRANCH  26   5
ATOM      5  O   UNL     1       9.563   9.954   8.797  0.00  0.00    -0.495 OA
ATOM     32  C   UNL     1      10.484  10.970   9.190  0.00  0.00    +0.277 C 
ENDBRANCH  26   5
ENDBRANCH  13  15
ENDBRANCH   8  13
BRANCH   9  14
ATOM     14  C   UNL     1      14.336   5.248   2.078  0.00  0.00    +0.124 C 
BRANCH  14  18
ATOM      4  O   UNL     1      13.389   3.219   1.115  0.00  0.00    -0.251 OA
ATOM     18  C   UNL     1      14.289   3.790   1.712  0.00  0.00    +0.305 C 
BRANCH  18   3
ATOM      3  O   UNL     1      15.418   3.172   2.146  0.00  0.00    -0.481 OA
ATOM     33  H   UNL     1      16.198   3.413   1.603  0.00  0.00    +0.295 HD
ENDBRANCH  18   3
ENDBRANCH  14  18
ENDBRANCH   9  14
TORSDOF 7
ENDMDL
MODEL 6
REMARK VINA RESULT:      -5.8     20.944     22.768
REMARK  Name = 51136656
REMARK  8 active torsions:
REMARK  status: ('A' for Active; 'I' for Inactive)
REMARK    1  A    between atoms: O_3  and  C_18
REMARK    2  A    between atoms: O_5  and  C_26
REMARK    3  A    between atoms: O_5  and  C_32
REMARK    4  A    between atoms: C_8  and  C_13
REMARK    5  A    between atoms: C_9  and  C_14
REMARK    6  A    between atoms: C_13  and  C_15
REMARK    7  A    between atoms: C_14  and  C_18
REMARK    8  A    between atoms: C_16  and  C_22
REMARK                            x       y       z     vdW  Elec       q    Type
REMARK                         _______ _______ _______ _____ _____    ______ ____
ROOT
ATOM      2  O   UNL     1     -16.662   6.652  17.723  0.00  0.00    -0.270 OA
ATOM      6  N   UNL     1     -16.474   7.112  20.009  0.00  0.00    -0.297 N 
ATOM      8  C   UNL     1     -15.091   7.237  22.070  0.00  0.00    +0.016 C 
ATOM      9  C   UNL     1     -15.749   5.917  22.546  0.00  0.00    +0.006 C 
ATOM     10  C   UNL     1     -16.229   5.065  21.359  0.00  0.00    +0.023 C 
ATOM     11  C   UNL     1     -16.040   7.981  21.112  0.00  0.00    +0.112 C 
ATOM     12  C   UNL     1     -17.128   5.872  20.426  0.00  0.00    +0.108 C 
ATOM     16  C   UNL     1     -16.305   7.379  18.649  0.00  0.00    +0.247 C 
ENDROOT
BRANCH  16  22
ATOM      1  F   UNL     1     -13.018   9.807  16.042  0.00  0.00    -0.205 F 
ATOM     22  C   UNL     1     -15.644   8.632  18.269  0.00  0.00    +0.040 A 
ATOM     27  C   UNL     1     -14.624   8.623  17.317  0.00  0.00    +0.051 A 
ATOM     28  C   UNL     1     -16.035   9.833  18.860  0.00  0.00    +0.013 A 
ATOM     29  C   UNL     1     -13.996   9.815  16.957  0.00  0.00    +0.124 A 
ATOM     30  C   UNL     1     -15.406  11.026  18.500  0.00  0.00    +0.004 A 
ATOM     31  C   UNL     1     -14.387  11.016  17.548  0.00  0.00    +0.038 A 
ENDBRANCH  16  22
BRANCH   8  13
ATOM     13  C   UNL     1     -13.715   7.048  21.418  0.00  0.00    +0.061 C 
BRANCH  13  15
ATOM      7  N   UNL     1     -13.171   9.197  22.344  0.00  0.00    -0.287 NA
ATOM     15  C   UNL     1     -12.985   8.369  21.369  0.00  0.00    +0.044 C 
ATOM     17  C   UNL     1     -12.102   8.655  20.209  0.00  0.00    -0.001 A 
ATOM     19  C   UNL     1     -11.757   9.995  19.995  0.00  0.00    -0.033 A 
ATOM     20  C   UNL     1     -12.304  11.037  20.924  0.00  0.00    +0.059 C 
ATOM     21  C   UNL     1     -12.415  10.454  22.326  0.00  0.00    +0.146 C 
ATOM     23  C   UNL     1     -11.636   7.657  19.352  0.00  0.00    +0.013 A 
ATOM     24  C   UNL     1     -10.961  10.336  18.898  0.00  0.00    +0.050 A 
ATOM     25  C   UNL     1     -10.829   8.005  18.268  0.00  0.00    +0.046 A 
ATOM     26  C   UNL     1     -10.495   9.340  18.039  0.00  0.00    +0.120 A 
BRANCH  26   5
ATOM      5  O   UNL     1      -9.713   9.672  16.975  0.00  0.00    -0.495 OA
ATOM     32  C   UNL     1      -9.980  10.921  16.339  0.00  0.00    +0.277 C 
ENDBRANCH  26   5
ENDBRANCH  13  15
ENDBRANCH   8  13
BRANCH   9  14
ATOM     14  C   UNL     1     -14.850   5.097  23.469  0.00  0.00    +0.124 C 
BRANCH  14  18
ATOM      4  O   UNL     1     -16.477   4.616  25.220  0.00  0.00    -0.251 OA
ATOM     18  C   UNL     1     -15.653   4.233  24.403  0.00  0.00    +0.305 C 
BRANCH  18   3
ATOM      3  O   UNL     1     -15.332   2.928  24.210  0.00  0.00    -0.481 OA
ATOM     33  H   UNL     1     -16.128   2.354  24.200  0.00  0.00    +0.295 HD
ENDBRANCH  18   3
ENDBRANCH  14  18
ENDBRANCH   9  14
TORSDOF 7
ENDMDL
MODEL 7
REMARK VINA RESULT:      -5.7     23.589     25.748
REMARK  Name = 51136656
REMARK  8 active torsions:
REMARK  status: ('A' for Active; 'I' for Inactive)
REMARK    1  A    between atoms: O_3  and  C_18
REMARK    2  A    between atoms: O_5  and  C_26
REMARK    3  A    between atoms: O_5  and  C_32
REMARK    4  A    between atoms: C_8  and  C_13
REMARK    5  A    between atoms: C_9  and  C_14
REMARK    6  A    between atoms: C_13  and  C_15
REMARK    7  A    between atoms: C_14  and  C_18
REMARK    8  A    between atoms: C_16  and  C_22
REMARK                            x       y       z     vdW  Elec       q    Type
REMARK                         _______ _______ _______ _____ _____    ______ ____
ROOT
ATOM      2  O   UNL     1       9.515  10.422   7.000  0.00  0.00    -0.270 OA
ATOM      6  N   UNL     1       8.296   9.266   5.372  0.00  0.00    -0.297 N 
ATOM      8  C   UNL     1       8.220   8.031   3.216  0.00  0.00    +0.016 C 
ATOM      9  C   UNL     1       7.609   9.294   2.558  0.00  0.00    +0.006 C 
ATOM     10  C   UNL     1       8.022  10.575   3.302  0.00  0.00    +0.023 C 
ATOM     11  C   UNL     1       7.892   8.012   4.721  0.00  0.00    +0.112 C 
ATOM     12  C   UNL     1       7.710  10.474   4.793  0.00  0.00    +0.108 C 
ATOM     16  C   UNL     1       9.170   9.374   6.456  0.00  0.00    +0.247 C 
ENDROOT
BRANCH  16  22
ATOM      1  F   UNL     1       8.820   5.447   9.274  0.00  0.00    -0.205 F 
ATOM     22  C   UNL     1       9.739   8.141   7.009  0.00  0.00    +0.040 A 
ATOM     27  C   UNL     1       8.993   7.365   7.896  0.00  0.00    +0.051 A 
ATOM     28  C   UNL     1      11.026   7.744   6.648  0.00  0.00    +0.013 A 
ATOM     29  C   UNL     1       9.535   6.193   8.423  0.00  0.00    +0.124 A 
ATOM     30  C   UNL     1      11.569   6.572   7.175  0.00  0.00    +0.004 A 
ATOM     31  C   UNL     1      10.823   5.796   8.062  0.00  0.00    +0.038 A 
ENDBRANCH  16  22
BRANCH   8  13
ATOM     13  C   UNL     1       9.732   7.885   2.999  0.00  0.00    +0.061 C 
BRANCH  13  15
ATOM      7  N   UNL     1      10.238   5.731   3.935  0.00  0.00    -0.287 NA
ATOM     15  C   UNL     1      10.090   6.426   2.855  0.00  0.00    +0.044 C 
ATOM     17  C   UNL     1      10.261   5.863   1.491  0.00  0.00    -0.001 A 
ATOM     19  C   UNL     1      10.956   4.651   1.392  0.00  0.00    -0.033 A 
ATOM     20  C   UNL     1      11.485   4.019   2.644  0.00  0.00    +0.059 C 
ATOM     21  C   UNL     1      10.527   4.300   3.794  0.00  0.00    +0.146 C 
ATOM     23  C   UNL     1       9.776   6.498   0.346  0.00  0.00    +0.013 A 
ATOM     24  C   UNL     1      11.185   4.088   0.133  0.00  0.00    +0.050 A 
ATOM     25  C   UNL     1       9.997   5.921  -0.905  0.00  0.00    +0.046 A 
ATOM     26  C   UNL     1      10.702   4.722  -1.013  0.00  0.00    +0.120 A 
BRANCH  26   5
ATOM      5  O   UNL     1      10.920   4.170  -2.238  0.00  0.00    -0.495 OA
ATOM     32  C   UNL     1      11.716   2.987  -2.284  0.00  0.00    +0.277 C 
ENDBRANCH  26   5
ENDBRANCH  13  15
ENDBRANCH   8  13
BRANCH   9  14
ATOM     14  C   UNL     1       7.928   9.409   1.069  0.00  0.00    +0.124 C 
BRANCH  14  18
ATOM      4  O   UNL     1       5.534   9.614   0.659  0.00  0.00    -0.251 OA
ATOM     18  C   UNL     1       6.684   9.615   0.248  0.00  0.00    +0.305 C 
BRANCH  18   3
ATOM      3  O   UNL     1       7.021   9.811  -1.052  0.00  0.00    -0.481 OA
ATOM     33  H   UNL     1       6.562  10.589  -1.435  0.00  0.00    +0.295 HD
ENDBRANCH  18   3
ENDBRANCH  14  18
ENDBRANCH   9  14
TORSDOF 7
ENDMDL
MODEL 8
REMARK VINA RESULT:      -5.7     23.301     26.290
REMARK  Name = 51136656
REMARK  8 active torsions:
REMARK  status: ('A' for Active; 'I' for Inactive)
REMARK    1  A    between atoms: O_3  and  C_18
REMARK    2  A    between atoms: O_5  and  C_26
REMARK    3  A    between atoms: O_5  and  C_32
REMARK    4  A    between atoms: C_8  and  C_13
REMARK    5  A    between atoms: C_9  and  C_14
REMARK    6  A    between atoms: C_13  and  C_15
REMARK    7  A    between atoms: C_14  and  C_18
REMARK    8  A    between atoms: C_16  and  C_22
REMARK                            x       y       z     vdW  Elec       q    Type
REMARK                         _______ _______ _______ _____ _____    ______ ____
ROOT
ATOM      2  O   UNL     1       9.124   5.029  -1.373  0.00  0.00    -0.270 OA
ATOM      6  N   UNL     1       9.975   7.046  -0.549  0.00  0.00    -0.297 N 
ATOM      8  C   UNL     1      10.112   8.740   1.264  0.00  0.00    +0.016 C 
ATOM      9  C   UNL     1       9.176   9.652   0.430  0.00  0.00    +0.006 C 
ATOM     10  C   UNL     1       8.277   8.831  -0.509  0.00  0.00    +0.023 C 
ATOM     11  C   UNL     1      10.886   7.789   0.332  0.00  0.00    +0.112 C 
ATOM     12  C   UNL     1       9.100   7.879  -1.373  0.00  0.00    +0.108 C 
ATOM     16  C   UNL     1       9.889   5.655  -0.642  0.00  0.00    +0.247 C 
ENDROOT
BRANCH  16  22
ATOM      1  F   UNL     1      10.976   3.597   3.610  0.00  0.00    -0.205 F 
ATOM     22  C   UNL     1      10.781   4.851   0.201  0.00  0.00    +0.040 A 
ATOM     27  C   UNL     1      10.447   4.601   1.532  0.00  0.00    +0.051 A 
ATOM     28  C   UNL     1      11.963   4.336  -0.330  0.00  0.00    +0.013 A 
ATOM     29  C   UNL     1      11.296   3.837   2.332  0.00  0.00    +0.124 A 
ATOM     30  C   UNL     1      12.814   3.572   0.471  0.00  0.00    +0.004 A 
ATOM     31  C   UNL     1      12.479   3.323   1.801  0.00  0.00    +0.038 A 
ENDBRANCH  16  22
BRANCH   8  13
ATOM     13  C   UNL     1       9.391   7.942   2.358  0.00  0.00    +0.061 C 
BRANCH  13  15
ATOM      7  N   UNL     1      10.742   9.261   3.844  0.00  0.00    -0.287 NA
ATOM     15  C   UNL     1      10.069   8.168   3.688  0.00  0.00    +0.044 C 
ATOM     17  C   UNL     1       9.937   7.130   4.743  0.00  0.00    -0.001 A 
ATOM     19  C   UNL     1      10.867   7.175   5.790  0.00  0.00    -0.033 A 
ATOM     20  C   UNL     1      11.923   8.238   5.771  0.00  0.00    +0.059 C 
ATOM     21  C   UNL     1      11.350   9.508   5.156  0.00  0.00    +0.146 C 
ATOM     23  C   UNL     1       8.955   6.140   4.710  0.00  0.00    +0.013 A 
ATOM     24  C   UNL     1      10.822   6.203   6.794  0.00  0.00    +0.050 A 
ATOM     25  C   UNL     1       8.908   5.183   5.724  0.00  0.00    +0.046 A 
ATOM     26  C   UNL     1       9.841   5.212   6.761  0.00  0.00    +0.120 A 
BRANCH  26   5
ATOM      5  O   UNL     1       9.794   4.270   7.743  0.00  0.00    -0.495 OA
ATOM     32  C   UNL     1       9.534   4.727   9.069  0.00  0.00    +0.277 C 
ENDBRANCH  26   5
ENDBRANCH  13  15
ENDBRANCH   8  13
BRANCH   9  14
ATOM     14  C   UNL     1       8.338  10.598   1.288  0.00  0.00    +0.124 C 
BRANCH  14  18
ATOM      4  O   UNL     1       9.702  12.611   1.127  0.00  0.00    -0.251 OA
ATOM     18  C   UNL     1       9.154  11.753   1.801  0.00  0.00    +0.305 C 
BRANCH  18   3
ATOM      3  O   UNL     1       9.199  11.715   3.158  0.00  0.00    -0.481 OA
ATOM     33  H   UNL     1      10.121  11.716   3.492  0.00  0.00    +0.295 HD
ENDBRANCH  18   3
ENDBRANCH  14  18
ENDBRANCH   9  14
TORSDOF 7
ENDMDL
MODEL 9
REMARK VINA RESULT:      -5.7     19.754     21.319
REMARK  Name = 51136656
REMARK  8 active torsions:
REMARK  status: ('A' for Active; 'I' for Inactive)
REMARK    1  A    between atoms: O_3  and  C_18
REMARK    2  A    between atoms: O_5  and  C_26
REMARK    3  A    between atoms: O_5  and  C_32
REMARK    4  A    between atoms: C_8  and  C_13
REMARK    5  A    between atoms: C_9  and  C_14
REMARK    6  A    between atoms: C_13  and  C_15
REMARK    7  A    between atoms: C_14  and  C_18
REMARK    8  A    between atoms: C_16  and  C_22
REMARK                            x       y       z     vdW  Elec       q    Type
REMARK                         _______ _______ _______ _____ _____    ______ ____
ROOT
ATOM      2  O   UNL     1      -9.494  10.819  16.800  0.00  0.00    -0.270 OA
ATOM      6  N   UNL     1     -10.628   9.050  17.829  0.00  0.00    -0.297 N 
ATOM      8  C   UNL     1     -12.728   8.083  18.740  0.00  0.00    +0.016 C 
ATOM      9  C   UNL     1     -12.197   8.372  20.167  0.00  0.00    +0.006 C 
ATOM     10  C   UNL     1     -11.203   9.545  20.174  0.00  0.00    +0.023 C 
ATOM     11  C   UNL     1     -11.549   7.906  17.766  0.00  0.00    +0.112 C 
ATOM     12  C   UNL     1     -10.084   9.328  19.158  0.00  0.00    +0.108 C 
ATOM     16  C   UNL     1     -10.260   9.857  16.751  0.00  0.00    +0.247 C 
ENDROOT
BRANCH  16  22
ATOM      1  F   UNL     1     -10.793   6.873  12.969  0.00  0.00    -0.205 F 
ATOM     22  C   UNL     1     -10.826   9.549  15.433  0.00  0.00    +0.040 A 
ATOM     27  C   UNL     1     -10.534   8.333  14.815  0.00  0.00    +0.051 A 
ATOM     28  C   UNL     1     -11.656  10.472  14.798  0.00  0.00    +0.013 A 
ATOM     29  C   UNL     1     -11.072   8.040  13.562  0.00  0.00    +0.124 A 
ATOM     30  C   UNL     1     -12.194  10.180  13.543  0.00  0.00    +0.004 A 
ATOM     31  C   UNL     1     -11.902   8.964  12.927  0.00  0.00    +0.038 A 
ENDBRANCH  16  22
BRANCH   8  13
ATOM     13  C   UNL     1     -13.701   9.146  18.211  0.00  0.00    +0.061 C 
BRANCH  13  15
ATOM      7  N   UNL     1     -15.938   8.587  18.884  0.00  0.00    -0.287 NA
ATOM     15  C   UNL     1     -15.049   8.520  17.948  0.00  0.00    +0.044 C 
ATOM     17  C   UNL     1     -15.287   7.856  16.640  0.00  0.00    -0.001 A 
ATOM     19  C   UNL     1     -16.369   6.970  16.571  0.00  0.00    -0.033 A 
ATOM     20  C   UNL     1     -17.194   6.741  17.802  0.00  0.00    +0.059 C 
ATOM     21  C   UNL     1     -17.267   8.032  18.606  0.00  0.00    +0.146 C 
ATOM     23  C   UNL     1     -14.478   8.076  15.524  0.00  0.00    +0.013 A 
ATOM     24  C   UNL     1     -16.623   6.283  15.380  0.00  0.00    +0.050 A 
ATOM     25  C   UNL     1     -14.747   7.398  14.335  0.00  0.00    +0.046 A 
ATOM     26  C   UNL     1     -15.815   6.501  14.264  0.00  0.00    +0.120 A 
BRANCH  26   5
ATOM      5  O   UNL     1     -16.067   5.837  13.103  0.00  0.00    -0.495 OA
ATOM     32  C   UNL     1     -14.968   5.645  12.213  0.00  0.00    +0.277 C 
ENDBRANCH  26   5
ENDBRANCH  13  15
ENDBRANCH   8  13
BRANCH   9  14
ATOM     14  C   UNL     1     -13.310   8.604  21.187  0.00  0.00    +0.124 C 
BRANCH  14  18
ATOM      4  O   UNL     1     -13.462   6.239  21.757  0.00  0.00    -0.251 OA
ATOM     18  C   UNL     1     -13.998   7.319  21.562  0.00  0.00    +0.305 C 
BRANCH  18   3
ATOM      3  O   UNL     1     -15.336   7.527  21.658  0.00  0.00    -0.481 OA
ATOM     33  H   UNL     1     -15.608   7.737  22.576  0.00  0.00    +0.295 HD
ENDBRANCH  18   3
ENDBRANCH  14  18
ENDBRANCH   9  14
TORSDOF 7
ENDMDL
MODEL 10
REMARK VINA RESULT:      -5.6     24.780     27.357
REMARK  Name = 51136656
REMARK  8 active torsions:
REMARK  status: ('A' for Active; 'I' for Inactive)
REMARK    1  A    between atoms: O_3  and  C_18
REMARK    2  A    between atoms: O_5  and  C_26
REMARK    3  A    between atoms: O_5  and  C_32
REMARK    4  A    between atoms: C_8  and  C_13
REMARK    5  A    between atoms: C_9  and  C_14
REMARK    6  A    between atoms: C_13  and  C_15
REMARK    7  A    between atoms: C_14  and  C_18
REMARK    8  A    between atoms: C_16  and  C_22
REMARK                            x       y       z     vdW  Elec       q    Type
REMARK                         _______ _______ _______ _____ _____    ______ ____
ROOT
ATOM      2  O   UNL     1      14.337  11.037   5.808  0.00  0.00    -0.270 OA
ATOM      6  N   UNL     1      13.716   8.812   6.179  0.00  0.00    -0.297 N 
ATOM      8  C   UNL     1      12.424   6.800   5.502  0.00  0.00    +0.016 C 
ATOM      9  C   UNL     1      11.418   7.110   6.639  0.00  0.00    +0.006 C 
ATOM     10  C   UNL     1      11.394   8.610   6.979  0.00  0.00    +0.023 C 
ATOM     11  C   UNL     1      13.806   7.383   5.850  0.00  0.00    +0.112 C 
ATOM     12  C   UNL     1      12.797   9.134   7.271  0.00  0.00    +0.108 C 
ATOM     16  C   UNL     1      14.414   9.839   5.540  0.00  0.00    +0.247 C 
ENDROOT
BRANCH  16  22
ATOM      1  F   UNL     1      18.531   7.831   3.956  0.00  0.00    -0.205 F 
ATOM     22  C   UNL     1      15.326   9.479   4.449  0.00  0.00    +0.040 A 
ATOM     27  C   UNL     1      16.519   8.812   4.727  0.00  0.00    +0.051 A 
ATOM     28  C   UNL     1      14.999   9.803   3.132  0.00  0.00    +0.013 A 
ATOM     29  C   UNL     1      17.386   8.471   3.689  0.00  0.00    +0.124 A 
ATOM     30  C   UNL     1      15.866   9.462   2.093  0.00  0.00    +0.004 A 
ATOM     31  C   UNL     1      17.058   8.795   2.373  0.00  0.00    +0.038 A 
ENDBRANCH  16  22
BRANCH   8  13
ATOM     13  C   UNL     1      11.972   7.289   4.120  0.00  0.00    +0.061 C 
BRANCH  13  15
ATOM      7  N   UNL     1      10.548   5.626   3.133  0.00  0.00    -0.287 NA
ATOM     15  C   UNL     1      11.744   6.109   3.207  0.00  0.00    +0.044 C 
ATOM     17  C   UNL     1      12.897   5.557   2.450  0.00  0.00    -0.001 A 
ATOM     19  C   UNL     1      12.751   4.264   1.933  0.00  0.00    -0.033 A 
ATOM     20  C   UNL     1      11.470   3.527   2.186  0.00  0.00    +0.059 C 
ATOM     21  C   UNL     1      10.314   4.518   2.201  0.00  0.00    +0.146 C 
ATOM     23  C   UNL     1      14.084   6.267   2.260  0.00  0.00    +0.013 A 
ATOM     24  C   UNL     1      13.814   3.672   1.244  0.00  0.00    +0.050 A 
ATOM     25  C   UNL     1      15.135   5.674   1.558  0.00  0.00    +0.046 A 
ATOM     26  C   UNL     1      15.002   4.379   1.054  0.00  0.00    +0.120 A 
BRANCH  26   5
ATOM      5  O   UNL     1      16.034   3.805   0.377  0.00  0.00    -0.495 OA
ATOM     32  C   UNL     1      16.375   4.370  -0.887  0.00  0.00    +0.277 C 
ENDBRANCH  26   5
ENDBRANCH  13  15
ENDBRANCH   8  13
BRANCH   9  14
ATOM     14  C   UNL     1      10.007   6.601   6.349  0.00  0.00    +0.124 C 
BRANCH  14  18
ATOM      4  O   UNL     1       9.450   4.853   7.954  0.00  0.00    -0.251 OA
ATOM     18  C   UNL     1       9.814   5.192   6.838  0.00  0.00    +0.305 C 
BRANCH  18   3
ATOM      3  O   UNL     1      10.105   4.317   5.841  0.00  0.00    -0.481 OA
ATOM     33  H   UNL     1      10.243   3.408   6.181  0.00  0.00    +0.295 HD
ENDBRANCH  18   3
ENDBRANCH  14  18
ENDBRANCH   9  14
TORSDOF 7
ENDMDL
