MODEL 1
REMARK VINA RESULT:      -8.0      0.000      0.000
REMARK  Name = 51137439
REMARK  6 active torsions:
REMARK  status: ('A' for Active; 'I' for Inactive)
REMARK    1  A    between atoms: N_5  and  C_12
REMARK    2  A    between atoms: C_8  and  C_13
REMARK    3  A    between atoms: C_12  and  C_14
REMARK    4  A    between atoms: C_17  and  C_21
REMARK    5  A    between atoms: C_20  and  C_24
REMARK    6  A    between atoms: C_27  and  C_28
REMARK                            x       y       z     vdW  Elec       q    Type
REMARK                         _______ _______ _______ _____ _____    ______ ____
ROOT
ATOM      5  N   UNL     1      14.926   7.145  20.283  0.00  0.00    -0.297 NA
ATOM      8  C   UNL     1      12.881   7.101  21.430  0.00  0.00    +0.092 C 
ATOM      9  C   UNL     1      12.665   6.649  19.975  0.00  0.00    +0.029 C 
ATOM     10  C   UNL     1      14.262   7.772  21.427  0.00  0.00    +0.097 C 
ATOM     11  C   UNL     1      13.911   7.110  19.229  0.00  0.00    +0.085 C 
ENDROOT
BRANCH   8  13
ATOM      4  O   UNL     1      12.171   9.229  22.411  0.00  0.00    -0.420 OA
ATOM      6  N   UNL     1      10.512   7.755  22.130  0.00  0.00    -0.112 NA
ATOM      7  N   UNL     1       9.976   8.901  22.686  0.00  0.00    -0.107 NA
ATOM     13  C   UNL     1      11.795   7.991  21.986  0.00  0.00    +0.222 A 
ATOM     17  C   UNL     1      10.980   9.733  22.833  0.00  0.00    +0.248 A 
BRANCH  17  21
ATOM     21  C   UNL     1      11.014  11.068  23.359  0.00  0.00    +0.038 A 
ATOM     22  C   UNL     1      11.029  11.273  24.738  0.00  0.00    +0.013 A 
ATOM     23  C   UNL     1      11.036  12.159  22.491  0.00  0.00    +0.013 A 
ATOM     25  C   UNL     1      11.064  12.570  25.250  0.00  0.00    +0.004 A 
ATOM     26  C   UNL     1      11.071  13.456  23.002  0.00  0.00    +0.004 A 
ATOM     27  C   UNL     1      11.084  13.662  24.382  0.00  0.00    -0.050 A 
ATOM     28  C   UNL     1      11.121  15.049  24.929  0.00  0.00    +0.044 C 
ENDBRANCH  17  21
ENDBRANCH   8  13
BRANCH   5  12
ATOM     12  C   UNL     1      16.124   7.864  19.873  0.00  0.00    +0.119 C 
BRANCH  12  14
ATOM     14  C   UNL     1      17.373   7.065  20.133  0.00  0.00    -0.033 A 
ATOM     15  C   UNL     1      18.251   7.451  21.146  0.00  0.00    +0.005 A 
ATOM     16  C   UNL     1      17.653   5.937  19.360  0.00  0.00    +0.005 A 
ATOM     18  C   UNL     1      19.408   6.710  21.387  0.00  0.00    +0.012 A 
ATOM     19  C   UNL     1      18.811   5.196  19.600  0.00  0.00    +0.012 A 
ATOM     20  C   UNL     1      19.688   5.583  20.614  0.00  0.00    +0.055 A 
BRANCH  20  24
ATOM      1  F   UNL     1      21.994   5.182  20.121  0.00  0.00    -0.166 F 
ATOM      2  F   UNL     1      20.758   3.461  20.608  0.00  0.00    -0.166 F 
ATOM      3  F   UNL     1      21.354   4.855  22.167  0.00  0.00    -0.166 F 
ATOM     24  C   UNL     1      20.923   4.789  20.873  0.00  0.00    +0.417 C 
ENDBRANCH  20  24
ENDBRANCH  12  14
ENDBRANCH   5  12
TORSDOF 5
ENDMDL
MODEL 2
REMARK VINA RESULT:      -7.8     28.311     31.280
REMARK  Name = 51137439
REMARK  6 active torsions:
REMARK  status: ('A' for Active; 'I' for Inactive)
REMARK    1  A    between atoms: N_5  and  C_12
REMARK    2  A    between atoms: C_8  and  C_13
REMARK    3  A    between atoms: C_12  and  C_14
REMARK    4  A    between atoms: C_17  and  C_21
REMARK    5  A    between atoms: C_20  and  C_24
REMARK    6  A    between atoms: C_27  and  C_28
REMARK                            x       y       z     vdW  Elec       q    Type
REMARK                         _______ _______ _______ _____ _____    ______ ____
ROOT
ATOM      5  N   UNL     1     -16.985   3.085  26.661  0.00  0.00    -0.297 NA
ATOM      8  C   UNL     1     -16.372   4.669  25.044  0.00  0.00    +0.092 C 
ATOM      9  C   UNL     1     -17.905   4.540  25.083  0.00  0.00    +0.029 C 
ATOM     10  C   UNL     1     -15.859   3.430  25.791  0.00  0.00    +0.097 C 
ATOM     11  C   UNL     1     -18.172   3.233  25.819  0.00  0.00    +0.085 C 
ENDROOT
BRANCH   8  13
ATOM      4  O   UNL     1     -14.927   5.849  23.459  0.00  0.00    -0.420 OA
ATOM      6  N   UNL     1     -15.967   4.068  22.594  0.00  0.00    -0.112 NA
ATOM      7  N   UNL     1     -15.191   4.634  21.600  0.00  0.00    -0.107 NA
ATOM     13  C   UNL     1     -15.781   4.809  23.661  0.00  0.00    +0.222 A 
ATOM     17  C   UNL     1     -14.603   5.671  22.149  0.00  0.00    +0.248 A 
BRANCH  17  21
ATOM     21  C   UNL     1     -13.688   6.625  21.594  0.00  0.00    +0.038 A 
ATOM     22  C   UNL     1     -14.075   7.958  21.447  0.00  0.00    +0.013 A 
ATOM     23  C   UNL     1     -12.412   6.223  21.203  0.00  0.00    +0.013 A 
ATOM     25  C   UNL     1     -13.185   8.887  20.908  0.00  0.00    +0.004 A 
ATOM     26  C   UNL     1     -11.522   7.152  20.664  0.00  0.00    +0.004 A 
ATOM     27  C   UNL     1     -11.909   8.484  20.516  0.00  0.00    -0.050 A 
ATOM     28  C   UNL     1     -10.957   9.477  19.939  0.00  0.00    +0.044 C 
ENDBRANCH  17  21
ENDBRANCH   8  13
BRANCH   5  12
ATOM     12  C   UNL     1     -16.866   1.746  27.219  0.00  0.00    +0.119 C 
BRANCH  12  14
ATOM     14  C   UNL     1     -16.322   1.769  28.623  0.00  0.00    -0.033 A 
ATOM     15  C   UNL     1     -15.653   0.655  29.131  0.00  0.00    +0.005 A 
ATOM     16  C   UNL     1     -16.485   2.906  29.415  0.00  0.00    +0.005 A 
ATOM     18  C   UNL     1     -15.149   0.678  30.431  0.00  0.00    +0.012 A 
ATOM     19  C   UNL     1     -15.980   2.929  30.715  0.00  0.00    +0.012 A 
ATOM     20  C   UNL     1     -15.312   1.814  31.223  0.00  0.00    +0.055 A 
BRANCH  20  24
ATOM      1  F   UNL     1     -14.813   0.627  33.238  0.00  0.00    -0.166 F 
ATOM      2  F   UNL     1     -15.453   2.696  33.426  0.00  0.00    -0.166 F 
ATOM      3  F   UNL     1     -13.464   2.231  32.682  0.00  0.00    -0.166 F 
ATOM     24  C   UNL     1     -14.770   1.840  32.612  0.00  0.00    +0.417 C 
ENDBRANCH  20  24
ENDBRANCH  12  14
ENDBRANCH   5  12
TORSDOF 5
ENDMDL
MODEL 3
REMARK VINA RESULT:      -7.7     28.381     31.205
REMARK  Name = 51137439
REMARK  6 active torsions:
REMARK  status: ('A' for Active; 'I' for Inactive)
REMARK    1  A    between atoms: N_5  and  C_12
REMARK    2  A    between atoms: C_8  and  C_13
REMARK    3  A    between atoms: C_12  and  C_14
REMARK    4  A    between atoms: C_17  and  C_21
REMARK    5  A    between atoms: C_20  and  C_24
REMARK    6  A    between atoms: C_27  and  C_28
REMARK                            x       y       z     vdW  Elec       q    Type
REMARK                         _______ _______ _______ _____ _____    ______ ____
ROOT
ATOM      5  N   UNL     1     -16.332   4.183  23.855  0.00  0.00    -0.297 NA
ATOM      8  C   UNL     1     -16.436   2.142  25.006  0.00  0.00    +0.092 C 
ATOM      9  C   UNL     1     -17.590   2.219  23.990  0.00  0.00    +0.029 C 
ATOM     10  C   UNL     1     -15.930   3.585  25.130  0.00  0.00    +0.097 C 
ATOM     11  C   UNL     1     -17.691   3.694  23.621  0.00  0.00    +0.085 C 
ENDROOT
BRANCH   8  13
ATOM      4  O   UNL     1     -16.050   1.895  27.410  0.00  0.00    -0.420 OA
ATOM      6  N   UNL     1     -17.755   0.676  26.631  0.00  0.00    -0.112 NA
ATOM      7  N   UNL     1     -17.650   0.444  27.990  0.00  0.00    -0.107 NA
ATOM     13  C   UNL     1     -16.803   1.529  26.337  0.00  0.00    +0.222 A 
ATOM     17  C   UNL     1     -16.642   1.175  28.402  0.00  0.00    +0.248 A 
BRANCH  17  21
ATOM     21  C   UNL     1     -16.079   1.332  29.712  0.00  0.00    +0.038 A 
ATOM     22  C   UNL     1     -16.119   2.575  30.345  0.00  0.00    +0.013 A 
ATOM     23  C   UNL     1     -15.493   0.242  30.355  0.00  0.00    +0.013 A 
ATOM     25  C   UNL     1     -15.573   2.727  31.619  0.00  0.00    +0.004 A 
ATOM     26  C   UNL     1     -14.947   0.394  31.629  0.00  0.00    +0.004 A 
ATOM     27  C   UNL     1     -14.987   1.637  32.261  0.00  0.00    -0.050 A 
ATOM     28  C   UNL     1     -14.402   1.800  33.624  0.00  0.00    +0.044 C 
ENDBRANCH  17  21
ENDBRANCH   8  13
BRANCH   5  12
ATOM     12  C   UNL     1     -16.263   5.636  23.876  0.00  0.00    +0.119 C 
BRANCH  12  14
ATOM     14  C   UNL     1     -15.163   6.158  22.989  0.00  0.00    -0.033 A 
ATOM     15  C   UNL     1     -15.080   7.521  22.709  0.00  0.00    +0.005 A 
ATOM     16  C   UNL     1     -14.226   5.276  22.449  0.00  0.00    +0.005 A 
ATOM     18  C   UNL     1     -14.061   8.004  21.888  0.00  0.00    +0.012 A 
ATOM     19  C   UNL     1     -13.206   5.759  21.628  0.00  0.00    +0.012 A 
ATOM     20  C   UNL     1     -13.124   7.123  21.347  0.00  0.00    +0.055 A 
BRANCH  20  24
ATOM      1  F   UNL     1     -12.183   7.306  19.156  0.00  0.00    -0.166 F 
ATOM      2  F   UNL     1     -10.804   7.166  20.832  0.00  0.00    -0.166 F 
ATOM      3  F   UNL     1     -11.920   9.000  20.485  0.00  0.00    -0.166 F 
ATOM     24  C   UNL     1     -12.033   7.639  20.472  0.00  0.00    +0.417 C 
ENDBRANCH  20  24
ENDBRANCH  12  14
ENDBRANCH   5  12
TORSDOF 5
ENDMDL
MODEL 4
REMARK VINA RESULT:      -7.4      5.470     11.323
REMARK  Name = 51137439
REMARK  6 active torsions:
REMARK  status: ('A' for Active; 'I' for Inactive)
REMARK    1  A    between atoms: N_5  and  C_12
REMARK    2  A    between atoms: C_8  and  C_13
REMARK    3  A    between atoms: C_12  and  C_14
REMARK    4  A    between atoms: C_17  and  C_21
REMARK    5  A    between atoms: C_20  and  C_24
REMARK    6  A    between atoms: C_27  and  C_28
REMARK                            x       y       z     vdW  Elec       q    Type
REMARK                         _______ _______ _______ _____ _____    ______ ____
ROOT
ATOM      5  N   UNL     1      17.522   7.394  21.057  0.00  0.00    -0.297 NA
ATOM      8  C   UNL     1      19.501   6.382  21.806  0.00  0.00    +0.092 C 
ATOM      9  C   UNL     1      19.458   7.844  22.282  0.00  0.00    +0.029 C 
ATOM     10  C   UNL     1      18.431   6.300  20.709  0.00  0.00    +0.097 C 
ATOM     11  C   UNL     1      18.397   8.511  21.417  0.00  0.00    +0.085 C 
ENDROOT
BRANCH   8  13
ATOM      4  O   UNL     1      21.296   4.719  21.849  0.00  0.00    -0.420 OA
ATOM      6  N   UNL     1      21.702   6.464  20.511  0.00  0.00    -0.112 NA
ATOM      7  N   UNL     1      22.787   5.610  20.440  0.00  0.00    -0.107 NA
ATOM     13  C   UNL     1      20.857   5.904  21.343  0.00  0.00    +0.222 A 
ATOM     17  C   UNL     1      22.507   4.606  21.237  0.00  0.00    +0.248 A 
BRANCH  17  21
ATOM     21  C   UNL     1      23.264   3.431  21.556  0.00  0.00    +0.038 A 
ATOM     22  C   UNL     1      24.083   2.846  20.589  0.00  0.00    +0.013 A 
ATOM     23  C   UNL     1      23.184   2.873  22.831  0.00  0.00    +0.013 A 
ATOM     25  C   UNL     1      24.820   1.704  20.898  0.00  0.00    +0.004 A 
ATOM     26  C   UNL     1      23.921   1.730  23.140  0.00  0.00    +0.004 A 
ATOM     27  C   UNL     1      24.739   1.145  22.173  0.00  0.00    -0.050 A 
ATOM     28  C   UNL     1      25.527  -0.077  22.504  0.00  0.00    +0.044 C 
ENDBRANCH  17  21
ENDBRANCH   8  13
BRANCH   5  12
ATOM     12  C   UNL     1      16.614   7.730  19.970  0.00  0.00    +0.119 C 
BRANCH  12  14
ATOM     14  C   UNL     1      15.173   7.632  20.393  0.00  0.00    -0.033 A 
ATOM     15  C   UNL     1      14.746   8.255  21.566  0.00  0.00    +0.005 A 
ATOM     16  C   UNL     1      14.263   6.920  19.611  0.00  0.00    +0.005 A 
ATOM     18  C   UNL     1      13.410   8.165  21.957  0.00  0.00    +0.012 A 
ATOM     19  C   UNL     1      12.927   6.830  20.002  0.00  0.00    +0.012 A 
ATOM     20  C   UNL     1      12.501   7.452  21.175  0.00  0.00    +0.055 A 
BRANCH  20  24
ATOM      1  F   UNL     1      10.813   7.947  22.796  0.00  0.00    -0.166 F 
ATOM      2  F   UNL     1      10.646   6.068  21.716  0.00  0.00    -0.166 F 
ATOM      3  F   UNL     1      10.207   7.947  20.714  0.00  0.00    -0.166 F 
ATOM     24  C   UNL     1      11.072   7.358  21.592  0.00  0.00    +0.417 C 
ENDBRANCH  20  24
ENDBRANCH  12  14
ENDBRANCH   5  12
TORSDOF 5
ENDMDL
MODEL 5
REMARK VINA RESULT:      -7.4     27.431     30.227
REMARK  Name = 51137439
REMARK  6 active torsions:
REMARK  status: ('A' for Active; 'I' for Inactive)
REMARK    1  A    between atoms: N_5  and  C_12
REMARK    2  A    between atoms: C_8  and  C_13
REMARK    3  A    between atoms: C_12  and  C_14
REMARK    4  A    between atoms: C_17  and  C_21
REMARK    5  A    between atoms: C_20  and  C_24
REMARK    6  A    between atoms: C_27  and  C_28
REMARK                            x       y       z     vdW  Elec       q    Type
REMARK                         _______ _______ _______ _____ _____    ______ ____
ROOT
ATOM      5  N   UNL     1     -15.072   5.976  22.113  0.00  0.00    -0.297 NA
ATOM      8  C   UNL     1     -15.784   4.262  23.546  0.00  0.00    +0.092 C 
ATOM      9  C   UNL     1     -16.739   4.357  22.344  0.00  0.00    +0.029 C 
ATOM     10  C   UNL     1     -14.994   5.577  23.519  0.00  0.00    +0.097 C 
ATOM     11  C   UNL     1     -16.460   5.721  21.725  0.00  0.00    +0.085 C 
ENDROOT
BRANCH   8  13
ATOM      4  O   UNL     1     -15.721   3.368  25.824  0.00  0.00    -0.420 OA
ATOM      6  N   UNL     1     -17.672   4.308  25.267  0.00  0.00    -0.112 NA
ATOM      7  N   UNL     1     -17.774   3.850  26.567  0.00  0.00    -0.107 NA
ATOM     13  C   UNL     1     -16.457   4.006  24.874  0.00  0.00    +0.222 A 
ATOM     17  C   UNL     1     -16.613   3.308  26.850  0.00  0.00    +0.248 A 
BRANCH  17  21
ATOM     21  C   UNL     1     -16.147   2.677  28.051  0.00  0.00    +0.038 A 
ATOM     22  C   UNL     1     -15.345   3.386  28.945  0.00  0.00    +0.013 A 
ATOM     23  C   UNL     1     -16.498   1.356  28.326  0.00  0.00    +0.013 A 
ATOM     25  C   UNL     1     -14.892   2.773  30.113  0.00  0.00    +0.004 A 
ATOM     26  C   UNL     1     -16.046   0.743  29.494  0.00  0.00    +0.004 A 
ATOM     27  C   UNL     1     -15.242   1.452  30.388  0.00  0.00    -0.050 A 
ATOM     28  C   UNL     1     -14.758   0.796  31.637  0.00  0.00    +0.044 C 
ENDBRANCH  17  21
ENDBRANCH   8  13
BRANCH   5  12
ATOM     12  C   UNL     1     -14.687   7.365  21.906  0.00  0.00    +0.119 C 
BRANCH  12  14
ATOM     14  C   UNL     1     -13.697   7.510  20.781  0.00  0.00    -0.033 A 
ATOM     15  C   UNL     1     -14.112   8.007  19.546  0.00  0.00    +0.005 A 
ATOM     16  C   UNL     1     -12.363   7.150  20.976  0.00  0.00    +0.005 A 
ATOM     18  C   UNL     1     -13.194   8.142  18.504  0.00  0.00    +0.012 A 
ATOM     19  C   UNL     1     -11.445   7.285  19.934  0.00  0.00    +0.012 A 
ATOM     20  C   UNL     1     -11.861   7.781  18.698  0.00  0.00    +0.055 A 
BRANCH  20  24
ATOM      1  F   UNL     1     -11.440   8.344  16.412  0.00  0.00    -0.166 F 
ATOM      2  F   UNL     1     -10.240   6.759  17.292  0.00  0.00    -0.166 F 
ATOM      3  F   UNL     1      -9.888   8.832  17.847  0.00  0.00    -0.166 F 
ATOM     24  C   UNL     1     -10.879   7.929  17.586  0.00  0.00    +0.417 C 
ENDBRANCH  20  24
ENDBRANCH  12  14
ENDBRANCH   5  12
TORSDOF 5
ENDMDL
MODEL 6
REMARK VINA RESULT:      -7.3     27.962     30.265
REMARK  Name = 51137439
REMARK  6 active torsions:
REMARK  status: ('A' for Active; 'I' for Inactive)
REMARK    1  A    between atoms: N_5  and  C_12
REMARK    2  A    between atoms: C_8  and  C_13
REMARK    3  A    between atoms: C_12  and  C_14
REMARK    4  A    between atoms: C_17  and  C_21
REMARK    5  A    between atoms: C_20  and  C_24
REMARK    6  A    between atoms: C_27  and  C_28
REMARK                            x       y       z     vdW  Elec       q    Type
REMARK                         _______ _______ _______ _____ _____    ______ ____
ROOT
ATOM      5  N   UNL     1      -7.244  -9.510   8.165  0.00  0.00    -0.297 NA
ATOM      8  C   UNL     1      -8.954  -8.082   8.898  0.00  0.00    +0.092 C 
ATOM      9  C   UNL     1      -9.468  -8.945   7.733  0.00  0.00    +0.029 C 
ATOM     10  C   UNL     1      -7.427  -8.224   8.843  0.00  0.00    +0.097 C 
ATOM     11  C   UNL     1      -8.214  -9.500   7.070  0.00  0.00    +0.085 C 
ENDROOT
BRANCH   8  13
ATOM      4  O   UNL     1     -10.623  -6.373   9.433  0.00  0.00    -0.420 OA
ATOM      6  N   UNL     1      -8.813  -5.582   8.384  0.00  0.00    -0.112 NA
ATOM      7  N   UNL     1      -9.666  -4.521   8.624  0.00  0.00    -0.107 NA
ATOM     13  C   UNL     1      -9.412  -6.642   8.873  0.00  0.00    +0.222 A 
ATOM     17  C   UNL     1     -10.709  -5.029   9.237  0.00  0.00    +0.248 A 
BRANCH  17  21
ATOM     21  C   UNL     1     -11.901  -4.398   9.724  0.00  0.00    +0.038 A 
ATOM     22  C   UNL     1     -12.953  -4.125   8.850  0.00  0.00    +0.013 A 
ATOM     23  C   UNL     1     -12.010  -4.059  11.073  0.00  0.00    +0.013 A 
ATOM     25  C   UNL     1     -14.113  -3.513   9.323  0.00  0.00    +0.004 A 
ATOM     26  C   UNL     1     -13.170  -3.447  11.546  0.00  0.00    +0.004 A 
ATOM     27  C   UNL     1     -14.221  -3.173  10.671  0.00  0.00    -0.050 A 
ATOM     28  C   UNL     1     -15.462  -2.517  11.178  0.00  0.00    +0.044 C 
ENDBRANCH  17  21
ENDBRANCH   8  13
BRANCH   5  12
ATOM     12  C   UNL     1      -5.880  -9.701   7.695  0.00  0.00    +0.119 C 
BRANCH  12  14
ATOM     14  C   UNL     1      -4.915  -9.892   8.835  0.00  0.00    -0.033 A 
ATOM     15  C   UNL     1      -3.977  -8.902   9.128  0.00  0.00    +0.005 A 
ATOM     16  C   UNL     1      -4.961 -11.058   9.600  0.00  0.00    +0.005 A 
ATOM     18  C   UNL     1      -3.083  -9.079  10.185  0.00  0.00    +0.012 A 
ATOM     19  C   UNL     1      -4.068 -11.234  10.657  0.00  0.00    +0.012 A 
ATOM     20  C   UNL     1      -3.129 -10.245  10.949  0.00  0.00    +0.055 A 
BRANCH  20  24
ATOM      1  F   UNL     1      -2.742 -10.246  13.309  0.00  0.00    -0.166 F 
ATOM      2  F   UNL     1      -1.123  -9.566  12.028  0.00  0.00    -0.166 F 
ATOM      3  F   UNL     1      -1.623 -11.680  12.128  0.00  0.00    -0.166 F 
ATOM     24  C   UNL     1      -2.176 -10.432  12.080  0.00  0.00    +0.417 C 
ENDBRANCH  20  24
ENDBRANCH  12  14
ENDBRANCH   5  12
TORSDOF 5
ENDMDL
MODEL 7
REMARK VINA RESULT:      -7.2     26.890     29.093
REMARK  Name = 51137439
REMARK  6 active torsions:
REMARK  status: ('A' for Active; 'I' for Inactive)
REMARK    1  A    between atoms: N_5  and  C_12
REMARK    2  A    between atoms: C_8  and  C_13
REMARK    3  A    between atoms: C_12  and  C_14
REMARK    4  A    between atoms: C_17  and  C_21
REMARK    5  A    between atoms: C_20  and  C_24
REMARK    6  A    between atoms: C_27  and  C_28
REMARK                            x       y       z     vdW  Elec       q    Type
REMARK                         _______ _______ _______ _____ _____    ______ ____
ROOT
ATOM      5  N   UNL     1      -2.121 -11.075  14.062  0.00  0.00    -0.297 NA
ATOM      8  C   UNL     1      -3.285 -10.355  15.966  0.00  0.00    +0.092 C 
ATOM      9  C   UNL     1      -1.797 -10.542  16.312  0.00  0.00    +0.029 C 
ATOM     10  C   UNL     1      -3.469 -11.093  14.633  0.00  0.00    +0.097 C 
ATOM     11  C   UNL     1      -1.233 -11.391  15.181  0.00  0.00    +0.085 C 
ENDROOT
BRANCH   8  13
ATOM      4  O   UNL     1      -5.519 -10.335  16.967  0.00  0.00    -0.420 OA
ATOM      6  N   UNL     1      -4.050 -11.634  18.043  0.00  0.00    -0.112 NA
ATOM      7  N   UNL     1      -5.258 -11.715  18.708  0.00  0.00    -0.107 NA
ATOM     13  C   UNL     1      -4.248 -10.819  17.034  0.00  0.00    +0.222 A 
ATOM     17  C   UNL     1      -6.086 -10.941  18.046  0.00  0.00    +0.248 A 
BRANCH  17  21
ATOM     21  C   UNL     1      -7.469 -10.642  18.278  0.00  0.00    +0.038 A 
ATOM     22  C   UNL     1      -8.145 -11.247  19.338  0.00  0.00    +0.013 A 
ATOM     23  C   UNL     1      -8.139  -9.746  17.446  0.00  0.00    +0.013 A 
ATOM     25  C   UNL     1      -9.489 -10.956  19.565  0.00  0.00    +0.004 A 
ATOM     26  C   UNL     1      -9.484  -9.455  17.673  0.00  0.00    +0.004 A 
ATOM     27  C   UNL     1     -10.159 -10.061  18.733  0.00  0.00    -0.050 A 
ATOM     28  C   UNL     1     -11.598  -9.750  18.975  0.00  0.00    +0.044 C 
ENDBRANCH  17  21
ENDBRANCH   8  13
BRANCH   5  12
ATOM     12  C   UNL     1      -1.973 -12.011  12.957  0.00  0.00    +0.119 C 
BRANCH  12  14
ATOM     14  C   UNL     1      -2.733 -11.562  11.737  0.00  0.00    -0.033 A 
ATOM     15  C   UNL     1      -2.641 -10.240  11.304  0.00  0.00    +0.005 A 
ATOM     16  C   UNL     1      -3.530 -12.471  11.039  0.00  0.00    +0.005 A 
ATOM     18  C   UNL     1      -3.345  -9.825  10.174  0.00  0.00    +0.012 A 
ATOM     19  C   UNL     1      -4.234 -12.056   9.908  0.00  0.00    +0.012 A 
ATOM     20  C   UNL     1      -4.141 -10.732   9.476  0.00  0.00    +0.055 A 
BRANCH  20  24
ATOM      1  F   UNL     1      -6.246 -10.422   8.382  0.00  0.00    -0.166 F 
ATOM      2  F   UNL     1      -4.550 -10.996   7.149  0.00  0.00    -0.166 F 
ATOM      3  F   UNL     1      -4.688  -8.978   7.946  0.00  0.00    -0.166 F 
ATOM     24  C   UNL     1      -4.892 -10.290   8.266  0.00  0.00    +0.417 C 
ENDBRANCH  20  24
ENDBRANCH  12  14
ENDBRANCH   5  12
TORSDOF 5
ENDMDL
MODEL 8
REMARK VINA RESULT:      -7.2      5.049      7.402
REMARK  Name = 51137439
REMARK  6 active torsions:
REMARK  status: ('A' for Active; 'I' for Inactive)
REMARK    1  A    between atoms: N_5  and  C_12
REMARK    2  A    between atoms: C_8  and  C_13
REMARK    3  A    between atoms: C_12  and  C_14
REMARK    4  A    between atoms: C_17  and  C_21
REMARK    5  A    between atoms: C_20  and  C_24
REMARK    6  A    between atoms: C_27  and  C_28
REMARK                            x       y       z     vdW  Elec       q    Type
REMARK                         _______ _______ _______ _____ _____    ______ ____
ROOT
ATOM      5  N   UNL     1      14.042   8.102  19.625  0.00  0.00    -0.297 NA
ATOM      8  C   UNL     1      13.998   9.929  18.155  0.00  0.00    +0.092 C 
ATOM      9  C   UNL     1      12.597   9.716  18.753  0.00  0.00    +0.029 C 
ATOM     10  C   UNL     1      14.751   8.626  18.456  0.00  0.00    +0.097 C 
ATOM     11  C   UNL     1      12.623   8.306  19.329  0.00  0.00    +0.085 C 
ENDROOT
BRANCH   8  13
ATOM      4  O   UNL     1      15.185  10.775  16.188  0.00  0.00    -0.420 OA
ATOM      6  N   UNL     1      13.054  10.220  15.798  0.00  0.00    -0.112 NA
ATOM      7  N   UNL     1      13.600  10.677  14.613  0.00  0.00    -0.107 NA
ATOM     13  C   UNL     1      14.015  10.294  16.689  0.00  0.00    +0.222 A 
ATOM     17  C   UNL     1      14.845  10.991  14.888  0.00  0.00    +0.248 A 
BRANCH  17  21
ATOM     21  C   UNL     1      15.881  11.514  14.046  0.00  0.00    +0.038 A 
ATOM     22  C   UNL     1      17.143  11.782  14.579  0.00  0.00    +0.013 A 
ATOM     23  C   UNL     1      15.630  11.752  12.696  0.00  0.00    +0.013 A 
ATOM     25  C   UNL     1      18.151  12.290  13.760  0.00  0.00    +0.004 A 
ATOM     26  C   UNL     1      16.638  12.260  11.877  0.00  0.00    +0.004 A 
ATOM     27  C   UNL     1      17.899  12.529  12.410  0.00  0.00    -0.050 A 
ATOM     28  C   UNL     1      18.978  13.073  11.534  0.00  0.00    +0.044 C 
ENDBRANCH  17  21
ENDBRANCH   8  13
BRANCH   5  12
ATOM     12  C   UNL     1      14.357   6.706  19.887  0.00  0.00    +0.119 C 
BRANCH  12  14
ATOM     14  C   UNL     1      15.835   6.493  20.086  0.00  0.00    -0.033 A 
ATOM     15  C   UNL     1      16.435   6.848  21.293  0.00  0.00    +0.005 A 
ATOM     16  C   UNL     1      16.603   5.939  19.061  0.00  0.00    +0.005 A 
ATOM     18  C   UNL     1      17.804   6.649  21.477  0.00  0.00    +0.012 A 
ATOM     19  C   UNL     1      17.972   5.740  19.244  0.00  0.00    +0.012 A 
ATOM     20  C   UNL     1      18.572   6.096  20.453  0.00  0.00    +0.055 A 
BRANCH  20  24
ATOM      1  F   UNL     1      20.400   5.778  21.961  0.00  0.00    -0.166 F 
ATOM      2  F   UNL     1      20.787   6.897  20.138  0.00  0.00    -0.166 F 
ATOM      3  F   UNL     1      20.504   4.743  20.059  0.00  0.00    -0.166 F 
ATOM     24  C   UNL     1      20.034   5.881  20.650  0.00  0.00    +0.417 C 
ENDBRANCH  20  24
ENDBRANCH  12  14
ENDBRANCH   5  12
TORSDOF 5
ENDMDL
MODEL 9
REMARK VINA RESULT:      -7.2     27.246     29.837
REMARK  Name = 51137439
REMARK  6 active torsions:
REMARK  status: ('A' for Active; 'I' for Inactive)
REMARK    1  A    between atoms: N_5  and  C_12
REMARK    2  A    between atoms: C_8  and  C_13
REMARK    3  A    between atoms: C_12  and  C_14
REMARK    4  A    between atoms: C_17  and  C_21
REMARK    5  A    between atoms: C_20  and  C_24
REMARK    6  A    between atoms: C_27  and  C_28
REMARK                            x       y       z     vdW  Elec       q    Type
REMARK                         _______ _______ _______ _____ _____    ______ ____
ROOT
ATOM      5  N   UNL     1     -13.257   7.446  33.429  0.00  0.00    -0.297 NA
ATOM      8  C   UNL     1     -11.585   8.843  32.562  0.00  0.00    +0.092 C 
ATOM      9  C   UNL     1     -11.867   9.226  34.025  0.00  0.00    +0.029 C 
ATOM     10  C   UNL     1     -12.782   7.976  32.149  0.00  0.00    +0.097 C 
ATOM     11  C   UNL     1     -13.210   8.583  34.348  0.00  0.00    +0.085 C 
ENDROOT
BRANCH   8  13
ATOM      4  O   UNL     1     -11.589   9.800  30.309  0.00  0.00    -0.420 OA
ATOM      6  N   UNL     1     -10.957  11.232  31.906  0.00  0.00    -0.112 NA
ATOM      7  N   UNL     1     -10.915  11.897  30.695  0.00  0.00    -0.107 NA
ATOM     13  C   UNL     1     -11.356  10.012  31.633  0.00  0.00    +0.222 A 
ATOM     17  C   UNL     1     -11.291  11.023  29.792  0.00  0.00    +0.248 A 
BRANCH  17  21
ATOM     21  C   UNL     1     -11.435  11.156  28.371  0.00  0.00    +0.038 A 
ATOM     22  C   UNL     1     -10.773  10.273  27.518  0.00  0.00    +0.013 A 
ATOM     23  C   UNL     1     -12.238  12.166  27.842  0.00  0.00    +0.013 A 
ATOM     25  C   UNL     1     -10.914  10.401  26.136  0.00  0.00    +0.004 A 
ATOM     26  C   UNL     1     -12.378  12.294  26.461  0.00  0.00    +0.004 A 
ATOM     27  C   UNL     1     -11.716  11.411  25.607  0.00  0.00    -0.050 A 
ATOM     28  C   UNL     1     -11.866  11.549  24.130  0.00  0.00    +0.044 C 
ENDBRANCH  17  21
ENDBRANCH   8  13
BRANCH   5  12
ATOM     12  C   UNL     1     -14.589   6.868  33.330  0.00  0.00    +0.119 C 
BRANCH  12  14
ATOM     14  C   UNL     1     -14.607   5.645  32.453  0.00  0.00    -0.033 A 
ATOM     15  C   UNL     1     -15.446   5.596  31.340  0.00  0.00    +0.005 A 
ATOM     16  C   UNL     1     -13.782   4.560  32.753  0.00  0.00    +0.005 A 
ATOM     18  C   UNL     1     -15.461   4.462  30.527  0.00  0.00    +0.012 A 
ATOM     19  C   UNL     1     -13.797   3.427  31.940  0.00  0.00    +0.012 A 
ATOM     20  C   UNL     1     -14.637   3.378  30.827  0.00  0.00    +0.055 A 
BRANCH  20  24
ATOM      1  F   UNL     1     -13.426   1.577  29.821  0.00  0.00    -0.166 F 
ATOM      2  F   UNL     1     -15.067   2.440  28.686  0.00  0.00    -0.166 F 
ATOM      3  F   UNL     1     -15.476   1.178  30.408  0.00  0.00    -0.166 F 
ATOM     24  C   UNL     1     -14.650   2.167  29.956  0.00  0.00    +0.417 C 
ENDBRANCH  20  24
ENDBRANCH  12  14
ENDBRANCH   5  12
TORSDOF 5
ENDMDL
MODEL 10
REMARK VINA RESULT:      -7.2      5.906     10.998
REMARK  Name = 51137439
REMARK  6 active torsions:
REMARK  status: ('A' for Active; 'I' for Inactive)
REMARK    1  A    between atoms: N_5  and  C_12
REMARK    2  A    between atoms: C_8  and  C_13
REMARK    3  A    between atoms: C_12  and  C_14
REMARK    4  A    between atoms: C_17  and  C_21
REMARK    5  A    between atoms: C_20  and  C_24
REMARK    6  A    between atoms: C_27  and  C_28
REMARK                            x       y       z     vdW  Elec       q    Type
REMARK                         _______ _______ _______ _____ _____    ______ ____
ROOT
ATOM      5  N   UNL     1      17.130   7.605  20.687  0.00  0.00    -0.297 NA
ATOM      8  C   UNL     1      19.323   6.800  20.901  0.00  0.00    +0.092 C 
ATOM      9  C   UNL     1      18.500   5.828  20.038  0.00  0.00    +0.029 C 
ATOM     10  C   UNL     1      18.277   7.685  21.594  0.00  0.00    +0.097 C 
ATOM     11  C   UNL     1      17.046   6.193  20.309  0.00  0.00    +0.085 C 
ENDROOT
BRANCH   8  13
ATOM      4  O   UNL     1      21.027   5.113  21.393  0.00  0.00    -0.420 OA
ATOM      6  N   UNL     1      20.489   6.402  23.140  0.00  0.00    -0.112 NA
ATOM      7  N   UNL     1      21.454   5.503  23.554  0.00  0.00    -0.107 NA
ATOM     13  C   UNL     1      20.272   6.139  21.873  0.00  0.00    +0.222 A 
ATOM     17  C   UNL     1      21.737   4.770  22.502  0.00  0.00    +0.248 A 
BRANCH  17  21
ATOM     21  C   UNL     1      22.663   3.687  22.345  0.00  0.00    +0.038 A 
ATOM     22  C   UNL     1      22.765   3.030  21.118  0.00  0.00    +0.013 A 
ATOM     23  C   UNL     1      23.463   3.290  23.416  0.00  0.00    +0.013 A 
ATOM     25  C   UNL     1      23.666   1.977  20.963  0.00  0.00    +0.004 A 
ATOM     26  C   UNL     1      24.364   2.237  23.262  0.00  0.00    +0.004 A 
ATOM     27  C   UNL     1      24.465   1.580  22.035  0.00  0.00    -0.050 A 
ATOM     28  C   UNL     1      25.428   0.453  21.870  0.00  0.00    +0.044 C 
ENDBRANCH  17  21
ENDBRANCH   8  13
BRANCH   5  12
ATOM     12  C   UNL     1      15.902   8.087  21.301  0.00  0.00    +0.119 C 
BRANCH  12  14
ATOM     14  C   UNL     1      14.779   8.189  20.302  0.00  0.00    -0.033 A 
ATOM     15  C   UNL     1      14.813   9.171  19.312  0.00  0.00    +0.005 A 
ATOM     16  C   UNL     1      13.705   7.300  20.367  0.00  0.00    +0.005 A 
ATOM     18  C   UNL     1      13.773   9.265  18.387  0.00  0.00    +0.012 A 
ATOM     19  C   UNL     1      12.665   7.394  19.442  0.00  0.00    +0.012 A 
ATOM     20  C   UNL     1      12.699   8.377  18.453  0.00  0.00    +0.055 A 
BRANCH  20  24
ATOM      1  F   UNL     1      11.343   7.307  16.798  0.00  0.00    -0.166 F 
ATOM      2  F   UNL     1      11.833   9.403  16.491  0.00  0.00    -0.166 F 
ATOM      3  F   UNL     1      10.392   8.829  18.016  0.00  0.00    -0.166 F 
ATOM     24  C   UNL     1      11.589   8.475  17.462  0.00  0.00    +0.417 C 
ENDBRANCH  20  24
ENDBRANCH  12  14
ENDBRANCH   5  12
TORSDOF 5
ENDMDL
