MODEL 1
REMARK VINA RESULT:      -7.1      0.000      0.000
REMARK  Name = 51136660
REMARK  10 active torsions:
REMARK  status: ('A' for Active; 'I' for Inactive)
REMARK    1  A    between atoms: O_2  and  C_18
REMARK    2  A    between atoms: O_4  and  C_22
REMARK    3  A    between atoms: O_4  and  C_27
REMARK    4  A    between atoms: O_5  and  C_26
REMARK    5  A    between atoms: O_5  and  C_28
REMARK    6  A    between atoms: C_8  and  C_13
REMARK    7  A    between atoms: C_9  and  C_14
REMARK    8  A    between atoms: C_13  and  C_15
REMARK    9  A    between atoms: C_14  and  C_18
REMARK   10  A    between atoms: C_16  and  C_22
REMARK                            x       y       z     vdW  Elec       q    Type
REMARK                         _______ _______ _______ _____ _____    ______ ____
ROOT
ATOM      1  O   UNL     1      12.879   8.766  15.072  0.00  0.00    -0.273 OA
ATOM      6  N   UNL     1      12.771   9.435  17.294  0.00  0.00    -0.299 N 
ATOM      8  C   UNL     1      13.607   9.384  19.633  0.00  0.00    +0.016 C 
ATOM      9  C   UNL     1      12.415   8.462  19.999  0.00  0.00    +0.006 C 
ATOM     10  C   UNL     1      11.925   7.661  18.781  0.00  0.00    +0.023 C 
ATOM     11  C   UNL     1      13.240  10.255  18.418  0.00  0.00    +0.112 C 
ATOM     12  C   UNL     1      11.625   8.577  17.598  0.00  0.00    +0.108 C 
ATOM     16  C   UNL     1      13.307   9.446  16.007  0.00  0.00    +0.241 C 
ENDROOT
BRANCH   8  13
ATOM     13  C   UNL     1      14.918   8.632  19.372  0.00  0.00    +0.061 C 
BRANCH  13  15
ATOM      7  N   UNL     1      15.754  10.138  21.047  0.00  0.00    -0.287 NA
ATOM     15  C   UNL     1      15.956   9.044  20.389  0.00  0.00    +0.044 C 
ATOM     17  C   UNL     1      17.153   8.185  20.577  0.00  0.00    -0.001 A 
ATOM     19  C   UNL     1      18.254   8.770  21.217  0.00  0.00    -0.033 A 
ATOM     20  C   UNL     1      18.161  10.203  21.648  0.00  0.00    +0.059 C 
ATOM     21  C   UNL     1      16.731  10.506  22.078  0.00  0.00    +0.146 C 
ATOM     23  C   UNL     1      17.209   6.862  20.136  0.00  0.00    +0.013 A 
ATOM     24  C   UNL     1      19.426   8.027  21.388  0.00  0.00    +0.050 A 
ATOM     25  C   UNL     1      18.379   6.124  20.326  0.00  0.00    +0.046 A 
ATOM     26  C   UNL     1      19.484   6.705  20.948  0.00  0.00    +0.120 A 
BRANCH  26   5
ATOM      5  O   UNL     1      20.624   5.981  21.122  0.00  0.00    -0.495 OA
ATOM     28  C   UNL     1      20.698   4.718  20.462  0.00  0.00    +0.277 C 
ENDBRANCH  26   5
ENDBRANCH  13  15
ENDBRANCH   8  13
BRANCH   9  14
ATOM     14  C   UNL     1      12.714   7.530  21.173  0.00  0.00    +0.124 C 
BRANCH  14  18
ATOM      3  O   UNL     1      10.411   7.211  21.903  0.00  0.00    -0.251 OA
ATOM     18  C   UNL     1      11.498   6.750  21.587  0.00  0.00    +0.305 C 
BRANCH  18   2
ATOM      2  O   UNL     1      11.775   5.421  21.562  0.00  0.00    -0.481 OA
ATOM     29  H   UNL     1      12.302   5.142  22.340  0.00  0.00    +0.295 HD
ENDBRANCH  18   2
ENDBRANCH  14  18
ENDBRANCH   9  14
BRANCH  16  22
ATOM     22  C   UNL     1      14.489  10.355  15.775  0.00  0.00    +0.255 C 
BRANCH  22   4
ATOM      4  O   UNL     1      14.413  10.781  14.436  0.00  0.00    -0.374 OA
ATOM     27  C   UNL     1      13.956  12.128  14.327  0.00  0.00    +0.194 C 
ENDBRANCH  22   4
ENDBRANCH  16  22
TORSDOF 8
ENDMDL
MODEL 2
REMARK VINA RESULT:      -6.6      2.163      2.577
REMARK  Name = 51136660
REMARK  10 active torsions:
REMARK  status: ('A' for Active; 'I' for Inactive)
REMARK    1  A    between atoms: O_2  and  C_18
REMARK    2  A    between atoms: O_4  and  C_22
REMARK    3  A    between atoms: O_4  and  C_27
REMARK    4  A    between atoms: O_5  and  C_26
REMARK    5  A    between atoms: O_5  and  C_28
REMARK    6  A    between atoms: C_8  and  C_13
REMARK    7  A    between atoms: C_9  and  C_14
REMARK    8  A    between atoms: C_13  and  C_15
REMARK    9  A    between atoms: C_14  and  C_18
REMARK   10  A    between atoms: C_16  and  C_22
REMARK                            x       y       z     vdW  Elec       q    Type
REMARK                         _______ _______ _______ _____ _____    ______ ____
ROOT
ATOM      1  O   UNL     1      12.011   6.900  17.455  0.00  0.00    -0.273 OA
ATOM      6  N   UNL     1      12.241   8.797  18.776  0.00  0.00    -0.299 N 
ATOM      8  C   UNL     1      13.085   9.956  20.806  0.00  0.00    +0.016 C 
ATOM      9  C   UNL     1      11.650   9.894  21.391  0.00  0.00    +0.006 C 
ATOM     10  C   UNL     1      10.852   8.715  20.810  0.00  0.00    +0.023 C 
ATOM     11  C   UNL     1      13.022   9.939  19.268  0.00  0.00    +0.112 C 
ATOM     12  C   UNL     1      10.871   8.729  19.284  0.00  0.00    +0.108 C 
ATOM     16  C   UNL     1      12.696   7.837  17.873  0.00  0.00    +0.241 C 
ENDROOT
BRANCH   8  13
ATOM     13  C   UNL     1      14.011   8.844  21.314  0.00  0.00    +0.061 C 
BRANCH  13  15
ATOM      7  N   UNL     1      15.405  10.639  22.097  0.00  0.00    -0.287 NA
ATOM     15  C   UNL     1      15.363   9.423  21.659  0.00  0.00    +0.044 C 
ATOM     17  C   UNL     1      16.570   8.579  21.474  0.00  0.00    -0.001 A 
ATOM     19  C   UNL     1      17.803   9.243  21.426  0.00  0.00    -0.033 A 
ATOM     20  C   UNL     1      17.822  10.738  21.547  0.00  0.00    +0.059 C 
ATOM     21  C   UNL     1      16.710  11.180  22.490  0.00  0.00    +0.146 C 
ATOM     23  C   UNL     1      16.508   7.190  21.338  0.00  0.00    +0.013 A 
ATOM     24  C   UNL     1      18.974   8.509  21.213  0.00  0.00    +0.050 A 
ATOM     25  C   UNL     1      17.684   6.466  21.142  0.00  0.00    +0.046 A 
ATOM     26  C   UNL     1      18.913   7.122  21.077  0.00  0.00    +0.120 A 
BRANCH  26   5
ATOM      5  O   UNL     1      20.055   6.409  20.877  0.00  0.00    -0.495 OA
ATOM     28  C   UNL     1      21.228   7.145  20.534  0.00  0.00    +0.277 C 
ENDBRANCH  26   5
ENDBRANCH  13  15
ENDBRANCH   8  13
BRANCH   9  14
ATOM     14  C   UNL     1      11.624   9.863  22.919  0.00  0.00    +0.124 C 
BRANCH  14  18
ATOM      3  O   UNL     1      10.683  11.278  24.665  0.00  0.00    -0.251 OA
ATOM     18  C   UNL     1      10.942  11.074  23.488  0.00  0.00    +0.305 C 
BRANCH  18   2
ATOM      2  O   UNL     1      10.640  11.943  22.489  0.00  0.00    -0.481 OA
ATOM     29  H   UNL     1       9.697  11.886  22.228  0.00  0.00    +0.295 HD
ENDBRANCH  18   2
ENDBRANCH  14  18
ENDBRANCH   9  14
BRANCH  16  22
ATOM     22  C   UNL     1      14.121   7.975  17.399  0.00  0.00    +0.255 C 
BRANCH  22   4
ATOM      4  O   UNL     1      14.064   8.182  16.009  0.00  0.00    -0.374 OA
ATOM     27  C   UNL     1      14.206   9.559  15.665  0.00  0.00    +0.194 C 
ENDBRANCH  22   4
ENDBRANCH  16  22
TORSDOF 8
ENDMDL
MODEL 3
REMARK VINA RESULT:      -6.2      3.091      5.008
REMARK  Name = 51136660
REMARK  10 active torsions:
REMARK  status: ('A' for Active; 'I' for Inactive)
REMARK    1  A    between atoms: O_2  and  C_18
REMARK    2  A    between atoms: O_4  and  C_22
REMARK    3  A    between atoms: O_4  and  C_27
REMARK    4  A    between atoms: O_5  and  C_26
REMARK    5  A    between atoms: O_5  and  C_28
REMARK    6  A    between atoms: C_8  and  C_13
REMARK    7  A    between atoms: C_9  and  C_14
REMARK    8  A    between atoms: C_13  and  C_15
REMARK    9  A    between atoms: C_14  and  C_18
REMARK   10  A    between atoms: C_16  and  C_22
REMARK                            x       y       z     vdW  Elec       q    Type
REMARK                         _______ _______ _______ _____ _____    ______ ____
ROOT
ATOM      1  O   UNL     1      13.770  14.109  22.964  0.00  0.00    -0.273 OA
ATOM      6  N   UNL     1      13.409  11.814  22.976  0.00  0.00    -0.299 N 
ATOM      8  C   UNL     1      13.348   9.606  21.837  0.00  0.00    +0.016 C 
ATOM      9  C   UNL     1      11.801   9.708  21.806  0.00  0.00    +0.006 C 
ATOM     10  C   UNL     1      11.330  11.172  21.820  0.00  0.00    +0.023 C 
ATOM     11  C   UNL     1      13.902  10.431  23.013  0.00  0.00    +0.112 C 
ATOM     12  C   UNL     1      11.952  11.945  22.979  0.00  0.00    +0.108 C 
ATOM     16  C   UNL     1      14.209  12.956  22.969  0.00  0.00    +0.241 C 
ENDROOT
BRANCH   8  13
ATOM     13  C   UNL     1      14.025  10.026  20.527  0.00  0.00    +0.061 C 
BRANCH  13  15
ATOM      7  N   UNL     1      14.273   8.133  19.068  0.00  0.00    -0.287 NA
ATOM     15  C   UNL     1      14.827   8.873  19.972  0.00  0.00    +0.044 C 
ATOM     17  C   UNL     1      16.198   8.639  20.493  0.00  0.00    -0.001 A 
ATOM     19  C   UNL     1      16.754   7.375  20.260  0.00  0.00    -0.033 A 
ATOM     20  C   UNL     1      15.938   6.352  19.528  0.00  0.00    +0.059 C 
ATOM     21  C   UNL     1      15.074   7.051  18.486  0.00  0.00    +0.146 C 
ATOM     23  C   UNL     1      16.915   9.610  21.195  0.00  0.00    +0.013 A 
ATOM     24  C   UNL     1      18.025   7.078  20.760  0.00  0.00    +0.050 A 
ATOM     25  C   UNL     1      18.189   9.309  21.676  0.00  0.00    +0.046 A 
ATOM     26  C   UNL     1      18.742   8.047  21.462  0.00  0.00    +0.120 A 
BRANCH  26   5
ATOM      5  O   UNL     1      19.983   7.758  21.942  0.00  0.00    -0.495 OA
ATOM     28  C   UNL     1      20.145   6.508  22.611  0.00  0.00    +0.277 C 
ENDBRANCH  26   5
ENDBRANCH  13  15
ENDBRANCH   8  13
BRANCH   9  14
ATOM     14  C   UNL     1      11.172   8.950  20.637  0.00  0.00    +0.124 C 
BRANCH  14  18
ATOM      3  O   UNL     1      11.606   6.554  20.541  0.00  0.00    -0.251 OA
ATOM     18  C   UNL     1      10.959   7.500  20.966  0.00  0.00    +0.305 C 
BRANCH  18   2
ATOM      2  O   UNL     1       9.916   7.373  21.827  0.00  0.00    -0.481 OA
ATOM     29  H   UNL     1       9.173   6.872  21.431  0.00  0.00    +0.295 HD
ENDBRANCH  18   2
ENDBRANCH  14  18
ENDBRANCH   9  14
BRANCH  16  22
ATOM     22  C   UNL     1      15.701  12.736  22.964  0.00  0.00    +0.255 C 
BRANCH  22   4
ATOM      4  O   UNL     1      16.213  13.417  24.084  0.00  0.00    -0.374 OA
ATOM     27  C   UNL     1      16.200  12.606  25.257  0.00  0.00    +0.194 C 
ENDBRANCH  22   4
ENDBRANCH  16  22
TORSDOF 8
ENDMDL
MODEL 4
REMARK VINA RESULT:      -6.1     25.863     28.874
REMARK  Name = 51136660
REMARK  10 active torsions:
REMARK  status: ('A' for Active; 'I' for Inactive)
REMARK    1  A    between atoms: O_2  and  C_18
REMARK    2  A    between atoms: O_4  and  C_22
REMARK    3  A    between atoms: O_4  and  C_27
REMARK    4  A    between atoms: O_5  and  C_26
REMARK    5  A    between atoms: O_5  and  C_28
REMARK    6  A    between atoms: C_8  and  C_13
REMARK    7  A    between atoms: C_9  and  C_14
REMARK    8  A    between atoms: C_13  and  C_15
REMARK    9  A    between atoms: C_14  and  C_18
REMARK   10  A    between atoms: C_16  and  C_22
REMARK                            x       y       z     vdW  Elec       q    Type
REMARK                         _______ _______ _______ _____ _____    ______ ____
ROOT
ATOM      1  O   UNL     1      -7.957 -11.437  18.806  0.00  0.00    -0.273 OA
ATOM      6  N   UNL     1      -6.307 -10.389  17.550  0.00  0.00    -0.299 N 
ATOM      8  C   UNL     1      -4.726 -10.332  15.634  0.00  0.00    +0.016 C 
ATOM      9  C   UNL     1      -3.575 -10.649  16.624  0.00  0.00    +0.006 C 
ATOM     10  C   UNL     1      -4.084 -11.408  17.860  0.00  0.00    +0.023 C 
ATOM     11  C   UNL     1      -5.872  -9.621  16.377  0.00  0.00    +0.112 C 
ATOM     12  C   UNL     1      -5.250 -10.677  18.520  0.00  0.00    +0.108 C 
ATOM     16  C   UNL     1      -7.611 -10.815  17.799  0.00  0.00    +0.241 C 
ENDROOT
BRANCH   8  13
ATOM     13  C   UNL     1      -5.258 -11.560  14.885  0.00  0.00    +0.061 C 
BRANCH  13  15
ATOM      7  N   UNL     1      -3.748 -12.579  13.319  0.00  0.00    -0.287 NA
ATOM     15  C   UNL     1      -4.618 -11.645  13.520  0.00  0.00    +0.044 C 
ATOM     17  C   UNL     1      -5.008 -10.654  12.485  0.00  0.00    -0.001 A 
ATOM     19  C   UNL     1      -4.143 -10.510  11.392  0.00  0.00    -0.033 A 
ATOM     20  C   UNL     1      -2.894 -11.339  11.346  0.00  0.00    +0.059 C 
ATOM     21  C   UNL     1      -3.171 -12.699  11.975  0.00  0.00    +0.146 C 
ATOM     23  C   UNL     1      -6.167  -9.880  12.578  0.00  0.00    +0.013 A 
ATOM     24  C   UNL     1      -4.433  -9.565  10.403  0.00  0.00    +0.050 A 
ATOM     25  C   UNL     1      -6.455  -8.951  11.578  0.00  0.00    +0.046 A 
ATOM     26  C   UNL     1      -5.590  -8.792  10.495  0.00  0.00    +0.120 A 
BRANCH  26   5
ATOM      5  O   UNL     1      -5.874  -7.877   9.528  0.00  0.00    -0.495 OA
ATOM     28  C   UNL     1      -7.112  -8.029   8.835  0.00  0.00    +0.277 C 
ENDBRANCH  26   5
ENDBRANCH  13  15
ENDBRANCH   8  13
BRANCH   9  14
ATOM     14  C   UNL     1      -2.412 -11.398  15.973  0.00  0.00    +0.124 C 
BRANCH  14  18
ATOM      3  O   UNL     1      -1.530  -9.931  14.238  0.00  0.00    -0.251 OA
ATOM     18  C   UNL     1      -1.430 -10.454  15.338  0.00  0.00    +0.305 C 
BRANCH  18   2
ATOM      2  O   UNL     1      -0.381 -10.251  16.177  0.00  0.00    -0.481 OA
ATOM     29  H   UNL     1       0.382 -10.824  15.954  0.00  0.00    +0.295 HD
ENDBRANCH  18   2
ENDBRANCH  14  18
ENDBRANCH   9  14
BRANCH  16  22
ATOM     22  C   UNL     1      -8.642 -10.482  16.750  0.00  0.00    +0.255 C 
BRANCH  22   4
ATOM      4  O   UNL     1      -9.447  -9.459  17.285  0.00  0.00    -0.374 OA
ATOM     27  C   UNL     1      -9.482  -8.308  16.444  0.00  0.00    +0.194 C 
ENDBRANCH  22   4
ENDBRANCH  16  22
TORSDOF 8
ENDMDL
MODEL 5
REMARK VINA RESULT:      -6.0      3.330      6.858
REMARK  Name = 51136660
REMARK  10 active torsions:
REMARK  status: ('A' for Active; 'I' for Inactive)
REMARK    1  A    between atoms: O_2  and  C_18
REMARK    2  A    between atoms: O_4  and  C_22
REMARK    3  A    between atoms: O_4  and  C_27
REMARK    4  A    between atoms: O_5  and  C_26
REMARK    5  A    between atoms: O_5  and  C_28
REMARK    6  A    between atoms: C_8  and  C_13
REMARK    7  A    between atoms: C_9  and  C_14
REMARK    8  A    between atoms: C_13  and  C_15
REMARK    9  A    between atoms: C_14  and  C_18
REMARK   10  A    between atoms: C_16  and  C_22
REMARK                            x       y       z     vdW  Elec       q    Type
REMARK                         _______ _______ _______ _____ _____    ______ ____
ROOT
ATOM      1  O   UNL     1      10.344   8.453  18.477  0.00  0.00    -0.273 OA
ATOM      6  N   UNL     1      12.600   8.697  17.977  0.00  0.00    -0.299 N 
ATOM      8  C   UNL     1      14.673  10.060  17.849  0.00  0.00    +0.016 C 
ATOM      9  C   UNL     1      14.466  10.162  16.316  0.00  0.00    +0.006 C 
ATOM     10  C   UNL     1      12.983  10.022  15.935  0.00  0.00    +0.023 C 
ATOM     11  C   UNL     1      14.009   8.777  18.382  0.00  0.00    +0.112 C 
ATOM     12  C   UNL     1      12.373   8.758  16.533  0.00  0.00    +0.108 C 
ATOM     16  C   UNL     1      11.518   8.544  18.844  0.00  0.00    +0.241 C 
ENDROOT
BRANCH   8  13
ATOM     13  C   UNL     1      14.171  11.283  18.627  0.00  0.00    +0.061 C 
BRANCH  13  15
ATOM      7  N   UNL     1      15.692  10.757  20.412  0.00  0.00    -0.287 NA
ATOM     15  C   UNL     1      14.493  11.124  20.094  0.00  0.00    +0.044 C 
ATOM     17  C   UNL     1      13.427  11.386  21.093  0.00  0.00    -0.001 A 
ATOM     19  C   UNL     1      13.627  10.868  22.380  0.00  0.00    -0.033 A 
ATOM     20  C   UNL     1      14.875  10.084  22.656  0.00  0.00    +0.059 C 
ATOM     21  C   UNL     1      16.023  10.662  21.838  0.00  0.00    +0.146 C 
ATOM     23  C   UNL     1      12.265  12.098  20.789  0.00  0.00    +0.013 A 
ATOM     24  C   UNL     1      12.641  11.046  23.355  0.00  0.00    +0.050 A 
ATOM     25  C   UNL     1      11.295  12.283  21.774  0.00  0.00    +0.046 A 
ATOM     26  C   UNL     1      11.480  11.757  23.052  0.00  0.00    +0.120 A 
BRANCH  26   5
ATOM      5  O   UNL     1      10.524  11.935  24.006  0.00  0.00    -0.495 OA
ATOM     28  C   UNL     1      10.975  12.194  25.334  0.00  0.00    +0.277 C 
ENDBRANCH  26   5
ENDBRANCH  13  15
ENDBRANCH   8  13
BRANCH   9  14
ATOM     14  C   UNL     1      15.061  11.435  15.713  0.00  0.00    +0.124 C 
BRANCH  14  18
ATOM      3  O   UNL     1      15.049  11.078  13.302  0.00  0.00    -0.251 OA
ATOM     18  C   UNL     1      15.658  11.181  14.357  0.00  0.00    +0.305 C 
BRANCH  18   2
ATOM      2  O   UNL     1      17.008  11.078  14.462  0.00  0.00    -0.481 OA
ATOM     29  H   UNL     1      17.295  10.968  15.393  0.00  0.00    +0.295 HD
ENDBRANCH  18   2
ENDBRANCH  14  18
ENDBRANCH   9  14
BRANCH  16  22
ATOM     22  C   UNL     1      11.835   8.494  20.318  0.00  0.00    +0.255 C 
BRANCH  22   4
ATOM      4  O   UNL     1      10.601   8.468  20.994  0.00  0.00    -0.374 OA
ATOM     27  C   UNL     1      10.537   7.413  21.952  0.00  0.00    +0.194 C 
ENDBRANCH  22   4
ENDBRANCH  16  22
TORSDOF 8
ENDMDL
MODEL 6
REMARK VINA RESULT:      -6.0     26.576     29.202
REMARK  Name = 51136660
REMARK  10 active torsions:
REMARK  status: ('A' for Active; 'I' for Inactive)
REMARK    1  A    between atoms: O_2  and  C_18
REMARK    2  A    between atoms: O_4  and  C_22
REMARK    3  A    between atoms: O_4  and  C_27
REMARK    4  A    between atoms: O_5  and  C_26
REMARK    5  A    between atoms: O_5  and  C_28
REMARK    6  A    between atoms: C_8  and  C_13
REMARK    7  A    between atoms: C_9  and  C_14
REMARK    8  A    between atoms: C_13  and  C_15
REMARK    9  A    between atoms: C_14  and  C_18
REMARK   10  A    between atoms: C_16  and  C_22
REMARK                            x       y       z     vdW  Elec       q    Type
REMARK                         _______ _______ _______ _____ _____    ______ ____
ROOT
ATOM      1  O   UNL     1      -1.461  -9.902  12.393  0.00  0.00    -0.273 OA
ATOM      6  N   UNL     1      -2.825 -11.219  13.736  0.00  0.00    -0.299 N 
ATOM      8  C   UNL     1      -4.696 -11.490  15.348  0.00  0.00    +0.016 C 
ATOM      9  C   UNL     1      -3.648 -11.673  16.475  0.00  0.00    +0.006 C 
ATOM     10  C   UNL     1      -2.323 -10.970  16.136  0.00  0.00    +0.023 C 
ATOM     11  C   UNL     1      -4.090 -11.916  13.998  0.00  0.00    +0.112 C 
ATOM     12  C   UNL     1      -1.802 -11.398  14.767  0.00  0.00    +0.108 C 
ATOM     16  C   UNL     1      -2.542 -10.457  12.603  0.00  0.00    +0.241 C 
ENDROOT
BRANCH   8  13
ATOM     13  C   UNL     1      -5.265 -10.070  15.251  0.00  0.00    +0.061 C 
BRANCH  13  15
ATOM      7  N   UNL     1      -7.031 -10.215  13.628  0.00  0.00    -0.287 NA
ATOM     15  C   UNL     1      -6.729 -10.128  14.882  0.00  0.00    +0.044 C 
ATOM     17  C   UNL     1      -7.742 -10.075  15.966  0.00  0.00    -0.001 A 
ATOM     19  C   UNL     1      -9.051  -9.744  15.590  0.00  0.00    -0.033 A 
ATOM     20  C   UNL     1      -9.335  -9.453  14.146  0.00  0.00    +0.059 C 
ATOM     21  C   UNL     1      -8.449 -10.333  13.273  0.00  0.00    +0.146 C 
ATOM     23  C   UNL     1      -7.431 -10.326  17.304  0.00  0.00    +0.013 A 
ATOM     24  C   UNL     1     -10.043  -9.638  16.569  0.00  0.00    +0.050 A 
ATOM     25  C   UNL     1      -8.433 -10.233  18.271  0.00  0.00    +0.046 A 
ATOM     26  C   UNL     1      -9.734  -9.888  17.906  0.00  0.00    +0.120 A 
BRANCH  26   5
ATOM      5  O   UNL     1     -10.703  -9.791  18.857  0.00  0.00    -0.495 OA
ATOM     28  C   UNL     1     -10.485 -10.493  20.079  0.00  0.00    +0.277 C 
ENDBRANCH  26   5
ENDBRANCH  13  15
ENDBRANCH   8  13
BRANCH   9  14
ATOM     14  C   UNL     1      -4.157 -11.230  17.847  0.00  0.00    +0.124 C 
BRANCH  14  18
ATOM      3  O   UNL     1      -3.400 -12.159  19.968  0.00  0.00    -0.251 OA
ATOM     18  C   UNL     1      -3.952 -12.295  18.886  0.00  0.00    +0.305 C 
BRANCH  18   2
ATOM      2  O   UNL     1      -4.480 -13.469  18.451  0.00  0.00    -0.481 OA
ATOM     29  H   UNL     1      -4.501 -13.519  17.473  0.00  0.00    +0.295 HD
ENDBRANCH  18   2
ENDBRANCH  14  18
ENDBRANCH   9  14
BRANCH  16  22
ATOM     22  C   UNL     1      -3.649 -10.318  11.588  0.00  0.00    +0.255 C 
BRANCH  22   4
ATOM      4  O   UNL     1      -3.120  -9.582  10.512  0.00  0.00    -0.374 OA
ATOM     27  C   UNL     1      -4.134  -8.894   9.782  0.00  0.00    +0.194 C 
ENDBRANCH  22   4
ENDBRANCH  16  22
TORSDOF 8
ENDMDL
MODEL 7
REMARK VINA RESULT:      -5.8     26.094     29.365
REMARK  Name = 51136660
REMARK  10 active torsions:
REMARK  status: ('A' for Active; 'I' for Inactive)
REMARK    1  A    between atoms: O_2  and  C_18
REMARK    2  A    between atoms: O_4  and  C_22
REMARK    3  A    between atoms: O_4  and  C_27
REMARK    4  A    between atoms: O_5  and  C_26
REMARK    5  A    between atoms: O_5  and  C_28
REMARK    6  A    between atoms: C_8  and  C_13
REMARK    7  A    between atoms: C_9  and  C_14
REMARK    8  A    between atoms: C_13  and  C_15
REMARK    9  A    between atoms: C_14  and  C_18
REMARK   10  A    between atoms: C_16  and  C_22
REMARK                            x       y       z     vdW  Elec       q    Type
REMARK                         _______ _______ _______ _____ _____    ______ ____
ROOT
ATOM      1  O   UNL     1      -8.152 -11.463  19.185  0.00  0.00    -0.273 OA
ATOM      6  N   UNL     1      -6.679 -10.298  17.818  0.00  0.00    -0.299 N 
ATOM      8  C   UNL     1      -5.406 -10.039  15.699  0.00  0.00    +0.016 C 
ATOM      9  C   UNL     1      -4.129 -10.487  16.456  0.00  0.00    +0.006 C 
ATOM     10  C   UNL     1      -4.470 -11.379  17.661  0.00  0.00    +0.023 C 
ATOM     11  C   UNL     1      -6.403  -9.404  16.687  0.00  0.00    +0.112 C 
ATOM     12  C   UNL     1      -5.497 -10.714  18.573  0.00  0.00    +0.108 C 
ATOM     16  C   UNL     1      -7.944 -10.731  18.215  0.00  0.00    +0.241 C 
ENDROOT
BRANCH   8  13
ATOM     13  C   UNL     1      -6.086 -11.162  14.906  0.00  0.00    +0.061 C 
BRANCH  13  15
ATOM      7  N   UNL     1      -8.170 -10.391  13.993  0.00  0.00    -0.287 NA
ATOM     15  C   UNL     1      -6.907 -10.572  13.784  0.00  0.00    +0.044 C 
ATOM     17  C   UNL     1      -6.233 -10.239  12.504  0.00  0.00    -0.001 A 
ATOM     19  C   UNL     1      -7.057 -10.069  11.383  0.00  0.00    -0.033 A 
ATOM     20  C   UNL     1      -8.538 -10.247  11.543  0.00  0.00    +0.059 C 
ATOM     21  C   UNL     1      -8.956  -9.762  12.926  0.00  0.00    +0.146 C 
ATOM     23  C   UNL     1      -4.848 -10.109  12.391  0.00  0.00    +0.013 A 
ATOM     24  C   UNL     1      -6.481  -9.794  10.139  0.00  0.00    +0.050 A 
ATOM     25  C   UNL     1      -4.284  -9.819  11.147  0.00  0.00    +0.046 A 
ATOM     26  C   UNL     1      -5.097  -9.664  10.025  0.00  0.00    +0.120 A 
BRANCH  26   5
ATOM      5  O   UNL     1      -4.539  -9.389   8.814  0.00  0.00    -0.495 OA
ATOM     28  C   UNL     1      -5.051 -10.101   7.688  0.00  0.00    +0.277 C 
ENDBRANCH  26   5
ENDBRANCH  13  15
ENDBRANCH   8  13
BRANCH   9  14
ATOM     14  C   UNL     1      -3.103 -11.170  15.552  0.00  0.00    +0.124 C 
BRANCH  14  18
ATOM      3  O   UNL     1      -1.251  -9.749  14.852  0.00  0.00    -0.251 OA
ATOM     18  C   UNL     1      -1.752 -10.521  15.656  0.00  0.00    +0.305 C 
BRANCH  18   2
ATOM      2  O   UNL     1      -1.140 -10.918  16.802  0.00  0.00    -0.481 OA
ATOM     29  H   UNL     1      -1.786 -11.128  17.508  0.00  0.00    +0.295 HD
ENDBRANCH  18   2
ENDBRANCH  14  18
ENDBRANCH   9  14
BRANCH  16  22
ATOM     22  C   UNL     1      -9.111 -10.262  17.382  0.00  0.00    +0.255 C 
BRANCH  22   4
ATOM      4  O   UNL     1      -9.712  -9.206  18.091  0.00  0.00    -0.374 OA
ATOM     27  C   UNL     1      -9.849  -8.033  17.291  0.00  0.00    +0.194 C 
ENDBRANCH  22   4
ENDBRANCH  16  22
TORSDOF 8
ENDMDL
MODEL 8
REMARK VINA RESULT:      -5.6     27.814     30.561
REMARK  Name = 51136660
REMARK  10 active torsions:
REMARK  status: ('A' for Active; 'I' for Inactive)
REMARK    1  A    between atoms: O_2  and  C_18
REMARK    2  A    between atoms: O_4  and  C_22
REMARK    3  A    between atoms: O_4  and  C_27
REMARK    4  A    between atoms: O_5  and  C_26
REMARK    5  A    between atoms: O_5  and  C_28
REMARK    6  A    between atoms: C_8  and  C_13
REMARK    7  A    between atoms: C_9  and  C_14
REMARK    8  A    between atoms: C_13  and  C_15
REMARK    9  A    between atoms: C_14  and  C_18
REMARK   10  A    between atoms: C_16  and  C_22
REMARK                            x       y       z     vdW  Elec       q    Type
REMARK                         _______ _______ _______ _____ _____    ______ ____
ROOT
ATOM      1  O   UNL     1      -4.922 -10.015  12.810  0.00  0.00    -0.273 OA
ATOM      6  N   UNL     1      -5.762 -10.971  14.753  0.00  0.00    -0.299 N 
ATOM      8  C   UNL     1      -7.122 -10.860  16.831  0.00  0.00    +0.016 C 
ATOM      9  C   UNL     1      -5.806 -10.715  17.638  0.00  0.00    +0.006 C 
ATOM     10  C   UNL     1      -4.687 -10.091  16.789  0.00  0.00    +0.023 C 
ATOM     11  C   UNL     1      -6.845 -11.608  15.513  0.00  0.00    +0.112 C 
ATOM     12  C   UNL     1      -4.497 -10.848  15.477  0.00  0.00    +0.108 C 
ATOM     16  C   UNL     1      -5.855 -10.524  13.436  0.00  0.00    +0.241 C 
ENDROOT
BRANCH   8  13
ATOM     13  C   UNL     1      -7.830  -9.529  16.549  0.00  0.00    +0.061 C 
BRANCH  13  15
ATOM      7  N   UNL     1      -9.577 -10.565  17.832  0.00  0.00    -0.287 NA
ATOM     15  C   UNL     1      -9.255  -9.593  17.044  0.00  0.00    +0.044 C 
ATOM     17  C   UNL     1     -10.213  -8.550  16.598  0.00  0.00    -0.001 A 
ATOM     19  C   UNL     1     -11.576  -8.841  16.746  0.00  0.00    -0.033 A 
ATOM     20  C   UNL     1     -11.972 -10.169  17.319  0.00  0.00    +0.059 C 
ATOM     21  C   UNL     1     -10.945 -10.592  18.361  0.00  0.00    +0.146 C 
ATOM     23  C   UNL     1      -9.804  -7.335  16.043  0.00  0.00    +0.013 A 
ATOM     24  C   UNL     1     -12.530  -7.917  16.308  0.00  0.00    +0.050 A 
ATOM     25  C   UNL     1     -10.765  -6.414  15.624  0.00  0.00    +0.046 A 
ATOM     26  C   UNL     1     -12.122  -6.704  15.753  0.00  0.00    +0.120 A 
BRANCH  26   5
ATOM      5  O   UNL     1     -13.053  -5.803  15.334  0.00  0.00    -0.495 OA
ATOM     28  C   UNL     1     -13.057  -5.473  13.946  0.00  0.00    +0.277 C 
ENDBRANCH  26   5
ENDBRANCH  13  15
ENDBRANCH   8  13
BRANCH   9  14
ATOM     14  C   UNL     1      -5.986  -9.942  18.945  0.00  0.00    +0.124 C 
BRANCH  14  18
ATOM      3  O   UNL     1      -5.811 -11.509  20.803  0.00  0.00    -0.251 OA
ATOM     18  C   UNL     1      -6.490 -10.828  20.049  0.00  0.00    +0.305 C 
BRANCH  18   2
ATOM      2  O   UNL     1      -7.846 -10.771  20.101  0.00  0.00    -0.481 OA
ATOM     29  H   UNL     1      -8.176  -9.851  20.022  0.00  0.00    +0.295 HD
ENDBRANCH  18   2
ENDBRANCH  14  18
ENDBRANCH   9  14
BRANCH  16  22
ATOM     22  C   UNL     1      -7.194 -10.683  12.760  0.00  0.00    +0.255 C 
BRANCH  22   4
ATOM      4  O   UNL     1      -7.953  -9.548  13.097  0.00  0.00    -0.374 OA
ATOM     27  C   UNL     1      -9.355  -9.791  13.000  0.00  0.00    +0.194 C 
ENDBRANCH  22   4
ENDBRANCH  16  22
TORSDOF 8
ENDMDL
MODEL 9
REMARK VINA RESULT:      -5.6     12.643     16.629
REMARK  Name = 51136660
REMARK  10 active torsions:
REMARK  status: ('A' for Active; 'I' for Inactive)
REMARK    1  A    between atoms: O_2  and  C_18
REMARK    2  A    between atoms: O_4  and  C_22
REMARK    3  A    between atoms: O_4  and  C_27
REMARK    4  A    between atoms: O_5  and  C_26
REMARK    5  A    between atoms: O_5  and  C_28
REMARK    6  A    between atoms: C_8  and  C_13
REMARK    7  A    between atoms: C_9  and  C_14
REMARK    8  A    between atoms: C_13  and  C_15
REMARK    9  A    between atoms: C_14  and  C_18
REMARK   10  A    between atoms: C_16  and  C_22
REMARK                            x       y       z     vdW  Elec       q    Type
REMARK                         _______ _______ _______ _____ _____    ______ ____
ROOT
ATOM      1  O   UNL     1       9.291  11.589   6.202  0.00  0.00    -0.273 OA
ATOM      6  N   UNL     1      10.292   9.551   6.695  0.00  0.00    -0.299 N 
ATOM      8  C   UNL     1      10.376   7.071   6.566  0.00  0.00    +0.016 C 
ATOM      9  C   UNL     1       9.868   7.017   8.030  0.00  0.00    +0.006 C 
ATOM     10  C   UNL     1       9.051   8.267   8.393  0.00  0.00    +0.023 C 
ATOM     11  C   UNL     1      11.119   8.397   6.321  0.00  0.00    +0.112 C 
ATOM     12  C   UNL     1       9.824   9.546   8.080  0.00  0.00    +0.108 C 
ATOM     16  C   UNL     1       9.966  10.617   5.856  0.00  0.00    +0.241 C 
ENDROOT
BRANCH   8  13
ATOM     13  C   UNL     1       9.273   6.877   5.518  0.00  0.00    +0.061 C 
BRANCH  13  15
ATOM      7  N   UNL     1      10.424   5.035   4.491  0.00  0.00    -0.287 NA
ATOM     15  C   UNL     1       9.837   6.172   4.307  0.00  0.00    +0.044 C 
ATOM     17  C   UNL     1       9.698   6.815   2.976  0.00  0.00    -0.001 A 
ATOM     19  C   UNL     1      10.544   6.351   1.960  0.00  0.00    -0.033 A 
ATOM     20  C   UNL     1      11.528   5.266   2.281  0.00  0.00    +0.059 C 
ATOM     21  C   UNL     1      10.917   4.321   3.308  0.00  0.00    +0.146 C 
ATOM     23  C   UNL     1       8.787   7.843   2.726  0.00  0.00    +0.013 A 
ATOM     24  C   UNL     1      10.491   6.944   0.695  0.00  0.00    +0.050 A 
ATOM     25  C   UNL     1       8.732   8.417   1.455  0.00  0.00    +0.046 A 
ATOM     26  C   UNL     1       9.582   7.971   0.443  0.00  0.00    +0.120 A 
BRANCH  26   5
ATOM      5  O   UNL     1       9.527   8.541  -0.792  0.00  0.00    -0.495 OA
ATOM     28  C   UNL     1       9.769   9.945  -0.868  0.00  0.00    +0.277 C 
ENDBRANCH  26   5
ENDBRANCH  13  15
ENDBRANCH   8  13
BRANCH   9  14
ATOM     14  C   UNL     1       9.078   5.746   8.345  0.00  0.00    +0.124 C 
BRANCH  14  18
ATOM      3  O   UNL     1      10.035   4.728  10.342  0.00  0.00    -0.251 OA
ATOM     18  C   UNL     1       9.900   4.761   9.128  0.00  0.00    +0.305 C 
BRANCH  18   2
ATOM      2  O   UNL     1      10.493   3.882   8.279  0.00  0.00    -0.481 OA
ATOM     29  H   UNL     1      10.678   3.023   8.713  0.00  0.00    +0.295 HD
ENDBRANCH  18   2
ENDBRANCH  14  18
ENDBRANCH   9  14
BRANCH  16  22
ATOM     22  C   UNL     1      10.484  10.547   4.441  0.00  0.00    +0.255 C 
BRANCH  22   4
ATOM      4  O   UNL     1       9.465  11.053   3.614  0.00  0.00    -0.374 OA
ATOM     27  C   UNL     1       9.984  11.849   2.550  0.00  0.00    +0.194 C 
ENDBRANCH  22   4
ENDBRANCH  16  22
TORSDOF 8
ENDMDL
MODEL 10
REMARK VINA RESULT:      -5.6     25.925     28.879
REMARK  Name = 51136660
REMARK  10 active torsions:
REMARK  status: ('A' for Active; 'I' for Inactive)
REMARK    1  A    between atoms: O_2  and  C_18
REMARK    2  A    between atoms: O_4  and  C_22
REMARK    3  A    between atoms: O_4  and  C_27
REMARK    4  A    between atoms: O_5  and  C_26
REMARK    5  A    between atoms: O_5  and  C_28
REMARK    6  A    between atoms: C_8  and  C_13
REMARK    7  A    between atoms: C_9  and  C_14
REMARK    8  A    between atoms: C_13  and  C_15
REMARK    9  A    between atoms: C_14  and  C_18
REMARK   10  A    between atoms: C_16  and  C_22
REMARK                            x       y       z     vdW  Elec       q    Type
REMARK                         _______ _______ _______ _____ _____    ______ ____
ROOT
ATOM      1  O   UNL     1      -5.559 -14.800  12.004  0.00  0.00    -0.273 OA
ATOM      6  N   UNL     1      -3.939 -13.223  11.468  0.00  0.00    -0.299 N 
ATOM      8  C   UNL     1      -2.992 -10.929  11.609  0.00  0.00    +0.016 C 
ATOM      9  C   UNL     1      -3.526 -10.662  10.178  0.00  0.00    +0.006 C 
ATOM     10  C   UNL     1      -4.745 -11.542   9.855  0.00  0.00    +0.023 C 
ATOM     11  C   UNL     1      -2.744 -12.437  11.801  0.00  0.00    +0.112 C 
ATOM     12  C   UNL     1      -4.449 -13.017  10.112  0.00  0.00    +0.108 C 
ATOM     16  C   UNL     1      -4.570 -14.132  12.316  0.00  0.00    +0.241 C 
ENDROOT
BRANCH   8  13
ATOM     13  C   UNL     1      -3.901 -10.394  12.722  0.00  0.00    +0.061 C 
BRANCH  13  15
ATOM      7  N   UNL     1      -1.877 -10.096  13.982  0.00  0.00    -0.287 NA
ATOM     15  C   UNL     1      -3.143 -10.355  14.028  0.00  0.00    +0.044 C 
ATOM     17  C   UNL     1      -3.879 -10.621  15.290  0.00  0.00    -0.001 A 
ATOM     19  C   UNL     1      -3.108 -10.958  16.410  0.00  0.00    -0.033 A 
ATOM     20  C   UNL     1      -1.618 -11.042  16.262  0.00  0.00    +0.059 C 
ATOM     21  C   UNL     1      -1.153  -9.997  15.255  0.00  0.00    +0.146 C 
ATOM     23  C   UNL     1      -5.271 -10.559  15.380  0.00  0.00    +0.013 A 
ATOM     24  C   UNL     1      -3.743 -11.260  17.619  0.00  0.00    +0.050 A 
ATOM     25  C   UNL     1      -5.893 -10.846  16.596  0.00  0.00    +0.046 A 
ATOM     26  C   UNL     1      -5.133 -11.198  17.710  0.00  0.00    +0.120 A 
BRANCH  26   5
ATOM      5  O   UNL     1      -5.749 -11.486  18.890  0.00  0.00    -0.495 OA
ATOM     28  C   UNL     1      -6.419 -10.413  19.550  0.00  0.00    +0.277 C 
ENDBRANCH  26   5
ENDBRANCH  13  15
ENDBRANCH   8  13
BRANCH   9  14
ATOM     14  C   UNL     1      -3.841  -9.189   9.920  0.00  0.00    +0.124 C 
BRANCH  14  18
ATOM      3  O   UNL     1      -6.216  -8.726   9.631  0.00  0.00    -0.251 OA
ATOM     18  C   UNL     1      -5.127  -9.020   9.161  0.00  0.00    +0.305 C 
BRANCH  18   2
ATOM      2  O   UNL     1      -4.912  -9.245   7.839  0.00  0.00    -0.481 OA
ATOM     29  H   UNL     1      -4.407  -8.516   7.422  0.00  0.00    +0.295 HD
ENDBRANCH  18   2
ENDBRANCH  14  18
ENDBRANCH   9  14
BRANCH  16  22
ATOM     22  C   UNL     1      -3.986 -14.284  13.698  0.00  0.00    +0.255 C 
BRANCH  22   4
ATOM      4  O   UNL     1      -5.007 -13.950  14.607  0.00  0.00    -0.374 OA
ATOM     27  C   UNL     1      -4.771 -14.496  15.903  0.00  0.00    +0.194 C 
ENDBRANCH  22   4
ENDBRANCH  16  22
TORSDOF 8
ENDMDL
