MODEL 1
REMARK VINA RESULT:      -5.8      0.000      0.000
REMARK  Name = 71693803
REMARK  7 active torsions:
REMARK  status: ('A' for Active; 'I' for Inactive)
REMARK    1  A    between atoms: S_1  and  N_6
REMARK    2  A    between atoms: S_1  and  C_17
REMARK    3  A    between atoms: O_2  and  C_9
REMARK    4  A    between atoms: O_3  and  C_11
REMARK    5  A    between atoms: N_6  and  C_8
REMARK    6  A    between atoms: C_7  and  C_12
REMARK    7  A    between atoms: C_13  and  C_16
REMARK                            x       y       z     vdW  Elec       q    Type
REMARK                         _______ _______ _______ _____ _____    ______ ____
ROOT
ATOM      7  C   UNL     1      14.208   8.810  19.129  0.00  0.00    +0.043 C 
ATOM      8  C   UNL     1      12.961   8.950  20.027  0.00  0.00    +0.115 C 
ATOM      9  C   UNL     1      11.797   8.730  19.064  0.00  0.00    +0.162 C 
ATOM     10  C   UNL     1      13.756   7.962  17.912  0.00  0.00    +0.043 C 
ATOM     11  C   UNL     1      12.297   7.596  18.177  0.00  0.00    +0.145 C 
ENDROOT
BRANCH   7  12
ATOM     12  C   UNL     1      15.406   8.250  19.867  0.00  0.00    -0.040 A 
ATOM     13  C   UNL     1      16.380   9.094  20.401  0.00  0.00    -0.047 A 
ATOM     14  C   UNL     1      15.528   6.868  20.011  0.00  0.00    +0.004 A 
ATOM     15  C   UNL     1      17.475   8.557  21.078  0.00  0.00    +0.003 A 
ATOM     16  C   UNL     1      16.271  10.577  20.260  0.00  0.00    +0.044 C 
ATOM     18  C   UNL     1      16.623   6.331  20.687  0.00  0.00    +0.000 A 
ATOM     19  C   UNL     1      17.597   7.175  21.221  0.00  0.00    +0.000 A 
ENDBRANCH   7  12
BRANCH   9   2
ATOM      2  O   UNL     1      10.607   8.365  19.738  0.00  0.00    -0.388 OA
ATOM     21  H   UNL     1      10.733   7.464  20.083  0.00  0.00    +0.210 HD
ENDBRANCH   9   2
BRANCH  11   3
ATOM      3  O   UNL     1      12.256   6.352  18.868  0.00  0.00    -0.389 OA
ATOM     22  H   UNL     1      11.720   5.739  18.335  0.00  0.00    +0.210 HD
ENDBRANCH  11   3
BRANCH   8   6
ATOM      6  N   UNL     1      12.894  10.315  20.602  0.00  0.00    -0.189 NA
ATOM     20  H   UNL     1      13.433  11.060  20.143  0.00  0.00    +0.148 HD
BRANCH   6   1
ATOM      1  S   UNL     1      12.308  10.513  22.189  0.00  0.00    +0.027 S 
ATOM      4  O   UNL     1      13.388  10.918  23.068  0.00  0.00    -0.158 OA
ATOM      5  O   UNL     1      11.477   9.369  22.512  0.00  0.00    -0.158 OA
ATOM     17  C   UNL     1      11.229  11.908  21.968  0.00  0.00    +0.214 C 
ENDBRANCH   6   1
ENDBRANCH   8   6
TORSDOF 5
ENDMDL
MODEL 2
REMARK VINA RESULT:      -5.8     14.271     16.577
REMARK  Name = 71693803
REMARK  7 active torsions:
REMARK  status: ('A' for Active; 'I' for Inactive)
REMARK    1  A    between atoms: S_1  and  N_6
REMARK    2  A    between atoms: S_1  and  C_17
REMARK    3  A    between atoms: O_2  and  C_9
REMARK    4  A    between atoms: O_3  and  C_11
REMARK    5  A    between atoms: N_6  and  C_8
REMARK    6  A    between atoms: C_7  and  C_12
REMARK    7  A    between atoms: C_13  and  C_16
REMARK                            x       y       z     vdW  Elec       q    Type
REMARK                         _______ _______ _______ _____ _____    ______ ____
ROOT
ATOM      7  C   UNL     1      10.062   6.299   4.977  0.00  0.00    +0.043 C 
ATOM      8  C   UNL     1      11.342   6.267   5.839  0.00  0.00    +0.115 C 
ATOM      9  C   UNL     1      10.815   6.090   7.260  0.00  0.00    +0.162 C 
ATOM     10  C   UNL     1       8.977   5.568   5.810  0.00  0.00    +0.043 C 
ATOM     11  C   UNL     1       9.677   5.093   7.082  0.00  0.00    +0.145 C 
ENDROOT
BRANCH   7  12
ATOM     12  C   UNL     1      10.270   5.729   3.589  0.00  0.00    -0.040 A 
ATOM     13  C   UNL     1       9.865   6.433   2.455  0.00  0.00    -0.047 A 
ATOM     14  C   UNL     1      10.879   4.481   3.454  0.00  0.00    +0.004 A 
ATOM     15  C   UNL     1      10.067   5.889   1.187  0.00  0.00    +0.003 A 
ATOM     16  C   UNL     1       9.212   7.771   2.576  0.00  0.00    +0.044 C 
ATOM     18  C   UNL     1      11.081   3.937   2.186  0.00  0.00    +0.000 A 
ATOM     19  C   UNL     1      10.675   4.641   1.052  0.00  0.00    +0.000 A 
ENDBRANCH   7  12
BRANCH   9   2
ATOM      2  O   UNL     1      11.804   5.585   8.138  0.00  0.00    -0.388 OA
ATOM     21  H   UNL     1      12.143   6.335   8.656  0.00  0.00    +0.210 HD
ENDBRANCH   9   2
BRANCH  11   3
ATOM      3  O   UNL     1      10.180   3.778   6.862  0.00  0.00    -0.389 OA
ATOM     22  H   UNL     1      10.740   3.549   7.624  0.00  0.00    +0.210 HD
ENDBRANCH  11   3
BRANCH   8   6
ATOM      6  N   UNL     1      12.069   7.553   5.722  0.00  0.00    -0.189 NA
ATOM     20  H   UNL     1      11.561   8.365   5.351  0.00  0.00    +0.148 HD
BRANCH   6   1
ATOM      1  S   UNL     1      13.772   7.546   5.788  0.00  0.00    +0.027 S 
ATOM      4  O   UNL     1      14.317   7.319   4.464  0.00  0.00    -0.158 OA
ATOM      5  O   UNL     1      14.179   6.723   6.910  0.00  0.00    -0.158 OA
ATOM     17  C   UNL     1      14.089   9.239   6.228  0.00  0.00    +0.214 C 
ENDBRANCH   6   1
ENDBRANCH   8   6
TORSDOF 5
ENDMDL
MODEL 3
REMARK VINA RESULT:      -5.4     30.529     31.772
REMARK  Name = 71693803
REMARK  7 active torsions:
REMARK  status: ('A' for Active; 'I' for Inactive)
REMARK    1  A    between atoms: S_1  and  N_6
REMARK    2  A    between atoms: S_1  and  C_17
REMARK    3  A    between atoms: O_2  and  C_9
REMARK    4  A    between atoms: O_3  and  C_11
REMARK    5  A    between atoms: N_6  and  C_8
REMARK    6  A    between atoms: C_7  and  C_12
REMARK    7  A    between atoms: C_13  and  C_16
REMARK                            x       y       z     vdW  Elec       q    Type
REMARK                         _______ _______ _______ _____ _____    ______ ____
ROOT
ATOM      7  C   UNL     1     -15.811   3.319  31.030  0.00  0.00    +0.043 C 
ATOM      8  C   UNL     1     -14.930   3.175  29.772  0.00  0.00    +0.115 C 
ATOM      9  C   UNL     1     -15.940   3.004  28.641  0.00  0.00    +0.162 C 
ATOM     10  C   UNL     1     -17.191   3.812  30.522  0.00  0.00    +0.043 C 
ATOM     11  C   UNL     1     -17.040   3.991  29.012  0.00  0.00    +0.145 C 
ENDROOT
BRANCH   7  12
ATOM     12  C   UNL     1     -15.186   4.202  32.090  0.00  0.00    -0.040 A 
ATOM     13  C   UNL     1     -14.742   3.667  33.300  0.00  0.00    -0.047 A 
ATOM     14  C   UNL     1     -15.056   5.568  31.843  0.00  0.00    +0.004 A 
ATOM     15  C   UNL     1     -14.170   4.499  34.263  0.00  0.00    +0.003 A 
ATOM     16  C   UNL     1     -14.871   2.207  33.587  0.00  0.00    +0.044 C 
ATOM     18  C   UNL     1     -14.484   6.400  32.806  0.00  0.00    +0.000 A 
ATOM     19  C   UNL     1     -14.040   5.865  34.015  0.00  0.00    +0.000 A 
ENDBRANCH   7  12
BRANCH   9   2
ATOM      2  O   UNL     1     -15.385   3.310  27.376  0.00  0.00    -0.388 OA
ATOM     21  H   UNL     1     -14.682   2.661  27.202  0.00  0.00    +0.210 HD
ENDBRANCH   9   2
BRANCH  11   3
ATOM      3  O   UNL     1     -16.633   5.331  28.750  0.00  0.00    -0.389 OA
ATOM     22  H   UNL     1     -15.660   5.344  28.740  0.00  0.00    +0.210 HD
ENDBRANCH  11   3
BRANCH   8   6
ATOM      6  N   UNL     1     -14.077   1.968  29.879  0.00  0.00    -0.189 NA
ATOM     20  H   UNL     1     -13.061   2.082  29.779  0.00  0.00    +0.148 HD
BRANCH   6   1
ATOM      1  S   UNL     1     -14.800   0.432  29.735  0.00  0.00    +0.027 S 
ATOM      4  O   UNL     1     -15.505   0.334  28.471  0.00  0.00    -0.158 OA
ATOM      5  O   UNL     1     -15.469   0.126  30.985  0.00  0.00    -0.158 OA
ATOM     17  C   UNL     1     -13.357  -0.602  29.639  0.00  0.00    +0.214 C 
ENDBRANCH   6   1
ENDBRANCH   8   6
TORSDOF 5
ENDMDL
MODEL 4
REMARK VINA RESULT:      -5.2     24.655     26.832
REMARK  Name = 71693803
REMARK  7 active torsions:
REMARK  status: ('A' for Active; 'I' for Inactive)
REMARK    1  A    between atoms: S_1  and  N_6
REMARK    2  A    between atoms: S_1  and  C_17
REMARK    3  A    between atoms: O_2  and  C_9
REMARK    4  A    between atoms: O_3  and  C_11
REMARK    5  A    between atoms: N_6  and  C_8
REMARK    6  A    between atoms: C_7  and  C_12
REMARK    7  A    between atoms: C_13  and  C_16
REMARK                            x       y       z     vdW  Elec       q    Type
REMARK                         _______ _______ _______ _____ _____    ______ ____
ROOT
ATOM      7  C   UNL     1     -12.234   9.767  18.452  0.00  0.00    +0.043 C 
ATOM      8  C   UNL     1     -12.052   9.301  16.992  0.00  0.00    +0.115 C 
ATOM      9  C   UNL     1     -11.098  10.333  16.399  0.00  0.00    +0.162 C 
ATOM     10  C   UNL     1     -10.981  10.621  18.778  0.00  0.00    +0.043 C 
ATOM     11  C   UNL     1     -10.103  10.568  17.529  0.00  0.00    +0.145 C 
ENDROOT
BRANCH   7  12
ATOM     12  C   UNL     1     -12.473   8.621  19.412  0.00  0.00    -0.040 A 
ATOM     13  C   UNL     1     -13.761   8.306  19.847  0.00  0.00    -0.047 A 
ATOM     14  C   UNL     1     -11.384   7.875  19.860  0.00  0.00    +0.004 A 
ATOM     15  C   UNL     1     -13.958   7.245  20.732  0.00  0.00    +0.003 A 
ATOM     16  C   UNL     1     -14.942   9.091  19.381  0.00  0.00    +0.044 C 
ATOM     18  C   UNL     1     -11.581   6.814  20.745  0.00  0.00    +0.000 A 
ATOM     19  C   UNL     1     -12.868   6.500  21.181  0.00  0.00    +0.000 A 
ENDBRANCH   7  12
BRANCH   9   2
ATOM      2  O   UNL     1     -10.447   9.855  15.237  0.00  0.00    -0.388 OA
ATOM     21  H   UNL     1     -10.623   8.901  15.177  0.00  0.00    +0.210 HD
ENDBRANCH   9   2
BRANCH  11   3
ATOM      3  O   UNL     1      -9.202   9.472  17.652  0.00  0.00    -0.389 OA
ATOM     22  H   UNL     1      -8.485   9.609  17.008  0.00  0.00    +0.210 HD
ENDBRANCH  11   3
BRANCH   8   6
ATOM      6  N   UNL     1     -13.350   9.339  16.277  0.00  0.00    -0.189 NA
ATOM     20  H   UNL     1     -14.163   9.729  16.770  0.00  0.00    +0.148 HD
BRANCH   6   1
ATOM      1  S   UNL     1     -13.554   8.378  14.885  0.00  0.00    +0.027 S 
ATOM      4  O   UNL     1     -14.724   7.534  15.034  0.00  0.00    -0.158 OA
ATOM      5  O   UNL     1     -12.267   7.808  14.535  0.00  0.00    -0.158 OA
ATOM     17  C   UNL     1     -13.929   9.627  13.677  0.00  0.00    +0.214 C 
ENDBRANCH   6   1
ENDBRANCH   8   6
TORSDOF 5
ENDMDL
MODEL 5
REMARK VINA RESULT:      -5.1     26.271     28.458
REMARK  Name = 71693803
REMARK  7 active torsions:
REMARK  status: ('A' for Active; 'I' for Inactive)
REMARK    1  A    between atoms: S_1  and  N_6
REMARK    2  A    between atoms: S_1  and  C_17
REMARK    3  A    between atoms: O_2  and  C_9
REMARK    4  A    between atoms: O_3  and  C_11
REMARK    5  A    between atoms: N_6  and  C_8
REMARK    6  A    between atoms: C_7  and  C_12
REMARK    7  A    between atoms: C_13  and  C_16
REMARK                            x       y       z     vdW  Elec       q    Type
REMARK                         _______ _______ _______ _____ _____    ______ ____
ROOT
ATOM      7  C   UNL     1      -4.333 -10.995  16.019  0.00  0.00    +0.043 C 
ATOM      8  C   UNL     1      -3.754 -12.349  15.558  0.00  0.00    +0.115 C 
ATOM      9  C   UNL     1      -2.599 -11.955  14.643  0.00  0.00    +0.162 C 
ATOM     10  C   UNL     1      -3.181  -9.969  15.856  0.00  0.00    +0.043 C 
ATOM     11  C   UNL     1      -1.974 -10.770  15.370  0.00  0.00    +0.145 C 
ENDROOT
BRANCH   7  12
ATOM     12  C   UNL     1      -4.926 -11.049  17.412  0.00  0.00    -0.040 A 
ATOM     13  C   UNL     1      -6.115 -10.384  17.712  0.00  0.00    -0.047 A 
ATOM     14  C   UNL     1      -4.266 -11.777  18.401  0.00  0.00    +0.004 A 
ATOM     15  C   UNL     1      -6.644 -10.448  19.001  0.00  0.00    +0.003 A 
ATOM     16  C   UNL     1      -6.840  -9.598  16.669  0.00  0.00    +0.044 C 
ATOM     18  C   UNL     1      -4.794 -11.840  19.690  0.00  0.00    +0.000 A 
ATOM     19  C   UNL     1      -5.983 -11.175  19.991  0.00  0.00    +0.000 A 
ENDBRANCH   7  12
BRANCH   9   2
ATOM      2  O   UNL     1      -1.664 -13.005  14.481  0.00  0.00    -0.388 OA
ATOM     21  H   UNL     1      -1.135 -12.804  13.689  0.00  0.00    +0.210 HD
ENDBRANCH   9   2
BRANCH  11   3
ATOM      3  O   UNL     1      -1.228 -11.202  16.503  0.00  0.00    -0.389 OA
ATOM     22  H   UNL     1      -1.044 -12.151  16.388  0.00  0.00    +0.210 HD
ENDBRANCH  11   3
BRANCH   8   6
ATOM      6  N   UNL     1      -4.773 -13.108  14.795  0.00  0.00    -0.189 NA
ATOM     20  H   UNL     1      -5.567 -12.589  14.399  0.00  0.00    +0.148 HD
BRANCH   6   1
ATOM      1  S   UNL     1      -4.834 -14.802  14.958  0.00  0.00    +0.027 S 
ATOM      4  O   UNL     1      -3.505 -15.362  14.803  0.00  0.00    -0.158 OA
ATOM      5  O   UNL     1      -5.944 -15.295  14.165  0.00  0.00    -0.158 OA
ATOM     17  C   UNL     1      -5.295 -14.950  16.668  0.00  0.00    +0.214 C 
ENDBRANCH   6   1
ENDBRANCH   8   6
TORSDOF 5
ENDMDL
MODEL 6
REMARK VINA RESULT:      -5.1     13.359     15.250
REMARK  Name = 71693803
REMARK  7 active torsions:
REMARK  status: ('A' for Active; 'I' for Inactive)
REMARK    1  A    between atoms: S_1  and  N_6
REMARK    2  A    between atoms: S_1  and  C_17
REMARK    3  A    between atoms: O_2  and  C_9
REMARK    4  A    between atoms: O_3  and  C_11
REMARK    5  A    between atoms: N_6  and  C_8
REMARK    6  A    between atoms: C_7  and  C_12
REMARK    7  A    between atoms: C_13  and  C_16
REMARK                            x       y       z     vdW  Elec       q    Type
REMARK                         _______ _______ _______ _____ _____    ______ ____
ROOT
ATOM      7  C   UNL     1      18.054  -4.689  23.129  0.00  0.00    +0.043 C 
ATOM      8  C   UNL     1      18.312  -5.760  24.210  0.00  0.00    +0.115 C 
ATOM      9  C   UNL     1      19.017  -6.879  23.449  0.00  0.00    +0.162 C 
ATOM     10  C   UNL     1      19.100  -4.957  22.016  0.00  0.00    +0.043 C 
ATOM     11  C   UNL     1      19.954  -6.121  22.516  0.00  0.00    +0.145 C 
ENDROOT
BRANCH   7  12
ATOM     12  C   UNL     1      18.077  -3.278  23.678  0.00  0.00    -0.040 A 
ATOM     13  C   UNL     1      16.965  -2.444  23.559  0.00  0.00    -0.047 A 
ATOM     14  C   UNL     1      19.230  -2.816  24.311  0.00  0.00    +0.004 A 
ATOM     15  C   UNL     1      17.007  -1.147  24.072  0.00  0.00    +0.003 A 
ATOM     16  C   UNL     1      15.718  -2.917  22.885  0.00  0.00    +0.044 C 
ATOM     18  C   UNL     1      19.273  -1.520  24.824  0.00  0.00    +0.000 A 
ATOM     19  C   UNL     1      18.161  -0.685  24.704  0.00  0.00    +0.000 A 
ENDBRANCH   7  12
BRANCH   9   2
ATOM      2  O   UNL     1      19.740  -7.738  24.311  0.00  0.00    -0.388 OA
ATOM     21  H   UNL     1      20.294  -7.179  24.882  0.00  0.00    +0.210 HD
ENDBRANCH   9   2
BRANCH  11   3
ATOM      3  O   UNL     1      21.069  -5.595  23.229  0.00  0.00    -0.389 OA
ATOM     22  H   UNL     1      21.697  -6.325  23.370  0.00  0.00    +0.210 HD
ENDBRANCH  11   3
BRANCH   8   6
ATOM      6  N   UNL     1      17.027  -6.251  24.761  0.00  0.00    -0.189 NA
ATOM     20  H   UNL     1      16.176  -6.114  24.201  0.00  0.00    +0.148 HD
BRANCH   6   1
ATOM      1  S   UNL     1      16.927  -6.616  26.422  0.00  0.00    +0.027 S 
ATOM      4  O   UNL     1      17.833  -7.700  26.745  0.00  0.00    -0.158 OA
ATOM      5  O   UNL     1      15.525  -6.686  26.788  0.00  0.00    -0.158 OA
ATOM     17  C   UNL     1      17.585  -5.122  27.126  0.00  0.00    +0.214 C 
ENDBRANCH   6   1
ENDBRANCH   8   6
TORSDOF 5
ENDMDL
MODEL 7
REMARK VINA RESULT:      -5.0     24.833     26.428
REMARK  Name = 71693803
REMARK  7 active torsions:
REMARK  status: ('A' for Active; 'I' for Inactive)
REMARK    1  A    between atoms: S_1  and  N_6
REMARK    2  A    between atoms: S_1  and  C_17
REMARK    3  A    between atoms: O_2  and  C_9
REMARK    4  A    between atoms: O_3  and  C_11
REMARK    5  A    between atoms: N_6  and  C_8
REMARK    6  A    between atoms: C_7  and  C_12
REMARK    7  A    between atoms: C_13  and  C_16
REMARK                            x       y       z     vdW  Elec       q    Type
REMARK                         _______ _______ _______ _____ _____    ______ ____
ROOT
ATOM      7  C   UNL     1     -11.357   8.512  18.352  0.00  0.00    +0.043 C 
ATOM      8  C   UNL     1     -11.379   9.856  17.594  0.00  0.00    +0.115 C 
ATOM      9  C   UNL     1     -10.272   9.703  16.555  0.00  0.00    +0.162 C 
ATOM     10  C   UNL     1     -10.709   7.493  17.379  0.00  0.00    +0.043 C 
ATOM     11  C   UNL     1     -10.439   8.263  16.087  0.00  0.00    +0.145 C 
ENDROOT
BRANCH   7  12
ATOM     12  C   UNL     1     -12.721   8.102  18.865  0.00  0.00    -0.040 A 
ATOM     13  C   UNL     1     -12.859   7.439  20.085  0.00  0.00    -0.047 A 
ATOM     14  C   UNL     1     -13.849   8.397  18.101  0.00  0.00    +0.004 A 
ATOM     15  C   UNL     1     -14.125   7.070  20.540  0.00  0.00    +0.003 A 
ATOM     16  C   UNL     1     -11.665   7.112  20.921  0.00  0.00    +0.044 C 
ATOM     18  C   UNL     1     -15.115   8.028  18.556  0.00  0.00    +0.000 A 
ATOM     19  C   UNL     1     -15.253   7.364  19.775  0.00  0.00    +0.000 A 
ENDBRANCH   7  12
BRANCH   9   2
ATOM      2  O   UNL     1     -10.420  10.610  15.478  0.00  0.00    -0.388 OA
ATOM     21  H   UNL     1      -9.595  10.589  14.965  0.00  0.00    +0.210 HD
ENDBRANCH   9   2
BRANCH  11   3
ATOM      3  O   UNL     1     -11.571   8.131  15.232  0.00  0.00    -0.389 OA
ATOM     22  H   UNL     1     -11.308   7.567  14.484  0.00  0.00    +0.210 HD
ENDBRANCH  11   3
BRANCH   8   6
ATOM      6  N   UNL     1     -11.058  10.970  18.518  0.00  0.00    -0.189 NA
ATOM     20  H   UNL     1     -10.686  10.737  19.446  0.00  0.00    +0.148 HD
BRANCH   6   1
ATOM      1  S   UNL     1     -11.698  12.516  18.199  0.00  0.00    +0.027 S 
ATOM      4  O   UNL     1     -12.277  13.071  19.407  0.00  0.00    -0.158 OA
ATOM      5  O   UNL     1     -12.469  12.445  16.972  0.00  0.00    -0.158 OA
ATOM     17  C   UNL     1     -10.210  13.419  17.839  0.00  0.00    +0.214 C 
ENDBRANCH   6   1
ENDBRANCH   8   6
TORSDOF 5
ENDMDL
MODEL 8
REMARK VINA RESULT:      -4.9     26.276     28.054
REMARK  Name = 71693803
REMARK  7 active torsions:
REMARK  status: ('A' for Active; 'I' for Inactive)
REMARK    1  A    between atoms: S_1  and  N_6
REMARK    2  A    between atoms: S_1  and  C_17
REMARK    3  A    between atoms: O_2  and  C_9
REMARK    4  A    between atoms: O_3  and  C_11
REMARK    5  A    between atoms: N_6  and  C_8
REMARK    6  A    between atoms: C_7  and  C_12
REMARK    7  A    between atoms: C_13  and  C_16
REMARK                            x       y       z     vdW  Elec       q    Type
REMARK                         _______ _______ _______ _____ _____    ______ ____
ROOT
ATOM      7  C   UNL     1      -5.490 -11.415  16.699  0.00  0.00    +0.043 C 
ATOM      8  C   UNL     1      -6.001 -10.262  17.587  0.00  0.00    +0.115 C 
ATOM      9  C   UNL     1      -6.672 -10.976  18.757  0.00  0.00    +0.162 C 
ATOM     10  C   UNL     1      -5.353 -12.640  17.640  0.00  0.00    +0.043 C 
ATOM     11  C   UNL     1      -5.728 -12.140  19.034  0.00  0.00    +0.145 C 
ENDROOT
BRANCH   7  12
ATOM     12  C   UNL     1      -4.224 -11.064  15.946  0.00  0.00    -0.040 A 
ATOM     13  C   UNL     1      -4.238 -10.886  14.562  0.00  0.00    -0.047 A 
ATOM     14  C   UNL     1      -3.033 -10.918  16.655  0.00  0.00    +0.004 A 
ATOM     15  C   UNL     1      -3.060 -10.563  13.888  0.00  0.00    +0.003 A 
ATOM     16  C   UNL     1      -5.502 -11.038  13.781  0.00  0.00    +0.044 C 
ATOM     18  C   UNL     1      -1.855 -10.594  15.982  0.00  0.00    +0.000 A 
ATOM     19  C   UNL     1      -1.869 -10.417  14.598  0.00  0.00    +0.000 A 
ENDBRANCH   7  12
BRANCH   9   2
ATOM      2  O   UNL     1      -6.800 -10.141  19.892  0.00  0.00    -0.388 OA
ATOM     21  H   UNL     1      -7.748  -9.968  20.020  0.00  0.00    +0.210 HD
ENDBRANCH   9   2
BRANCH  11   3
ATOM      3  O   UNL     1      -4.546 -11.692  19.691  0.00  0.00    -0.389 OA
ATOM     22  H   UNL     1      -4.091 -11.078  19.088  0.00  0.00    +0.210 HD
ENDBRANCH  11   3
BRANCH   8   6
ATOM      6  N   UNL     1      -6.997  -9.449  16.849  0.00  0.00    -0.189 NA
ATOM     20  H   UNL     1      -6.765  -8.471  16.639  0.00  0.00    +0.148 HD
BRANCH   6   1
ATOM      1  S   UNL     1      -8.606 -10.001  16.755  0.00  0.00    +0.027 S 
ATOM      4  O   UNL     1      -9.253  -9.859  18.045  0.00  0.00    -0.158 OA
ATOM      5  O   UNL     1      -8.610 -11.274  16.059  0.00  0.00    -0.158 OA
ATOM     17  C   UNL     1      -9.304  -8.792  15.655  0.00  0.00    +0.214 C 
ENDBRANCH   6   1
ENDBRANCH   8   6
TORSDOF 5
ENDMDL
MODEL 9
REMARK VINA RESULT:      -4.9      2.110      3.467
REMARK  Name = 71693803
REMARK  7 active torsions:
REMARK  status: ('A' for Active; 'I' for Inactive)
REMARK    1  A    between atoms: S_1  and  N_6
REMARK    2  A    between atoms: S_1  and  C_17
REMARK    3  A    between atoms: O_2  and  C_9
REMARK    4  A    between atoms: O_3  and  C_11
REMARK    5  A    between atoms: N_6  and  C_8
REMARK    6  A    between atoms: C_7  and  C_12
REMARK    7  A    between atoms: C_13  and  C_16
REMARK                            x       y       z     vdW  Elec       q    Type
REMARK                         _______ _______ _______ _____ _____    ______ ____
ROOT
ATOM      7  C   UNL     1      12.557   9.202  20.302  0.00  0.00    +0.043 C 
ATOM      8  C   UNL     1      12.747  10.386  21.273  0.00  0.00    +0.115 C 
ATOM      9  C   UNL     1      11.332  10.688  21.756  0.00  0.00    +0.162 C 
ATOM     10  C   UNL     1      11.225   8.527  20.719  0.00  0.00    +0.043 C 
ATOM     11  C   UNL     1      10.730   9.300  21.941  0.00  0.00    +0.145 C 
ENDROOT
BRANCH   7  12
ATOM     12  C   UNL     1      13.747   8.265  20.273  0.00  0.00    -0.040 A 
ATOM     13  C   UNL     1      14.259   7.793  19.064  0.00  0.00    -0.047 A 
ATOM     14  C   UNL     1      14.332   7.877  21.477  0.00  0.00    +0.004 A 
ATOM     15  C   UNL     1      15.356   6.931  19.060  0.00  0.00    +0.003 A 
ATOM     16  C   UNL     1      13.648   8.195  17.762  0.00  0.00    +0.044 C 
ATOM     18  C   UNL     1      15.429   7.014  21.473  0.00  0.00    +0.000 A 
ATOM     19  C   UNL     1      15.941   6.541  20.265  0.00  0.00    +0.000 A 
ENDBRANCH   7  12
BRANCH   9   2
ATOM      2  O   UNL     1      11.325  11.413  22.971  0.00  0.00    -0.388 OA
ATOM     21  H   UNL     1      10.436  11.794  23.077  0.00  0.00    +0.210 HD
ENDBRANCH   9   2
BRANCH  11   3
ATOM      3  O   UNL     1      11.240   8.674  23.114  0.00  0.00    -0.389 OA
ATOM     22  H   UNL     1      10.552   8.734  23.800  0.00  0.00    +0.210 HD
ENDBRANCH  11   3
BRANCH   8   6
ATOM      6  N   UNL     1      13.299  11.557  20.551  0.00  0.00    -0.189 NA
ATOM     20  H   UNL     1      12.763  11.936  19.761  0.00  0.00    +0.148 HD
BRANCH   6   1
ATOM      1  S   UNL     1      14.943  11.953  20.757  0.00  0.00    +0.027 S 
ATOM      4  O   UNL     1      15.501  11.193  21.858  0.00  0.00    -0.158 OA
ATOM      5  O   UNL     1      15.071  13.398  20.711  0.00  0.00    -0.158 OA
ATOM     17  C   UNL     1      15.627  11.312  19.247  0.00  0.00    +0.214 C 
ENDBRANCH   6   1
ENDBRANCH   8   6
TORSDOF 5
ENDMDL
MODEL 10
REMARK VINA RESULT:      -4.9     26.808     27.724
REMARK  Name = 71693803
REMARK  7 active torsions:
REMARK  status: ('A' for Active; 'I' for Inactive)
REMARK    1  A    between atoms: S_1  and  N_6
REMARK    2  A    between atoms: S_1  and  C_17
REMARK    3  A    between atoms: O_2  and  C_9
REMARK    4  A    between atoms: O_3  and  C_11
REMARK    5  A    between atoms: N_6  and  C_8
REMARK    6  A    between atoms: C_7  and  C_12
REMARK    7  A    between atoms: C_13  and  C_16
REMARK                            x       y       z     vdW  Elec       q    Type
REMARK                         _______ _______ _______ _____ _____    ______ ____
ROOT
ATOM      7  C   UNL     1      -4.471 -11.216  13.514  0.00  0.00    +0.043 C 
ATOM      8  C   UNL     1      -3.888 -10.575  14.791  0.00  0.00    +0.115 C 
ATOM      9  C   UNL     1      -3.452 -11.772  15.630  0.00  0.00    +0.162 C 
ATOM     10  C   UNL     1      -3.821 -12.622  13.418  0.00  0.00    +0.043 C 
ATOM     11  C   UNL     1      -2.853 -12.716  14.595  0.00  0.00    +0.145 C 
ENDROOT
BRANCH   7  12
ATOM     12  C   UNL     1      -4.280 -10.357  12.282  0.00  0.00    -0.040 A 
ATOM     13  C   UNL     1      -5.325  -9.581  11.780  0.00  0.00    -0.047 A 
ATOM     14  C   UNL     1      -3.038 -10.347  11.649  0.00  0.00    +0.004 A 
ATOM     15  C   UNL     1      -5.128  -8.797  10.643  0.00  0.00    +0.003 A 
ATOM     16  C   UNL     1      -6.665  -9.576  12.441  0.00  0.00    +0.044 C 
ATOM     18  C   UNL     1      -2.841  -9.562  10.512  0.00  0.00    +0.000 A 
ATOM     19  C   UNL     1      -3.886  -8.787  10.009  0.00  0.00    +0.000 A 
ENDBRANCH   7  12
BRANCH   9   2
ATOM      2  O   UNL     1      -2.497 -11.418  16.612  0.00  0.00    -0.388 OA
ATOM     21  H   UNL     1      -2.836 -10.634  17.079  0.00  0.00    +0.210 HD
ENDBRANCH   9   2
BRANCH  11   3
ATOM      3  O   UNL     1      -1.572 -12.261  14.170  0.00  0.00    -0.389 OA
ATOM     22  H   UNL     1      -1.627 -12.085  13.215  0.00  0.00    +0.210 HD
ENDBRANCH  11   3
BRANCH   8   6
ATOM      6  N   UNL     1      -4.938  -9.809  15.504  0.00  0.00    -0.189 NA
ATOM     20  H   UNL     1      -4.876  -8.783  15.499  0.00  0.00    +0.148 HD
BRANCH   6   1
ATOM      1  S   UNL     1      -5.928 -10.617  16.630  0.00  0.00    +0.027 S 
ATOM      4  O   UNL     1      -5.225 -10.767  17.889  0.00  0.00    -0.158 OA
ATOM      5  O   UNL     1      -6.523 -11.764  15.970  0.00  0.00    -0.158 OA
ATOM     17  C   UNL     1      -7.214  -9.412  16.860  0.00  0.00    +0.214 C 
ENDBRANCH   6   1
ENDBRANCH   8   6
TORSDOF 5
ENDMDL
