MODEL 1
REMARK VINA RESULT:      -7.1      0.000      0.000
REMARK  Name = 45784318
REMARK  4 active torsions:
REMARK  status: ('A' for Active; 'I' for Inactive)
REMARK    1  A    between atoms: N_3  and  C_12
REMARK    2  A    between atoms: C_7  and  C_11
REMARK    3  A    between atoms: C_12  and  C_13
REMARK    4  A    between atoms: C_20  and  C_25
REMARK                            x       y       z     vdW  Elec       q    Type
REMARK                         _______ _______ _______ _____ _____    ______ ____
ROOT
ATOM      3  N   UNL     1      11.491   9.467  21.424  0.00  0.00    -0.297 NA
ATOM      7  C   UNL     1      13.259   8.943  19.975  0.00  0.00    +0.070 C 
ATOM      8  C   UNL     1      11.988   8.199  19.527  0.00  0.00    +0.028 C 
ATOM      9  C   UNL     1      12.954   9.405  21.407  0.00  0.00    +0.096 C 
ATOM     10  C   UNL     1      11.054   8.257  20.729  0.00  0.00    +0.085 C 
ENDROOT
BRANCH   7  11
ATOM      4  N   UNL     1      15.571   8.340  20.741  0.00  0.00    -0.342 N 
ATOM      5  N   UNL     1      14.803   7.198  18.997  0.00  0.00    -0.232 NA
ATOM     11  C   UNL     1      14.534   8.139  19.875  0.00  0.00    +0.113 A 
ATOM     14  C   UNL     1      16.576   7.472  20.401  0.00  0.00    +0.067 A 
ATOM     15  C   UNL     1      16.072   6.770  19.310  0.00  0.00    +0.089 A 
ATOM     18  C   UNL     1      17.844   7.246  20.939  0.00  0.00    +0.046 A 
ATOM     19  C   UNL     1      16.866   5.781  18.705  0.00  0.00    +0.031 A 
ATOM     20  C   UNL     1      18.621   6.258  20.325  0.00  0.00    +0.054 A 
ATOM     21  C   UNL     1      18.143   5.538  19.227  0.00  0.00    +0.021 A 
ATOM     26  H   UNL     1      15.596   9.009  21.500  0.00  0.00    +0.167 HD
BRANCH  20  25
ATOM      6  N   UNL     1      20.992   5.760  21.242  0.00  0.00    -0.191 NA
ATOM     25  C   UNL     1      19.930   5.983  20.831  0.00  0.00    +0.099 C 
ENDBRANCH  20  25
ENDBRANCH   7  11
BRANCH   3  12
ATOM     12  C   UNL     1      10.955   9.555  22.775  0.00  0.00    +0.119 C 
BRANCH  12  13
ATOM      1  F   UNL     1      10.874  14.374  22.009  0.00  0.00    -0.202 F 
ATOM      2  F   UNL     1      10.967  14.849  24.700  0.00  0.00    -0.202 F 
ATOM     13  C   UNL     1      10.958  10.969  23.290  0.00  0.00    -0.030 A 
ATOM     16  C   UNL     1      10.914  12.037  22.393  0.00  0.00    +0.046 A 
ATOM     17  C   UNL     1      11.005  11.212  24.662  0.00  0.00    +0.008 A 
ATOM     22  C   UNL     1      10.916  13.348  22.869  0.00  0.00    +0.159 A 
ATOM     23  C   UNL     1      11.009  12.523  25.139  0.00  0.00    +0.041 A 
ATOM     24  C   UNL     1      10.964  13.592  24.242  0.00  0.00    +0.158 A 
ENDBRANCH  12  13
ENDBRANCH   3  12
TORSDOF 4
ENDMDL
MODEL 2
REMARK VINA RESULT:      -7.1     25.998     29.387
REMARK  Name = 45784318
REMARK  4 active torsions:
REMARK  status: ('A' for Active; 'I' for Inactive)
REMARK    1  A    between atoms: N_3  and  C_12
REMARK    2  A    between atoms: C_7  and  C_11
REMARK    3  A    between atoms: C_12  and  C_13
REMARK    4  A    between atoms: C_20  and  C_25
REMARK                            x       y       z     vdW  Elec       q    Type
REMARK                         _______ _______ _______ _____ _____    ______ ____
ROOT
ATOM      3  N   UNL     1     -13.380   6.743  20.947  0.00  0.00    -0.297 NA
ATOM      7  C   UNL     1     -14.796   5.037  21.713  0.00  0.00    +0.070 C 
ATOM      8  C   UNL     1     -15.631   6.122  21.011  0.00  0.00    +0.028 C 
ATOM      9  C   UNL     1     -13.436   5.702  21.975  0.00  0.00    +0.096 C 
ATOM     10  C   UNL     1     -14.716   7.339  20.940  0.00  0.00    +0.085 C 
ENDROOT
BRANCH   7  11
ATOM      4  N   UNL     1     -15.851   3.167  23.012  0.00  0.00    -0.342 N 
ATOM      5  N   UNL     1     -15.627   5.093  24.099  0.00  0.00    -0.232 NA
ATOM     11  C   UNL     1     -15.422   4.464  22.963  0.00  0.00    +0.113 A 
ATOM     14  C   UNL     1     -16.366   2.944  24.262  0.00  0.00    +0.067 A 
ATOM     15  C   UNL     1     -16.215   4.160  24.921  0.00  0.00    +0.089 A 
ATOM     18  C   UNL     1     -16.935   1.815  24.856  0.00  0.00    +0.046 A 
ATOM     19  C   UNL     1     -16.652   4.277  26.252  0.00  0.00    +0.031 A 
ATOM     20  C   UNL     1     -17.364   1.949  26.180  0.00  0.00    +0.054 A 
ATOM     21  C   UNL     1     -17.226   3.158  26.868  0.00  0.00    +0.021 A 
ATOM     26  H   UNL     1     -15.799   2.491  22.262  0.00  0.00    +0.167 HD
BRANCH  20  25
ATOM      6  N   UNL     1     -18.434  -0.083  27.378  0.00  0.00    -0.191 NA
ATOM     25  C   UNL     1     -17.955   0.828  26.841  0.00  0.00    +0.099 C 
ENDBRANCH  20  25
ENDBRANCH   7  11
BRANCH   3  12
ATOM     12  C   UNL     1     -12.338   7.725  21.209  0.00  0.00    +0.119 C 
BRANCH  12  13
ATOM      1  F   UNL     1      -9.997  11.112  18.588  0.00  0.00    -0.202 F 
ATOM      2  F   UNL     1      -9.790   9.395  16.470  0.00  0.00    -0.202 F 
ATOM     13  C   UNL     1     -11.657   8.171  19.942  0.00  0.00    -0.030 A 
ATOM     16  C   UNL     1     -11.132   9.460  19.851  0.00  0.00    +0.046 A 
ATOM     17  C   UNL     1     -11.551   7.296  18.862  0.00  0.00    +0.008 A 
ATOM     22  C   UNL     1     -10.501   9.874  18.677  0.00  0.00    +0.159 A 
ATOM     23  C   UNL     1     -10.921   7.709  17.688  0.00  0.00    +0.041 A 
ATOM     24  C   UNL     1     -10.395   8.999  17.596  0.00  0.00    +0.158 A 
ENDBRANCH  12  13
ENDBRANCH   3  12
TORSDOF 4
ENDMDL
MODEL 3
REMARK VINA RESULT:      -7.0     26.990     29.529
REMARK  Name = 45784318
REMARK  4 active torsions:
REMARK  status: ('A' for Active; 'I' for Inactive)
REMARK    1  A    between atoms: N_3  and  C_12
REMARK    2  A    between atoms: C_7  and  C_11
REMARK    3  A    between atoms: C_12  and  C_13
REMARK    4  A    between atoms: C_20  and  C_25
REMARK                            x       y       z     vdW  Elec       q    Type
REMARK                         _______ _______ _______ _____ _____    ______ ____
ROOT
ATOM      3  N   UNL     1      -2.231 -11.044  13.661  0.00  0.00    -0.297 NA
ATOM      7  C   UNL     1      -3.305 -10.294  15.605  0.00  0.00    +0.070 C 
ATOM      8  C   UNL     1      -1.902 -10.816  15.962  0.00  0.00    +0.028 C 
ATOM      9  C   UNL     1      -3.578 -10.842  14.197  0.00  0.00    +0.096 C 
ATOM     10  C   UNL     1      -1.474 -11.646  14.758  0.00  0.00    +0.085 C 
ENDROOT
BRANCH   7  11
ATOM      4  N   UNL     1      -5.585  -9.996  16.611  0.00  0.00    -0.342 N 
ATOM      5  N   UNL     1      -4.328 -11.585  17.522  0.00  0.00    -0.232 NA
ATOM     11  C   UNL     1      -4.388 -10.653  16.597  0.00  0.00    +0.113 A 
ATOM     14  C   UNL     1      -6.350 -10.540  17.610  0.00  0.00    +0.067 A 
ATOM     15  C   UNL     1      -5.543 -11.529  18.164  0.00  0.00    +0.089 A 
ATOM     18  C   UNL     1      -7.640 -10.260  18.063  0.00  0.00    +0.046 A 
ATOM     19  C   UNL     1      -6.035 -12.295  19.234  0.00  0.00    +0.031 A 
ATOM     20  C   UNL     1      -8.114 -11.031  19.129  0.00  0.00    +0.054 A 
ATOM     21  C   UNL     1      -7.327 -12.030  19.707  0.00  0.00    +0.021 A 
ATOM     26  H   UNL     1      -5.862  -9.243  15.995  0.00  0.00    +0.167 HD
BRANCH  20  25
ATOM      6  N   UNL     1     -10.496 -10.593  20.050  0.00  0.00    -0.191 NA
ATOM     25  C   UNL     1      -9.429 -10.789  19.637  0.00  0.00    +0.099 C 
ENDBRANCH  20  25
ENDBRANCH   7  11
BRANCH   3  12
ATOM     12  C   UNL     1      -2.228 -11.875  12.465  0.00  0.00    +0.119 C 
BRANCH  12  13
ATOM      1  F   UNL     1      -5.212 -11.934   8.604  0.00  0.00    -0.202 F 
ATOM      2  F   UNL     1      -4.701  -9.293   8.110  0.00  0.00    -0.202 F 
ATOM     13  C   UNL     1      -2.889 -11.185  11.302  0.00  0.00    -0.030 A 
ATOM     16  C   UNL     1      -3.762 -11.893  10.476  0.00  0.00    +0.046 A 
ATOM     17  C   UNL     1      -2.628  -9.838  11.050  0.00  0.00    +0.008 A 
ATOM     22  C   UNL     1      -4.374 -11.254   9.398  0.00  0.00    +0.159 A 
ATOM     23  C   UNL     1      -3.240  -9.199   9.971  0.00  0.00    +0.041 A 
ATOM     24  C   UNL     1      -4.114  -9.907   9.145  0.00  0.00    +0.158 A 
ENDBRANCH  12  13
ENDBRANCH   3  12
TORSDOF 4
ENDMDL
MODEL 4
REMARK VINA RESULT:      -7.0     25.651     29.056
REMARK  Name = 45784318
REMARK  4 active torsions:
REMARK  status: ('A' for Active; 'I' for Inactive)
REMARK    1  A    between atoms: N_3  and  C_12
REMARK    2  A    between atoms: C_7  and  C_11
REMARK    3  A    between atoms: C_12  and  C_13
REMARK    4  A    between atoms: C_20  and  C_25
REMARK                            x       y       z     vdW  Elec       q    Type
REMARK                         _______ _______ _______ _____ _____    ______ ____
ROOT
ATOM      3  N   UNL     1     -12.941   6.943  20.673  0.00  0.00    -0.297 NA
ATOM      7  C   UNL     1     -14.792   5.754  21.485  0.00  0.00    +0.070 C 
ATOM      8  C   UNL     1     -15.209   7.200  21.167  0.00  0.00    +0.028 C 
ATOM      9  C   UNL     1     -13.257   5.790  21.519  0.00  0.00    +0.096 C 
ATOM     10  C   UNL     1     -13.900   7.974  21.066  0.00  0.00    +0.085 C 
ENDROOT
BRANCH   7  11
ATOM      4  N   UNL     1     -15.264   3.859  23.061  0.00  0.00    -0.342 N 
ATOM      5  N   UNL     1     -16.085   5.837  23.655  0.00  0.00    -0.232 NA
ATOM     11  C   UNL     1     -15.395   5.182  22.747  0.00  0.00    +0.113 A 
ATOM     14  C   UNL     1     -15.911   3.644  24.251  0.00  0.00    +0.067 A 
ATOM     15  C   UNL     1     -16.414   4.894  24.601  0.00  0.00    +0.089 A 
ATOM     18  C   UNL     1     -16.093   2.499  25.028  0.00  0.00    +0.046 A 
ATOM     19  C   UNL     1     -17.146   5.028  25.793  0.00  0.00    +0.031 A 
ATOM     20  C   UNL     1     -16.823   2.651  26.211  0.00  0.00    +0.054 A 
ATOM     21  C   UNL     1     -17.342   3.892  26.588  0.00  0.00    +0.021 A 
ATOM     26  H   UNL     1     -14.777   3.160  22.516  0.00  0.00    +0.167 HD
BRANCH  20  25
ATOM      6  N   UNL     1     -17.220   0.589  27.728  0.00  0.00    -0.191 NA
ATOM     25  C   UNL     1     -17.042   1.513  27.048  0.00  0.00    +0.099 C 
ENDBRANCH  20  25
ENDBRANCH   7  11
BRANCH   3  12
ATOM     12  C   UNL     1     -11.561   7.382  20.827  0.00  0.00    +0.119 C 
BRANCH  12  13
ATOM      1  F   UNL     1     -10.482   7.671  16.076  0.00  0.00    -0.202 F 
ATOM      2  F   UNL     1      -9.776  10.298  16.349  0.00  0.00    -0.202 F 
ATOM     13  C   UNL     1     -11.084   8.161  19.630  0.00  0.00    -0.030 A 
ATOM     16  C   UNL     1     -11.003   7.542  18.383  0.00  0.00    +0.046 A 
ATOM     17  C   UNL     1     -10.724   9.501  19.770  0.00  0.00    +0.008 A 
ATOM     22  C   UNL     1     -10.561   8.265  17.274  0.00  0.00    +0.159 A 
ATOM     23  C   UNL     1     -10.281  10.223  18.661  0.00  0.00    +0.041 A 
ATOM     24  C   UNL     1     -10.200   9.605  17.413  0.00  0.00    +0.158 A 
ENDBRANCH  12  13
ENDBRANCH   3  12
TORSDOF 4
ENDMDL
MODEL 5
REMARK VINA RESULT:      -6.9      6.188     11.412
REMARK  Name = 45784318
REMARK  4 active torsions:
REMARK  status: ('A' for Active; 'I' for Inactive)
REMARK    1  A    between atoms: N_3  and  C_12
REMARK    2  A    between atoms: C_7  and  C_11
REMARK    3  A    between atoms: C_12  and  C_13
REMARK    4  A    between atoms: C_20  and  C_25
REMARK                            x       y       z     vdW  Elec       q    Type
REMARK                         _______ _______ _______ _____ _____    ______ ____
ROOT
ATOM      3  N   UNL     1      21.380   4.992  21.232  0.00  0.00    -0.297 NA
ATOM      7  C   UNL     1      19.726   6.574  20.720  0.00  0.00    +0.070 C 
ATOM      8  C   UNL     1      20.336   6.894  22.096  0.00  0.00    +0.028 C 
ATOM      9  C   UNL     1      20.165   5.133  20.426  0.00  0.00    +0.096 C 
ATOM     10  C   UNL     1      21.056   5.619  22.514  0.00  0.00    +0.085 C 
ENDROOT
BRANCH   7  11
ATOM      4  N   UNL     1      17.516   7.292  21.668  0.00  0.00    -0.342 N 
ATOM      5  N   UNL     1      17.461   6.466  19.605  0.00  0.00    -0.232 NA
ATOM     11  C   UNL     1      18.230   6.764  20.629  0.00  0.00    +0.113 A 
ATOM     14  C   UNL     1      16.199   7.339  21.290  0.00  0.00    +0.067 A 
ATOM     15  C   UNL     1      16.190   6.818  20.000  0.00  0.00    +0.089 A 
ATOM     18  C   UNL     1      15.048   7.779  21.947  0.00  0.00    +0.046 A 
ATOM     19  C   UNL     1      14.971   6.723  19.307  0.00  0.00    +0.031 A 
ATOM     20  C   UNL     1      13.844   7.677  21.243  0.00  0.00    +0.054 A 
ATOM     21  C   UNL     1      13.804   7.157  19.947  0.00  0.00    +0.021 A 
ATOM     26  H   UNL     1      17.889   7.595  22.557  0.00  0.00    +0.167 HD
BRANCH  20  25
ATOM      6  N   UNL     1      11.648   8.464  22.370  0.00  0.00    -0.191 NA
ATOM     25  C   UNL     1      12.632   8.111  21.865  0.00  0.00    +0.099 C 
ENDBRANCH  20  25
ENDBRANCH   7  11
BRANCH   3  12
ATOM     12  C   UNL     1      21.789   3.603  21.381  0.00  0.00    +0.119 C 
BRANCH  12  13
ATOM      1  F   UNL     1      25.894   5.126  19.226  0.00  0.00    -0.202 F 
ATOM      2  F   UNL     1      27.197   2.847  19.994  0.00  0.00    -0.202 F 
ATOM     13  C   UNL     1      23.234   3.401  21.011  0.00  0.00    -0.030 A 
ATOM     16  C   UNL     1      23.908   4.377  20.276  0.00  0.00    +0.046 A 
ATOM     17  C   UNL     1      23.898   2.239  21.403  0.00  0.00    +0.008 A 
ATOM     22  C   UNL     1      25.247   4.190  19.933  0.00  0.00    +0.159 A 
ATOM     23  C   UNL     1      25.237   2.052  21.059  0.00  0.00    +0.041 A 
ATOM     24  C   UNL     1      25.912   3.027  20.324  0.00  0.00    +0.158 A 
ENDBRANCH  12  13
ENDBRANCH   3  12
TORSDOF 4
ENDMDL
MODEL 6
REMARK VINA RESULT:      -6.8     27.624     29.976
REMARK  Name = 45784318
REMARK  4 active torsions:
REMARK  status: ('A' for Active; 'I' for Inactive)
REMARK    1  A    between atoms: N_3  and  C_12
REMARK    2  A    between atoms: C_7  and  C_11
REMARK    3  A    between atoms: C_12  and  C_13
REMARK    4  A    between atoms: C_20  and  C_25
REMARK                            x       y       z     vdW  Elec       q    Type
REMARK                         _______ _______ _______ _____ _____    ______ ____
ROOT
ATOM      3  N   UNL     1     -11.659  -7.780  14.997  0.00  0.00    -0.297 NA
ATOM      7  C   UNL     1     -10.313  -8.731  16.665  0.00  0.00    +0.070 C 
ATOM      8  C   UNL     1     -10.535  -7.239  16.971  0.00  0.00    +0.028 C 
ATOM      9  C   UNL     1     -10.727  -8.892  15.196  0.00  0.00    +0.096 C 
ATOM     10  C   UNL     1     -11.032  -6.638  15.663  0.00  0.00    +0.085 C 
ENDROOT
BRANCH   7  11
ATOM      4  N   UNL     1      -7.925  -9.131  16.006  0.00  0.00    -0.342 N 
ATOM      5  N   UNL     1      -8.490  -9.804  18.047  0.00  0.00    -0.232 NA
ATOM     11  C   UNL     1      -8.915  -9.234  16.942  0.00  0.00    +0.113 A 
ATOM     14  C   UNL     1      -6.783  -9.669  16.543  0.00  0.00    +0.067 A 
ATOM     15  C   UNL     1      -7.162 -10.082  17.817  0.00  0.00    +0.089 A 
ATOM     18  C   UNL     1      -5.491  -9.825  16.039  0.00  0.00    +0.046 A 
ATOM     19  C   UNL     1      -6.209 -10.690  18.652  0.00  0.00    +0.031 A 
ATOM     20  C   UNL     1      -4.555 -10.431  16.883  0.00  0.00    +0.054 A 
ATOM     21  C   UNL     1      -4.906 -10.857  18.166  0.00  0.00    +0.021 A 
ATOM     26  H   UNL     1      -8.013  -8.729  15.082  0.00  0.00    +0.167 HD
BRANCH  20  25
ATOM      6  N   UNL     1      -2.127 -10.770  16.046  0.00  0.00    -0.191 NA
ATOM     25  C   UNL     1      -3.215 -10.618  16.421  0.00  0.00    +0.099 C 
ENDBRANCH  20  25
ENDBRANCH   7  11
BRANCH   3  12
ATOM     12  C   UNL     1     -11.924  -7.523  13.589  0.00  0.00    +0.119 C 
BRANCH  12  13
ATOM      1  F   UNL     1     -12.442  -2.896  12.127  0.00  0.00    -0.202 F 
ATOM      2  F   UNL     1     -15.078  -2.913  12.853  0.00  0.00    -0.202 F 
ATOM     13  C   UNL     1     -12.767  -6.292  13.392  0.00  0.00    -0.030 A 
ATOM     16  C   UNL     1     -12.203  -5.142  12.840  0.00  0.00    +0.046 A 
ATOM     17  C   UNL     1     -14.112  -6.300  13.762  0.00  0.00    +0.008 A 
ATOM     22  C   UNL     1     -12.984  -4.001  12.657  0.00  0.00    +0.159 A 
ATOM     23  C   UNL     1     -14.893  -5.159  13.580  0.00  0.00    +0.041 A 
ATOM     24  C   UNL     1     -14.329  -4.008  13.027  0.00  0.00    +0.158 A 
ENDBRANCH  12  13
ENDBRANCH   3  12
TORSDOF 4
ENDMDL
MODEL 7
REMARK VINA RESULT:      -6.7     26.830     30.089
REMARK  Name = 45784318
REMARK  4 active torsions:
REMARK  status: ('A' for Active; 'I' for Inactive)
REMARK    1  A    between atoms: N_3  and  C_12
REMARK    2  A    between atoms: C_7  and  C_11
REMARK    3  A    between atoms: C_12  and  C_13
REMARK    4  A    between atoms: C_20  and  C_25
REMARK                            x       y       z     vdW  Elec       q    Type
REMARK                         _______ _______ _______ _____ _____    ______ ____
ROOT
ATOM      3  N   UNL     1     -15.293   6.317  21.869  0.00  0.00    -0.297 NA
ATOM      7  C   UNL     1     -16.040   4.316  22.836  0.00  0.00    +0.070 C 
ATOM      8  C   UNL     1     -17.248   5.205  22.497  0.00  0.00    +0.028 C 
ATOM      9  C   UNL     1     -14.831   5.260  22.771  0.00  0.00    +0.096 C 
ATOM     10  C   UNL     1     -16.666   6.597  22.288  0.00  0.00    +0.085 C 
ENDROOT
BRANCH   7  11
ATOM      4  N   UNL     1     -15.818   4.188  25.333  0.00  0.00    -0.342 N 
ATOM      5  N   UNL     1     -16.529   2.336  24.330  0.00  0.00    -0.232 NA
ATOM     11  C   UNL     1     -16.142   3.580  24.153  0.00  0.00    +0.113 A 
ATOM     14  C   UNL     1     -16.010   3.277  26.340  0.00  0.00    +0.067 A 
ATOM     15  C   UNL     1     -16.454   2.130  25.688  0.00  0.00    +0.089 A 
ATOM     18  C   UNL     1     -15.840   3.355  27.723  0.00  0.00    +0.046 A 
ATOM     19  C   UNL     1     -16.749   0.983  26.444  0.00  0.00    +0.031 A 
ATOM     20  C   UNL     1     -16.138   2.205  28.460  0.00  0.00    +0.054 A 
ATOM     21  C   UNL     1     -16.583   1.038  27.834  0.00  0.00    +0.021 A 
ATOM     26  H   UNL     1     -15.496   5.139  25.448  0.00  0.00    +0.167 HD
BRANCH  20  25
ATOM      6  N   UNL     1     -15.854   2.242  31.035  0.00  0.00    -0.191 NA
ATOM     25  C   UNL     1     -15.982   2.226  29.881  0.00  0.00    +0.099 C 
ENDBRANCH  20  25
ENDBRANCH   7  11
BRANCH   3  12
ATOM     12  C   UNL     1     -14.446   7.500  21.919  0.00  0.00    +0.119 C 
BRANCH  12  13
ATOM      1  F   UNL     1     -13.486   8.035  17.165  0.00  0.00    -0.202 F 
ATOM      2  F   UNL     1     -10.814   7.667  17.616  0.00  0.00    -0.202 F 
ATOM     13  C   UNL     1     -13.475   7.544  20.770  0.00  0.00    -0.030 A 
ATOM     16  C   UNL     1     -13.940   7.774  19.474  0.00  0.00    +0.046 A 
ATOM     17  C   UNL     1     -12.112   7.356  21.000  0.00  0.00    +0.008 A 
ATOM     22  C   UNL     1     -13.040   7.815  18.409  0.00  0.00    +0.159 A 
ATOM     23  C   UNL     1     -11.213   7.397  19.934  0.00  0.00    +0.041 A 
ATOM     24  C   UNL     1     -11.677   7.627  18.638  0.00  0.00    +0.158 A 
ENDBRANCH  12  13
ENDBRANCH   3  12
TORSDOF 4
ENDMDL
MODEL 8
REMARK VINA RESULT:      -6.6     27.503     30.553
REMARK  Name = 45784318
REMARK  4 active torsions:
REMARK  status: ('A' for Active; 'I' for Inactive)
REMARK    1  A    between atoms: N_3  and  C_12
REMARK    2  A    between atoms: C_7  and  C_11
REMARK    3  A    between atoms: C_12  and  C_13
REMARK    4  A    between atoms: C_20  and  C_25
REMARK                            x       y       z     vdW  Elec       q    Type
REMARK                         _______ _______ _______ _____ _____    ______ ____
ROOT
ATOM      3  N   UNL     1     -16.609   1.839  28.090  0.00  0.00    -0.297 NA
ATOM      7  C   UNL     1     -17.105   3.219  26.260  0.00  0.00    +0.070 C 
ATOM      8  C   UNL     1     -17.686   1.815  26.018  0.00  0.00    +0.028 C 
ATOM      9  C   UNL     1     -16.103   3.033  27.409  0.00  0.00    +0.096 C 
ATOM     10  C   UNL     1     -16.967   0.915  27.015  0.00  0.00    +0.085 C 
ENDROOT
BRANCH   7  11
ATOM      4  N   UNL     1     -15.153   4.142  24.981  0.00  0.00    -0.342 N 
ATOM      5  N   UNL     1     -17.119   4.244  23.950  0.00  0.00    -0.232 NA
ATOM     11  C   UNL     1     -16.491   3.871  25.043  0.00  0.00    +0.113 A 
ATOM     14  C   UNL     1     -14.900   4.727  23.767  0.00  0.00    +0.067 A 
ATOM     15  C   UNL     1     -16.142   4.780  23.143  0.00  0.00    +0.089 A 
ATOM     18  C   UNL     1     -13.726   5.200  23.179  0.00  0.00    +0.046 A 
ATOM     19  C   UNL     1     -16.239   5.334  21.855  0.00  0.00    +0.031 A 
ATOM     20  C   UNL     1     -13.840   5.749  21.898  0.00  0.00    +0.054 A 
ATOM     21  C   UNL     1     -15.074   5.817  21.246  0.00  0.00    +0.021 A 
ATOM     26  H   UNL     1     -14.469   3.946  25.699  0.00  0.00    +0.167 HD
BRANCH  20  25
ATOM      6  N   UNL     1     -11.722   6.659  20.716  0.00  0.00    -0.191 NA
ATOM     25  C   UNL     1     -12.671   6.251  21.246  0.00  0.00    +0.099 C 
ENDBRANCH  20  25
ENDBRANCH   7  11
BRANCH   3  12
ATOM     12  C   UNL     1     -15.633   1.270  29.008  0.00  0.00    +0.119 C 
BRANCH  12  13
ATOM      1  F   UNL     1     -12.189   3.620  31.545  0.00  0.00    -0.202 F 
ATOM      2  F   UNL     1     -14.095   4.951  32.986  0.00  0.00    -0.202 F 
ATOM     13  C   UNL     1     -15.222   2.254  30.071  0.00  0.00    -0.030 A 
ATOM     16  C   UNL     1     -13.869   2.486  30.320  0.00  0.00    +0.046 A 
ATOM     17  C   UNL     1     -16.194   2.933  30.806  0.00  0.00    +0.008 A 
ATOM     22  C   UNL     1     -13.488   3.397  31.305  0.00  0.00    +0.159 A 
ATOM     23  C   UNL     1     -15.813   3.844  31.791  0.00  0.00    +0.041 A 
ATOM     24  C   UNL     1     -14.460   4.077  32.041  0.00  0.00    +0.158 A 
ENDBRANCH  12  13
ENDBRANCH   3  12
TORSDOF 4
ENDMDL
MODEL 9
REMARK VINA RESULT:      -6.6     18.283     21.453
REMARK  Name = 45784318
REMARK  4 active torsions:
REMARK  status: ('A' for Active; 'I' for Inactive)
REMARK    1  A    between atoms: N_3  and  C_12
REMARK    2  A    between atoms: C_7  and  C_11
REMARK    3  A    between atoms: C_12  and  C_13
REMARK    4  A    between atoms: C_20  and  C_25
REMARK                            x       y       z     vdW  Elec       q    Type
REMARK                         _______ _______ _______ _____ _____    ______ ____
ROOT
ATOM      3  N   UNL     1      11.755   4.888   0.832  0.00  0.00    -0.297 NA
ATOM      7  C   UNL     1      10.282   5.860   2.377  0.00  0.00    +0.070 C 
ATOM      8  C   UNL     1      11.217   6.941   1.808  0.00  0.00    +0.028 C 
ATOM      9  C   UNL     1      10.952   4.530   2.004  0.00  0.00    +0.096 C 
ATOM     10  C   UNL     1      12.369   6.171   1.174  0.00  0.00    +0.085 C 
ENDROOT
BRANCH   7  11
ATOM      4  N   UNL     1      10.382   5.010   4.736  0.00  0.00    -0.342 N 
ATOM      5  N   UNL     1       9.378   6.973   4.458  0.00  0.00    -0.232 NA
ATOM     11  C   UNL     1       9.997   5.981   3.856  0.00  0.00    +0.113 A 
ATOM     14  C   UNL     1       9.988   5.400   5.990  0.00  0.00    +0.067 A 
ATOM     15  C   UNL     1       9.364   6.627   5.790  0.00  0.00    +0.089 A 
ATOM     18  C   UNL     1      10.120   4.802   7.244  0.00  0.00    +0.046 A 
ATOM     19  C   UNL     1       8.833   7.314   6.895  0.00  0.00    +0.031 A 
ATOM     20  C   UNL     1       9.587   5.498   8.333  0.00  0.00    +0.054 A 
ATOM     21  C   UNL     1       8.953   6.732   8.164  0.00  0.00    +0.021 A 
ATOM     26  H   UNL     1      10.872   4.155   4.507  0.00  0.00    +0.167 HD
BRANCH  20  25
ATOM      6  N   UNL     1       9.776   4.478  10.707  0.00  0.00    -0.191 NA
ATOM     25  C   UNL     1       9.691   4.935   9.643  0.00  0.00    +0.099 C 
ENDBRANCH  20  25
ENDBRANCH   7  11
BRANCH   3  12
ATOM     12  C   UNL     1      12.743   3.871   0.505  0.00  0.00    +0.119 C 
BRANCH  12  13
ATOM      1  F   UNL     1      14.451   4.799  -3.971  0.00  0.00    -0.202 F 
ATOM      2  F   UNL     1      12.906   2.804  -5.025  0.00  0.00    -0.202 F 
ATOM     13  C   UNL     1      12.786   3.586  -0.973  0.00  0.00    -0.030 A 
ATOM     16  C   UNL     1      13.615   4.340  -1.804  0.00  0.00    +0.046 A 
ATOM     17  C   UNL     1      11.998   2.568  -1.510  0.00  0.00    +0.008 A 
ATOM     22  C   UNL     1      13.656   4.075  -3.173  0.00  0.00    +0.159 A 
ATOM     23  C   UNL     1      12.038   2.304  -2.880  0.00  0.00    +0.041 A 
ATOM     24  C   UNL     1      12.867   3.058  -3.711  0.00  0.00    +0.158 A 
ENDBRANCH  12  13
ENDBRANCH   3  12
TORSDOF 4
ENDMDL
MODEL 10
REMARK VINA RESULT:      -6.6     27.118     30.224
REMARK  Name = 45784318
REMARK  4 active torsions:
REMARK  status: ('A' for Active; 'I' for Inactive)
REMARK    1  A    between atoms: N_3  and  C_12
REMARK    2  A    between atoms: C_7  and  C_11
REMARK    3  A    between atoms: C_12  and  C_13
REMARK    4  A    between atoms: C_20  and  C_25
REMARK                            x       y       z     vdW  Elec       q    Type
REMARK                         _______ _______ _______ _____ _____    ______ ____
ROOT
ATOM      3  N   UNL     1      -4.466 -11.489  16.835  0.00  0.00    -0.297 NA
ATOM      7  C   UNL     1      -6.082 -10.237  17.985  0.00  0.00    +0.070 C 
ATOM      8  C   UNL     1      -5.344 -11.157  18.973  0.00  0.00    +0.028 C 
ATOM      9  C   UNL     1      -5.736 -10.800  16.598  0.00  0.00    +0.096 C 
ATOM     10  C   UNL     1      -4.651 -12.197  18.102  0.00  0.00    +0.085 C 
ENDROOT
BRANCH   7  11
ATOM      4  N   UNL     1      -8.163 -10.664  19.321  0.00  0.00    -0.342 N 
ATOM      5  N   UNL     1      -8.441  -9.512  17.441  0.00  0.00    -0.232 NA
ATOM     11  C   UNL     1      -7.570 -10.118  18.218  0.00  0.00    +0.113 A 
ATOM     14  C   UNL     1      -9.505 -10.393  19.253  0.00  0.00    +0.067 A 
ATOM     15  C   UNL     1      -9.653  -9.674  18.071  0.00  0.00    +0.089 A 
ATOM     18  C   UNL     1     -10.570 -10.706  20.099  0.00  0.00    +0.046 A 
ATOM     19  C   UNL     1     -10.933  -9.232  17.694  0.00  0.00    +0.031 A 
ATOM     20  C   UNL     1     -11.836 -10.259  19.709  0.00  0.00    +0.054 A 
ATOM     21  C   UNL     1     -12.017  -9.536  18.527  0.00  0.00    +0.021 A 
ATOM     26  H   UNL     1      -7.697 -11.177  20.058  0.00  0.00    +0.167 HD
BRANCH  20  25
ATOM      6  N   UNL     1     -13.884 -10.786  21.206  0.00  0.00    -0.191 NA
ATOM     25  C   UNL     1     -12.966 -10.550  20.535  0.00  0.00    +0.099 C 
ENDBRANCH  20  25
ENDBRANCH   7  11
BRANCH   3  12
ATOM     12  C   UNL     1      -4.111 -12.387  15.745  0.00  0.00    +0.119 C 
BRANCH  12  13
ATOM      1  F   UNL     1      -0.774  -9.113  14.346  0.00  0.00    -0.202 F 
ATOM      2  F   UNL     1      -1.186  -9.748  11.718  0.00  0.00    -0.202 F 
ATOM     13  C   UNL     1      -3.330 -11.682  14.669  0.00  0.00    -0.030 A 
ATOM     16  C   UNL     1      -2.395 -10.705  15.013  0.00  0.00    +0.046 A 
ATOM     17  C   UNL     1      -3.540 -12.006  13.329  0.00  0.00    +0.008 A 
ATOM     22  C   UNL     1      -1.671 -10.052  14.016  0.00  0.00    +0.159 A 
ATOM     23  C   UNL     1      -2.815 -11.352  12.332  0.00  0.00    +0.041 A 
ATOM     24  C   UNL     1      -1.880 -10.375  12.675  0.00  0.00    +0.158 A 
ENDBRANCH  12  13
ENDBRANCH   3  12
TORSDOF 4
ENDMDL
