MODEL 1
REMARK VINA RESULT:      -6.5      0.000      0.000
REMARK  Name = 40779648
REMARK  8 active torsions:
REMARK  status: ('A' for Active; 'I' for Inactive)
REMARK    1  A    between atoms: N_3  and  C_13
REMARK    2  A    between atoms: N_4  and  C_14
REMARK    3  A    between atoms: N_5  and  C_25
REMARK    4  A    between atoms: N_5  and  C_26
REMARK    5  A    between atoms: N_5  and  C_27
REMARK    6  A    between atoms: C_7  and  C_13
REMARK    7  A    between atoms: C_8  and  C_14
REMARK    8  A    between atoms: C_19  and  C_20
REMARK                            x       y       z     vdW  Elec       q    Type
REMARK                         _______ _______ _______ _____ _____    ______ ____
ROOT
ATOM      2  N   UNL     1      14.702   8.317  19.261  0.00  0.00    -0.298 NA
ATOM      6  C   UNL     1      12.164   7.758  19.365  0.00  0.00    -0.003 C 
ATOM      7  C   UNL     1      12.404   9.271  19.566  0.00  0.00    +0.020 C 
ATOM      8  C   UNL     1      14.460   7.220  20.238  0.00  0.00    +0.074 C 
ATOM      9  C   UNL     1      12.948   6.970  20.430  0.00  0.00    +0.024 C 
ATOM     10  C   UNL     1      13.927   9.522  19.640  0.00  0.00    +0.089 C 
ATOM     11  C   UNL     1      12.760   7.389  17.992  0.00  0.00    +0.019 C 
ATOM     12  C   UNL     1      14.224   7.858  17.933  0.00  0.00    +0.085 C 
ENDROOT
BRANCH   7  13
ATOM     13  C   UNL     1      11.680   9.839  20.785  0.00  0.00    +0.089 C 
BRANCH  13   3
ATOM      3  N   UNL     1      12.459  10.900  21.404  0.00  0.00    -0.302 NA
ATOM     15  C   UNL     1      11.827  12.212  21.265  0.00  0.00    +0.084 C 
ATOM     16  C   UNL     1      12.620  10.706  22.845  0.00  0.00    +0.084 C 
ATOM     17  C   UNL     1      12.574  13.060  22.284  0.00  0.00    +0.017 C 
ATOM     18  C   UNL     1      13.098  12.070  23.321  0.00  0.00    +0.017 C 
ENDBRANCH  13   3
ENDBRANCH   7  13
BRANCH   8  14
ATOM     14  C   UNL     1      15.171   7.460  21.573  0.00  0.00    +0.123 C 
BRANCH  14   4
ATOM      1  O   UNL     1      17.725   8.659  21.044  0.00  0.00    -0.270 OA
ATOM      4  N   UNL     1      16.463   6.796  21.595  0.00  0.00    -0.310 N 
ATOM     19  C   UNL     1      17.639   7.467  21.325  0.00  0.00    +0.244 C 
ATOM     28  H   UNL     1      16.455   5.794  21.756  0.00  0.00    +0.149 HD
BRANCH  19  20
ATOM     20  C   UNL     1      18.873   6.640  21.364  0.00  0.00    +0.037 A 
ATOM     21  C   UNL     1      19.752   6.751  22.440  0.00  0.00    +0.015 A 
ATOM     22  C   UNL     1      19.152   5.756  20.322  0.00  0.00    +0.015 A 
ATOM     23  C   UNL     1      20.912   5.976  22.477  0.00  0.00    +0.024 A 
ATOM     24  C   UNL     1      20.312   4.981  20.357  0.00  0.00    +0.024 A 
ATOM     25  C   UNL     1      21.192   5.092  21.434  0.00  0.00    +0.029 A 
BRANCH  25   5
ATOM      5  N   UNL     1      22.364   4.308  21.470  0.00  0.00    -0.336 N 
ATOM     26  C   UNL     1      23.438   4.549  20.527  0.00  0.00    +0.129 C 
ATOM     27  C   UNL     1      22.512   3.254  22.454  0.00  0.00    +0.129 C 
ENDBRANCH  25   5
ENDBRANCH  19  20
ENDBRANCH  14   4
ENDBRANCH   8  14
TORSDOF 6
ENDMDL
MODEL 2
REMARK VINA RESULT:      -6.2     15.869     20.544
REMARK  Name = 40779648
REMARK  8 active torsions:
REMARK  status: ('A' for Active; 'I' for Inactive)
REMARK    1  A    between atoms: N_3  and  C_13
REMARK    2  A    between atoms: N_4  and  C_14
REMARK    3  A    between atoms: N_5  and  C_25
REMARK    4  A    between atoms: N_5  and  C_26
REMARK    5  A    between atoms: N_5  and  C_27
REMARK    6  A    between atoms: C_7  and  C_13
REMARK    7  A    between atoms: C_8  and  C_14
REMARK    8  A    between atoms: C_19  and  C_20
REMARK                            x       y       z     vdW  Elec       q    Type
REMARK                         _______ _______ _______ _____ _____    ______ ____
ROOT
ATOM      2  N   UNL     1      10.217   6.834   7.557  0.00  0.00    -0.298 NA
ATOM      6  C   UNL     1       9.694   5.145   5.650  0.00  0.00    -0.003 C 
ATOM      7  C   UNL     1      11.002   5.915   5.362  0.00  0.00    +0.020 C 
ATOM      8  C   UNL     1       8.827   7.035   7.065  0.00  0.00    +0.074 C 
ATOM      9  C   UNL     1       8.541   6.148   5.834  0.00  0.00    +0.024 C 
ATOM     10  C   UNL     1      11.185   7.000   6.447  0.00  0.00    +0.089 C 
ATOM     11  C   UNL     1       9.889   4.422   6.997  0.00  0.00    +0.019 C 
ATOM     12  C   UNL     1      10.325   5.443   8.062  0.00  0.00    +0.085 C 
ENDROOT
BRANCH   7  13
ATOM     13  C   UNL     1      11.052   6.511   3.956  0.00  0.00    +0.089 C 
BRANCH  13   3
ATOM      3  N   UNL     1      10.628   5.535   2.963  0.00  0.00    -0.302 NA
ATOM     15  C   UNL     1      10.050   6.164   1.775  0.00  0.00    +0.084 C 
ATOM     16  C   UNL     1      11.740   4.728   2.464  0.00  0.00    +0.084 C 
ATOM     17  C   UNL     1      10.052   5.032   0.757  0.00  0.00    +0.017 C 
ATOM     18  C   UNL     1      11.160   4.087   1.211  0.00  0.00    +0.017 C 
ENDBRANCH  13   3
ENDBRANCH   7  13
BRANCH   8  14
ATOM     14  C   UNL     1       8.513   8.508   6.790  0.00  0.00    +0.123 C 
BRANCH  14   4
ATOM      1  O   UNL     1       8.402  10.833   5.110  0.00  0.00    -0.270 OA
ATOM      4  N   UNL     1       7.760   8.652   5.555  0.00  0.00    -0.310 N 
ATOM     19  C   UNL     1       7.774   9.819   4.818  0.00  0.00    +0.244 C 
ATOM     28  H   UNL     1       7.166   7.872   5.292  0.00  0.00    +0.149 HD
BRANCH  19  20
ATOM     20  C   UNL     1       6.932   9.815   3.594  0.00  0.00    +0.037 A 
ATOM     21  C   UNL     1       5.599  10.219   3.664  0.00  0.00    +0.015 A 
ATOM     22  C   UNL     1       7.475   9.405   2.376  0.00  0.00    +0.015 A 
ATOM     23  C   UNL     1       4.808  10.215   2.514  0.00  0.00    +0.024 A 
ATOM     24  C   UNL     1       6.683   9.399   1.227  0.00  0.00    +0.024 A 
ATOM     25  C   UNL     1       5.350   9.803   1.296  0.00  0.00    +0.029 A 
BRANCH  25   5
ATOM      5  N   UNL     1       4.551   9.798   0.134  0.00  0.00    -0.336 N 
ATOM     26  C   UNL     1       3.159  10.197   0.198  0.00  0.00    +0.129 C 
ATOM     27  C   UNL     1       5.114   9.399  -1.142  0.00  0.00    +0.129 C 
ENDBRANCH  25   5
ENDBRANCH  19  20
ENDBRANCH  14   4
ENDBRANCH   8  14
TORSDOF 6
ENDMDL
MODEL 3
REMARK VINA RESULT:      -6.1     27.428     29.918
REMARK  Name = 40779648
REMARK  8 active torsions:
REMARK  status: ('A' for Active; 'I' for Inactive)
REMARK    1  A    between atoms: N_3  and  C_13
REMARK    2  A    between atoms: N_4  and  C_14
REMARK    3  A    between atoms: N_5  and  C_25
REMARK    4  A    between atoms: N_5  and  C_26
REMARK    5  A    between atoms: N_5  and  C_27
REMARK    6  A    between atoms: C_7  and  C_13
REMARK    7  A    between atoms: C_8  and  C_14
REMARK    8  A    between atoms: C_19  and  C_20
REMARK                            x       y       z     vdW  Elec       q    Type
REMARK                         _______ _______ _______ _____ _____    ______ ____
ROOT
ATOM      2  N   UNL     1      -1.721 -11.582  14.221  0.00  0.00    -0.298 NA
ATOM      6  C   UNL     1      -3.913 -12.592  13.251  0.00  0.00    -0.003 C 
ATOM      7  C   UNL     1      -3.540 -11.281  12.523  0.00  0.00    +0.020 C 
ATOM      8  C   UNL     1      -2.686 -11.857  15.320  0.00  0.00    +0.074 C 
ATOM      9  C   UNL     1      -4.049 -12.316  14.760  0.00  0.00    +0.024 C 
ATOM     10  C   UNL     1      -2.319 -10.653  13.232  0.00  0.00    +0.089 C 
ATOM     11  C   UNL     1      -2.725 -13.558  13.069  0.00  0.00    +0.019 C 
ATOM     12  C   UNL     1      -1.433 -12.865  13.535  0.00  0.00    +0.085 C 
ENDROOT
BRANCH   7  13
ATOM     13  C   UNL     1      -4.702 -10.295  12.424  0.00  0.00    +0.089 C 
BRANCH  13   3
ATOM      3  N   UNL     1      -4.529  -9.399  11.291  0.00  0.00    -0.302 NA
ATOM     15  C   UNL     1      -4.074 -10.099  10.090  0.00  0.00    +0.084 C 
ATOM     16  C   UNL     1      -5.777  -8.746  10.900  0.00  0.00    +0.084 C 
ATOM     17  C   UNL     1      -4.339  -9.087   8.984  0.00  0.00    +0.017 C 
ATOM     18  C   UNL     1      -5.456  -8.195   9.518  0.00  0.00    +0.017 C 
ENDBRANCH  13   3
ENDBRANCH   7  13
BRANCH   8  14
ATOM     14  C   UNL     1      -2.835 -10.670  16.276  0.00  0.00    +0.123 C 
BRANCH  14   4
ATOM      1  O   UNL     1      -4.397 -11.324  18.594  0.00  0.00    -0.270 OA
ATOM      4  N   UNL     1      -4.238 -10.358  16.494  0.00  0.00    -0.310 N 
ATOM     19  C   UNL     1      -4.899 -10.719  17.650  0.00  0.00    +0.244 C 
ATOM     28  H   UNL     1      -4.729  -9.917  15.724  0.00  0.00    +0.149 HD
BRANCH  19  20
ATOM     20  C   UNL     1      -6.337 -10.349  17.709  0.00  0.00    +0.037 A 
ATOM     21  C   UNL     1      -6.865  -9.455  16.779  0.00  0.00    +0.015 A 
ATOM     22  C   UNL     1      -7.157 -10.895  18.697  0.00  0.00    +0.015 A 
ATOM     23  C   UNL     1      -8.215  -9.106  16.834  0.00  0.00    +0.024 A 
ATOM     24  C   UNL     1      -8.507 -10.545  18.754  0.00  0.00    +0.024 A 
ATOM     25  C   UNL     1      -9.036  -9.651  17.823  0.00  0.00    +0.029 A 
BRANCH  25   5
ATOM      5  N   UNL     1     -10.400  -9.299  17.880  0.00  0.00    -0.336 N 
ATOM     26  C   UNL     1     -10.942  -8.310  16.971  0.00  0.00    +0.129 C 
ATOM     27  C   UNL     1     -11.280  -9.928  18.846  0.00  0.00    +0.129 C 
ENDBRANCH  25   5
ENDBRANCH  19  20
ENDBRANCH  14   4
ENDBRANCH   8  14
TORSDOF 6
ENDMDL
MODEL 4
REMARK VINA RESULT:      -6.0     27.635     29.661
REMARK  Name = 40779648
REMARK  8 active torsions:
REMARK  status: ('A' for Active; 'I' for Inactive)
REMARK    1  A    between atoms: N_3  and  C_13
REMARK    2  A    between atoms: N_4  and  C_14
REMARK    3  A    between atoms: N_5  and  C_25
REMARK    4  A    between atoms: N_5  and  C_26
REMARK    5  A    between atoms: N_5  and  C_27
REMARK    6  A    between atoms: C_7  and  C_13
REMARK    7  A    between atoms: C_8  and  C_14
REMARK    8  A    between atoms: C_19  and  C_20
REMARK                            x       y       z     vdW  Elec       q    Type
REMARK                         _______ _______ _______ _____ _____    ______ ____
ROOT
ATOM      2  N   UNL     1     -12.336   9.835  17.826  0.00  0.00    -0.298 NA
ATOM      6  C   UNL     1     -10.811   8.220  19.178  0.00  0.00    -0.003 C 
ATOM      7  C   UNL     1     -12.303   7.895  19.411  0.00  0.00    +0.020 C 
ATOM      8  C   UNL     1     -11.359  10.614  18.635  0.00  0.00    +0.074 C 
ATOM      9  C   UNL     1     -10.542   9.687  19.561  0.00  0.00    +0.024 C 
ATOM     10  C   UNL     1     -13.159   8.970  18.704  0.00  0.00    +0.089 C 
ATOM     11  C   UNL     1     -10.557   8.089  17.664  0.00  0.00    +0.019 C 
ATOM     12  C   UNL     1     -11.570   8.962  16.903  0.00  0.00    +0.085 C 
ENDROOT
BRANCH   7  13
ATOM     13  C   UNL     1     -12.668   7.768  20.889  0.00  0.00    +0.089 C 
BRANCH  13   3
ATOM      3  N   UNL     1     -13.740   6.803  21.079  0.00  0.00    -0.302 NA
ATOM     15  C   UNL     1     -13.320   5.650  21.875  0.00  0.00    +0.084 C 
ATOM     16  C   UNL     1     -14.879   7.368  21.801  0.00  0.00    +0.084 C 
ATOM     17  C   UNL     1     -14.642   5.005  22.267  0.00  0.00    +0.017 C 
ATOM     18  C   UNL     1     -15.667   6.134  22.215  0.00  0.00    +0.017 C 
ENDBRANCH  13   3
ENDBRANCH   7  13
BRANCH   8  14
ATOM     14  C   UNL     1     -12.024  11.752  19.414  0.00  0.00    +0.123 C 
BRANCH  14   4
ATOM      1  O   UNL     1     -14.330  11.390  21.084  0.00  0.00    -0.270 OA
ATOM      4  N   UNL     1     -12.027  11.468  20.839  0.00  0.00    -0.310 N 
ATOM     19  C   UNL     1     -13.198  11.310  21.553  0.00  0.00    +0.244 C 
ATOM     28  H   UNL     1     -11.124  11.455  21.302  0.00  0.00    +0.149 HD
BRANCH  19  20
ATOM     20  C   UNL     1     -13.033  11.048  23.007  0.00  0.00    +0.037 A 
ATOM     21  C   UNL     1     -11.838  11.383  23.644  0.00  0.00    +0.015 A 
ATOM     22  C   UNL     1     -14.072  10.466  23.733  0.00  0.00    +0.015 A 
ATOM     23  C   UNL     1     -11.682  11.136  25.008  0.00  0.00    +0.024 A 
ATOM     24  C   UNL     1     -13.916  10.217  25.096  0.00  0.00    +0.024 A 
ATOM     25  C   UNL     1     -12.721  10.552  25.734  0.00  0.00    +0.029 A 
BRANCH  25   5
ATOM      5  N   UNL     1     -12.564  10.302  27.113  0.00  0.00    -0.336 N 
ATOM     26  C   UNL     1     -11.292   9.846  27.637  0.00  0.00    +0.129 C 
ATOM     27  C   UNL     1     -13.672  10.505  28.027  0.00  0.00    +0.129 C 
ENDBRANCH  25   5
ENDBRANCH  19  20
ENDBRANCH  14   4
ENDBRANCH   8  14
TORSDOF 6
ENDMDL
MODEL 5
REMARK VINA RESULT:      -6.0     15.498     18.960
REMARK  Name = 40779648
REMARK  8 active torsions:
REMARK  status: ('A' for Active; 'I' for Inactive)
REMARK    1  A    between atoms: N_3  and  C_13
REMARK    2  A    between atoms: N_4  and  C_14
REMARK    3  A    between atoms: N_5  and  C_25
REMARK    4  A    between atoms: N_5  and  C_26
REMARK    5  A    between atoms: N_5  and  C_27
REMARK    6  A    between atoms: C_7  and  C_13
REMARK    7  A    between atoms: C_8  and  C_14
REMARK    8  A    between atoms: C_19  and  C_20
REMARK                            x       y       z     vdW  Elec       q    Type
REMARK                         _______ _______ _______ _____ _____    ______ ____
ROOT
ATOM      2  N   UNL     1       9.682   7.976   7.726  0.00  0.00    -0.298 NA
ATOM      6  C   UNL     1       9.826   9.511   5.631  0.00  0.00    -0.003 C 
ATOM      7  C   UNL     1       8.482   8.749   5.666  0.00  0.00    +0.020 C 
ATOM      8  C   UNL     1      10.945   7.711   6.986  0.00  0.00    +0.074 C 
ATOM      9  C   UNL     1      10.986   8.500   5.659  0.00  0.00    +0.024 C 
ATOM     10  C   UNL     1       8.511   7.750   6.845  0.00  0.00    +0.089 C 
ATOM     11  C   UNL     1       9.906  10.334   6.931  0.00  0.00    +0.019 C 
ATOM     12  C   UNL     1       9.684   9.403   8.135  0.00  0.00    +0.085 C 
ENDROOT
BRANCH   7  13
ATOM     13  C   UNL     1       8.150   8.053   4.347  0.00  0.00    +0.089 C 
BRANCH  13   3
ATOM      3  N   UNL     1       7.165   8.813   3.592  0.00  0.00    -0.302 NA
ATOM     15  C   UNL     1       6.681   9.983   4.325  0.00  0.00    +0.084 C 
ATOM     16  C   UNL     1       7.708   9.344   2.343  0.00  0.00    +0.084 C 
ATOM     17  C   UNL     1       6.002  10.807   3.240  0.00  0.00    +0.017 C 
ATOM     18  C   UNL     1       6.675  10.385   1.937  0.00  0.00    +0.017 C 
ENDBRANCH  13   3
ENDBRANCH   7  13
BRANCH   8  14
ATOM     14  C   UNL     1      11.190   6.216   6.766  0.00  0.00    +0.123 C 
BRANCH  14   4
ATOM      1  O   UNL     1       9.344   4.701   5.173  0.00  0.00    -0.270 OA
ATOM      4  N   UNL     1      11.309   5.916   5.349  0.00  0.00    -0.310 N 
ATOM     19  C   UNL     1      10.361   5.175   4.673  0.00  0.00    +0.244 C 
ATOM     28  H   UNL     1      12.160   6.223   4.890  0.00  0.00    +0.149 HD
BRANCH  19  20
ATOM     20  C   UNL     1      10.641   4.935   3.233  0.00  0.00    +0.037 A 
ATOM     21  C   UNL     1      10.168   5.828   2.273  0.00  0.00    +0.015 A 
ATOM     22  C   UNL     1      11.374   3.814   2.844  0.00  0.00    +0.015 A 
ATOM     23  C   UNL     1      10.430   5.602   0.921  0.00  0.00    +0.024 A 
ATOM     24  C   UNL     1      11.635   3.587   1.492  0.00  0.00    +0.024 A 
ATOM     25  C   UNL     1      11.162   4.481   0.531  0.00  0.00    +0.029 A 
BRANCH  25   5
ATOM      5  N   UNL     1      11.428   4.252  -0.835  0.00  0.00    -0.336 N 
ATOM     26  C   UNL     1      12.535   3.407  -1.236  0.00  0.00    +0.129 C 
ATOM     27  C   UNL     1      10.592   4.852  -1.856  0.00  0.00    +0.129 C 
ENDBRANCH  25   5
ENDBRANCH  19  20
ENDBRANCH  14   4
ENDBRANCH   8  14
TORSDOF 6
ENDMDL
MODEL 6
REMARK VINA RESULT:      -6.0      1.467      2.281
REMARK  Name = 40779648
REMARK  8 active torsions:
REMARK  status: ('A' for Active; 'I' for Inactive)
REMARK    1  A    between atoms: N_3  and  C_13
REMARK    2  A    between atoms: N_4  and  C_14
REMARK    3  A    between atoms: N_5  and  C_25
REMARK    4  A    between atoms: N_5  and  C_26
REMARK    5  A    between atoms: N_5  and  C_27
REMARK    6  A    between atoms: C_7  and  C_13
REMARK    7  A    between atoms: C_8  and  C_14
REMARK    8  A    between atoms: C_19  and  C_20
REMARK                            x       y       z     vdW  Elec       q    Type
REMARK                         _______ _______ _______ _____ _____    ______ ____
ROOT
ATOM      2  N   UNL     1      13.334   7.195  19.458  0.00  0.00    -0.298 NA
ATOM      6  C   UNL     1      12.729   8.185  21.785  0.00  0.00    -0.003 C 
ATOM      7  C   UNL     1      12.304   9.143  20.650  0.00  0.00    +0.020 C 
ATOM      8  C   UNL     1      14.531   7.186  20.342  0.00  0.00    +0.074 C 
ATOM      9  C   UNL     1      14.239   7.905  21.678  0.00  0.00    +0.024 C 
ATOM     10  C   UNL     1      12.815   8.575  19.307  0.00  0.00    +0.089 C 
ATOM     11  C   UNL     1      11.998   6.850  21.541  0.00  0.00    +0.019 C 
ATOM     12  C   UNL     1      12.282   6.373  20.106  0.00  0.00    +0.085 C 
ENDROOT
BRANCH   7  13
ATOM     13  C   UNL     1      12.773  10.580  20.868  0.00  0.00    +0.089 C 
BRANCH  13   3
ATOM      3  N   UNL     1      13.738  10.972  19.851  0.00  0.00    -0.302 NA
ATOM     15  C   UNL     1      13.317  12.161  19.111  0.00  0.00    +0.084 C 
ATOM     16  C   UNL     1      15.039  11.319  20.421  0.00  0.00    +0.084 C 
ATOM     17  C   UNL     1      14.599  12.600  18.416  0.00  0.00    +0.017 C 
ATOM     18  C   UNL     1      15.730  12.044  19.276  0.00  0.00    +0.017 C 
ENDBRANCH  13   3
ENDBRANCH   7  13
BRANCH   8  14
ATOM     14  C   UNL     1      15.772   7.755  19.650  0.00  0.00    +0.123 C 
BRANCH  14   4
ATOM      1  O   UNL     1      17.857   8.572  21.446  0.00  0.00    -0.270 OA
ATOM      4  N   UNL     1      16.957   6.993  20.009  0.00  0.00    -0.310 N 
ATOM     19  C   UNL     1      17.904   7.479  20.887  0.00  0.00    +0.244 C 
ATOM     28  H   UNL     1      17.090   6.108  19.530  0.00  0.00    +0.149 HD
BRANCH  19  20
ATOM     20  C   UNL     1      19.069   6.590  21.131  0.00  0.00    +0.037 A 
ATOM     21  C   UNL     1      19.408   5.612  20.196  0.00  0.00    +0.015 A 
ATOM     22  C   UNL     1      19.822   6.732  22.297  0.00  0.00    +0.015 A 
ATOM     23  C   UNL     1      20.501   4.776  20.426  0.00  0.00    +0.024 A 
ATOM     24  C   UNL     1      20.914   5.895  22.528  0.00  0.00    +0.024 A 
ATOM     25  C   UNL     1      21.254   4.917  21.592  0.00  0.00    +0.029 A 
BRANCH  25   5
ATOM      5  N   UNL     1      22.359   4.073  21.826  0.00  0.00    -0.336 N 
ATOM     26  C   UNL     1      23.452   4.015  20.876  0.00  0.00    +0.129 C 
ATOM     27  C   UNL     1      22.419   3.256  23.022  0.00  0.00    +0.129 C 
ENDBRANCH  25   5
ENDBRANCH  19  20
ENDBRANCH  14   4
ENDBRANCH   8  14
TORSDOF 6
ENDMDL
MODEL 7
REMARK VINA RESULT:      -5.9     27.596     29.902
REMARK  Name = 40779648
REMARK  8 active torsions:
REMARK  status: ('A' for Active; 'I' for Inactive)
REMARK    1  A    between atoms: N_3  and  C_13
REMARK    2  A    between atoms: N_4  and  C_14
REMARK    3  A    between atoms: N_5  and  C_25
REMARK    4  A    between atoms: N_5  and  C_26
REMARK    5  A    between atoms: N_5  and  C_27
REMARK    6  A    between atoms: C_7  and  C_13
REMARK    7  A    between atoms: C_8  and  C_14
REMARK    8  A    between atoms: C_19  and  C_20
REMARK                            x       y       z     vdW  Elec       q    Type
REMARK                         _______ _______ _______ _____ _____    ______ ____
ROOT
ATOM      2  N   UNL     1      -4.116 -12.005  17.699  0.00  0.00    -0.298 NA
ATOM      6  C   UNL     1      -6.180 -10.479  17.283  0.00  0.00    -0.003 C 
ATOM      7  C   UNL     1      -6.404 -11.885  16.683  0.00  0.00    +0.020 C 
ATOM      8  C   UNL     1      -3.685 -10.725  17.073  0.00  0.00    +0.074 C 
ATOM      9  C   UNL     1      -4.904  -9.863  16.678  0.00  0.00    +0.024 C 
ATOM     10  C   UNL     1      -5.097 -12.698  16.831  0.00  0.00    +0.089 C 
ATOM     11  C   UNL     1      -5.923 -10.671  18.790  0.00  0.00    +0.019 C 
ATOM     12  C   UNL     1      -4.781 -11.683  18.985  0.00  0.00    +0.085 C 
ENDROOT
BRANCH   7  13
ATOM     13  C   UNL     1      -6.885 -11.852  15.234  0.00  0.00    +0.089 C 
BRANCH  13   3
ATOM      3  N   UNL     1      -8.134 -11.114  15.118  0.00  0.00    -0.302 NA
ATOM     15  C   UNL     1      -8.033  -9.987  14.191  0.00  0.00    +0.084 C 
ATOM     16  C   UNL     1      -9.223 -11.938  14.597  0.00  0.00    +0.084 C 
ATOM     17  C   UNL     1      -9.489  -9.627  13.932  0.00  0.00    +0.017 C 
ATOM     18  C   UNL     1     -10.271 -10.909  14.202  0.00  0.00    +0.017 C 
ENDBRANCH  13   3
ENDBRANCH   7  13
BRANCH   8  14
ATOM     14  C   UNL     1      -2.737 -10.943  15.891  0.00  0.00    +0.123 C 
BRANCH  14   4
ATOM      1  O   UNL     1      -1.651 -11.252  13.252  0.00  0.00    -0.270 OA
ATOM      4  N   UNL     1      -3.386 -10.593  14.638  0.00  0.00    -0.310 N 
ATOM     19  C   UNL     1      -2.773 -10.783  13.416  0.00  0.00    +0.244 C 
ATOM     28  H   UNL     1      -4.290 -10.139  14.708  0.00  0.00    +0.149 HD
BRANCH  19  20
ATOM     20  C   UNL     1      -3.559 -10.351  12.231  0.00  0.00    +0.037 A 
ATOM     21  C   UNL     1      -4.952 -10.331  12.288  0.00  0.00    +0.015 A 
ATOM     22  C   UNL     1      -2.902  -9.968  11.061  0.00  0.00    +0.015 A 
ATOM     23  C   UNL     1      -5.690  -9.927  11.174  0.00  0.00    +0.024 A 
ATOM     24  C   UNL     1      -3.639  -9.565   9.948  0.00  0.00    +0.024 A 
ATOM     25  C   UNL     1      -5.034  -9.545  10.004  0.00  0.00    +0.029 A 
BRANCH  25   5
ATOM      5  N   UNL     1      -5.778  -9.136   8.879  0.00  0.00    -0.336 N 
ATOM     26  C   UNL     1      -6.805  -8.121   9.006  0.00  0.00    +0.129 C 
ATOM     27  C   UNL     1      -5.521  -9.721   7.577  0.00  0.00    +0.129 C 
ENDBRANCH  25   5
ENDBRANCH  19  20
ENDBRANCH  14   4
ENDBRANCH   8  14
TORSDOF 6
ENDMDL
MODEL 8
REMARK VINA RESULT:      -5.9     15.359     19.089
REMARK  Name = 40779648
REMARK  8 active torsions:
REMARK  status: ('A' for Active; 'I' for Inactive)
REMARK    1  A    between atoms: N_3  and  C_13
REMARK    2  A    between atoms: N_4  and  C_14
REMARK    3  A    between atoms: N_5  and  C_25
REMARK    4  A    between atoms: N_5  and  C_26
REMARK    5  A    between atoms: N_5  and  C_27
REMARK    6  A    between atoms: C_7  and  C_13
REMARK    7  A    between atoms: C_8  and  C_14
REMARK    8  A    between atoms: C_19  and  C_20
REMARK                            x       y       z     vdW  Elec       q    Type
REMARK                         _______ _______ _______ _____ _____    ______ ____
ROOT
ATOM      2  N   UNL     1       9.020   8.284   6.832  0.00  0.00    -0.298 NA
ATOM      6  C   UNL     1       9.986   5.869   6.875  0.00  0.00    -0.003 C 
ATOM      7  C   UNL     1      11.111   6.910   6.678  0.00  0.00    +0.020 C 
ATOM      8  C   UNL     1       8.291   7.426   5.859  0.00  0.00    +0.074 C 
ATOM      9  C   UNL     1       8.941   6.029   5.755  0.00  0.00    +0.024 C 
ATOM     10  C   UNL     1      10.468   8.306   6.515  0.00  0.00    +0.089 C 
ATOM     11  C   UNL     1       9.286   6.213   8.204  0.00  0.00    +0.019 C 
ATOM     12  C   UNL     1       8.851   7.689   8.181  0.00  0.00    +0.085 C 
ENDROOT
BRANCH   7  13
ATOM     13  C   UNL     1      12.040   6.580   5.511  0.00  0.00    +0.089 C 
BRANCH  13   3
ATOM      3  N   UNL     1      13.184   7.480   5.487  0.00  0.00    -0.302 NA
ATOM     15  C   UNL     1      14.113   7.231   6.589  0.00  0.00    +0.084 C 
ATOM     16  C   UNL     1      13.985   7.331   4.273  0.00  0.00    +0.084 C 
ATOM     17  C   UNL     1      15.367   7.976   6.152  0.00  0.00    +0.017 C 
ATOM     18  C   UNL     1      15.280   8.045   4.630  0.00  0.00    +0.017 C 
ENDBRANCH  13   3
ENDBRANCH   7  13
BRANCH   8  14
ATOM     14  C   UNL     1       8.150   8.091   4.487  0.00  0.00    +0.123 C 
BRANCH  14   4
ATOM      1  O   UNL     1      10.539   8.501   2.950  0.00  0.00    -0.270 OA
ATOM      4  N   UNL     1       8.668   7.226   3.440  0.00  0.00    -0.310 N 
ATOM     19  C   UNL     1       9.833   7.516   2.758  0.00  0.00    +0.244 C 
ATOM     28  H   UNL     1       8.096   6.427   3.186  0.00  0.00    +0.149 HD
BRANCH  19  20
ATOM     20  C   UNL     1      10.215   6.545   1.700  0.00  0.00    +0.037 A 
ATOM     21  C   UNL     1      10.206   6.934   0.360  0.00  0.00    +0.015 A 
ATOM     22  C   UNL     1      10.581   5.244   2.046  0.00  0.00    +0.015 A 
ATOM     23  C   UNL     1      10.563   6.023  -0.634  0.00  0.00    +0.024 A 
ATOM     24  C   UNL     1      10.937   4.332   1.053  0.00  0.00    +0.024 A 
ATOM     25  C   UNL     1      10.928   4.721  -0.288  0.00  0.00    +0.029 A 
BRANCH  25   5
ATOM      5  N   UNL     1      11.290   3.799  -1.291  0.00  0.00    -0.336 N 
ATOM     26  C   UNL     1      10.531   3.719  -2.523  0.00  0.00    +0.129 C 
ATOM     27  C   UNL     1      12.430   2.923  -1.107  0.00  0.00    +0.129 C 
ENDBRANCH  25   5
ENDBRANCH  19  20
ENDBRANCH  14   4
ENDBRANCH   8  14
TORSDOF 6
ENDMDL
MODEL 9
REMARK VINA RESULT:      -5.8     27.735     29.862
REMARK  Name = 40779648
REMARK  8 active torsions:
REMARK  status: ('A' for Active; 'I' for Inactive)
REMARK    1  A    between atoms: N_3  and  C_13
REMARK    2  A    between atoms: N_4  and  C_14
REMARK    3  A    between atoms: N_5  and  C_25
REMARK    4  A    between atoms: N_5  and  C_26
REMARK    5  A    between atoms: N_5  and  C_27
REMARK    6  A    between atoms: C_7  and  C_13
REMARK    7  A    between atoms: C_8  and  C_14
REMARK    8  A    between atoms: C_19  and  C_20
REMARK                            x       y       z     vdW  Elec       q    Type
REMARK                         _______ _______ _______ _____ _____    ______ ____
ROOT
ATOM      2  N   UNL     1      -4.807 -12.231  14.973  0.00  0.00    -0.298 NA
ATOM      6  C   UNL     1      -5.106 -11.754  17.512  0.00  0.00    -0.003 C 
ATOM      7  C   UNL     1      -6.193 -11.033  16.684  0.00  0.00    +0.020 C 
ATOM      8  C   UNL     1      -3.527 -11.743  15.555  0.00  0.00    +0.074 C 
ATOM      9  C   UNL     1      -3.714 -11.311  17.025  0.00  0.00    +0.024 C 
ATOM     10  C   UNL     1      -5.881 -11.231  15.183  0.00  0.00    +0.089 C 
ATOM     11  C   UNL     1      -5.238 -13.259  17.208  0.00  0.00    +0.019 C 
ATOM     12  C   UNL     1      -5.187 -13.475  15.686  0.00  0.00    +0.085 C 
ENDROOT
BRANCH   7  13
ATOM     13  C   UNL     1      -6.337  -9.554  17.038  0.00  0.00    +0.089 C 
BRANCH  13   3
ATOM      3  N   UNL     1      -7.692  -9.255  17.477  0.00  0.00    -0.302 NA
ATOM     15  C   UNL     1      -8.586  -8.950  16.361  0.00  0.00    +0.084 C 
ATOM     16  C   UNL     1      -8.316 -10.382  18.168  0.00  0.00    +0.084 C 
ATOM     17  C   UNL     1      -9.967  -9.062  16.990  0.00  0.00    +0.017 C 
ATOM     18  C   UNL     1      -9.789 -10.001  18.180  0.00  0.00    +0.017 C 
ENDBRANCH  13   3
ENDBRANCH   7  13
BRANCH   8  14
ATOM     14  C   UNL     1      -2.888 -10.635  14.713  0.00  0.00    +0.123 C 
BRANCH  14   4
ATOM      1  O   UNL     1      -1.455  -9.986  12.313  0.00  0.00    -0.270 OA
ATOM      4  N   UNL     1      -3.413 -10.651  13.358  0.00  0.00    -0.310 N 
ATOM     19  C   UNL     1      -2.635 -10.320  12.266  0.00  0.00    +0.244 C 
ATOM     28  H   UNL     1      -4.402 -10.853  13.256  0.00  0.00    +0.149 HD
BRANCH  19  20
ATOM     20  C   UNL     1      -3.326 -10.361  10.951  0.00  0.00    +0.037 A 
ATOM     21  C   UNL     1      -3.705 -11.584  10.400  0.00  0.00    +0.015 A 
ATOM     22  C   UNL     1      -3.592  -9.174  10.266  0.00  0.00    +0.015 A 
ATOM     23  C   UNL     1      -4.353 -11.623   9.165  0.00  0.00    +0.024 A 
ATOM     24  C   UNL     1      -4.238  -9.212   9.031  0.00  0.00    +0.024 A 
ATOM     25  C   UNL     1      -4.618 -10.437   8.480  0.00  0.00    +0.029 A 
BRANCH  25   5
ATOM      5  N   UNL     1      -5.272 -10.474   7.231  0.00  0.00    -0.336 N 
ATOM     26  C   UNL     1      -4.852 -11.413   6.209  0.00  0.00    +0.129 C 
ATOM     27  C   UNL     1      -6.378  -9.578   6.954  0.00  0.00    +0.129 C 
ENDBRANCH  25   5
ENDBRANCH  19  20
ENDBRANCH  14   4
ENDBRANCH   8  14
TORSDOF 6
ENDMDL
MODEL 10
REMARK VINA RESULT:      -5.8     15.310     18.888
REMARK  Name = 40779648
REMARK  8 active torsions:
REMARK  status: ('A' for Active; 'I' for Inactive)
REMARK    1  A    between atoms: N_3  and  C_13
REMARK    2  A    between atoms: N_4  and  C_14
REMARK    3  A    between atoms: N_5  and  C_25
REMARK    4  A    between atoms: N_5  and  C_26
REMARK    5  A    between atoms: N_5  and  C_27
REMARK    6  A    between atoms: C_7  and  C_13
REMARK    7  A    between atoms: C_8  and  C_14
REMARK    8  A    between atoms: C_19  and  C_20
REMARK                            x       y       z     vdW  Elec       q    Type
REMARK                         _______ _______ _______ _____ _____    ______ ____
ROOT
ATOM      2  N   UNL     1      10.484   5.422   6.675  0.00  0.00    -0.298 NA
ATOM      6  C   UNL     1       9.067   7.261   7.847  0.00  0.00    -0.003 C 
ATOM      7  C   UNL     1       8.504   6.940   6.444  0.00  0.00    +0.020 C 
ATOM      8  C   UNL     1      11.369   6.519   7.154  0.00  0.00    +0.074 C 
ATOM      9  C   UNL     1      10.539   7.693   7.719  0.00  0.00    +0.024 C 
ATOM     10  C   UNL     1       9.463   5.953   5.742  0.00  0.00    +0.089 C 
ATOM     11  C   UNL     1       9.046   5.946   8.649  0.00  0.00    +0.019 C 
ATOM     12  C   UNL     1       9.783   4.855   7.854  0.00  0.00    +0.085 C 
ENDROOT
BRANCH   7  13
ATOM     13  C   UNL     1       8.256   8.185   5.595  0.00  0.00    +0.089 C 
BRANCH  13   3
ATOM      3  N   UNL     1       9.109   8.188   4.416  0.00  0.00    -0.302 NA
ATOM     15  C   UNL     1       8.343   8.100   3.173  0.00  0.00    +0.084 C 
ATOM     16  C   UNL     1       9.890   9.418   4.295  0.00  0.00    +0.084 C 
ATOM     17  C   UNL     1       9.360   8.507   2.116  0.00  0.00    +0.017 C 
ATOM     18  C   UNL     1      10.379   9.371   2.854  0.00  0.00    +0.017 C 
ENDBRANCH  13   3
ENDBRANCH   7  13
BRANCH   8  14
ATOM     14  C   UNL     1      12.354   6.985   6.078  0.00  0.00    +0.123 C 
BRANCH  14   4
ATOM      1  O   UNL     1      13.737   7.406   3.599  0.00  0.00    -0.270 OA
ATOM      4  N   UNL     1      11.965   6.483   4.771  0.00  0.00    -0.310 N 
ATOM     19  C   UNL     1      12.704   6.744   3.635  0.00  0.00    +0.244 C 
ATOM     28  H   UNL     1      11.083   5.983   4.721  0.00  0.00    +0.149 HD
BRANCH  19  20
ATOM     20  C   UNL     1      12.159   6.181   2.372  0.00  0.00    +0.037 A 
ATOM     21  C   UNL     1      11.136   5.234   2.415  0.00  0.00    +0.015 A 
ATOM     22  C   UNL     1      12.674   6.597   1.144  0.00  0.00    +0.015 A 
ATOM     23  C   UNL     1      10.626   4.704   1.230  0.00  0.00    +0.024 A 
ATOM     24  C   UNL     1      12.165   6.066  -0.041  0.00  0.00    +0.024 A 
ATOM     25  C   UNL     1      11.141   5.119   0.002  0.00  0.00    +0.029 A 
BRANCH  25   5
ATOM      5  N   UNL     1      10.626   4.585  -1.197  0.00  0.00    -0.336 N 
ATOM     26  C   UNL     1       9.498   5.212  -1.857  0.00  0.00    +0.129 C 
ATOM     27  C   UNL     1      11.223   3.403  -1.790  0.00  0.00    +0.129 C 
ENDBRANCH  25   5
ENDBRANCH  19  20
ENDBRANCH  14   4
ENDBRANCH   8  14
TORSDOF 6
ENDMDL
