MODEL 1
REMARK VINA RESULT:      -8.3      0.000      0.000
REMARK  Name = 56774753
REMARK  9 active torsions:
REMARK  status: ('A' for Active; 'I' for Inactive)
REMARK    1  A    between atoms: O_2  and  C_11
REMARK    2  A    between atoms: O_4  and  C_20
REMARK    3  A    between atoms: O_4  and  C_28
REMARK    4  A    between atoms: N_6  and  C_13
REMARK    5  A    between atoms: N_7  and  C_24
REMARK    6  A    between atoms: C_10  and  C_11
REMARK    7  A    between atoms: C_11  and  C_15
REMARK    8  A    between atoms: C_13  and  C_17
REMARK    9  A    between atoms: C_29  and  C_30
REMARK                            x       y       z     vdW  Elec       q    Type
REMARK                         _______ _______ _______ _____ _____    ______ ____
ROOT
ATOM     11  C   UNL     1      14.526   6.802  19.869  0.00  0.00    +0.167 C 
ENDROOT
BRANCH  11  10
ATOM      1  O   UNL     1      13.246   7.308  17.279  0.00  0.00    -0.369 OA
ATOM      3  O   UNL     1      10.542   8.459  19.378  0.00  0.00    -0.273 OA
ATOM      6  N   UNL     1      12.838   8.595  19.736  0.00  0.00    -0.287 N 
ATOM     10  C   UNL     1      14.177   8.179  19.300  0.00  0.00    +0.135 C 
ATOM     12  C   UNL     1      14.254   8.180  17.777  0.00  0.00    +0.185 C 
ATOM     14  C   UNL     1      11.700   8.294  18.990  0.00  0.00    +0.242 C 
ATOM     16  C   UNL     1      11.959   7.805  17.568  0.00  0.00    +0.255 C 
BRANCH   6  13
ATOM     13  C   UNL     1      12.713   9.173  21.066  0.00  0.00    +0.147 C 
BRANCH  13  17
ATOM     17  C   UNL     1      12.416  10.644  21.014  0.00  0.00    +0.011 A 
ATOM     20  C   UNL     1      11.535  11.227  21.926  0.00  0.00    +0.125 A 
ATOM     21  C   UNL     1      13.032  11.431  20.041  0.00  0.00    +0.009 A 
ATOM     25  C   UNL     1      11.270  12.594  21.864  0.00  0.00    +0.046 A 
ATOM     26  C   UNL     1      12.767  12.799  19.978  0.00  0.00    +0.001 A 
ATOM     27  C   UNL     1      11.885  13.380  20.890  0.00  0.00    +0.004 A 
BRANCH  20   4
ATOM      4  O   UNL     1      10.925  10.474  22.884  0.00  0.00    -0.495 OA
ATOM     28  C   UNL     1      10.950  10.978  24.218  0.00  0.00    +0.277 C 
ENDBRANCH  20   4
ENDBRANCH  13  17
ENDBRANCH   6  13
ENDBRANCH  11  10
BRANCH  11  15
ATOM     15  C   UNL     1      16.015   6.616  20.014  0.00  0.00    -0.017 A 
ATOM     18  C   UNL     1      16.679   7.142  21.124  0.00  0.00    +0.008 A 
ATOM     19  C   UNL     1      16.730   5.921  19.039  0.00  0.00    +0.008 A 
ATOM     22  C   UNL     1      18.057   6.971  21.258  0.00  0.00    +0.023 A 
ATOM     23  C   UNL     1      18.108   5.750  19.173  0.00  0.00    +0.023 A 
ATOM     24  C   UNL     1      18.772   6.275  20.282  0.00  0.00    +0.034 A 
BRANCH  24   7
ATOM      5  O   UNL     1      20.397   3.773  20.564  0.00  0.00    -0.268 OA
ATOM      7  N   UNL     1      20.150   6.105  20.416  0.00  0.00    -0.280 N 
ATOM     29  C   UNL     1      20.863   4.907  20.544  0.00  0.00    +0.268 C 
ATOM     35  H   UNL     1      20.696   6.964  20.414  0.00  0.00    +0.155 HD
BRANCH  29  30
ATOM      8  N   UNL     1      22.835   6.295  20.496  0.00  0.00    -0.247 NA
ATOM      9  N   UNL     1      24.494   4.079  20.948  0.00  0.00    -0.259 NA
ATOM     30  C   UNL     1      22.340   5.050  20.640  0.00  0.00    +0.144 A 
ATOM     31  C   UNL     1      23.154   3.962  20.863  0.00  0.00    +0.143 A 
ATOM     32  C   UNL     1      24.175   6.413  20.581  0.00  0.00    +0.131 A 
ATOM     33  C   UNL     1      24.990   5.324  20.804  0.00  0.00    +0.130 A 
ENDBRANCH  29  30
ENDBRANCH  24   7
ENDBRANCH  11  15
BRANCH  11   2
ATOM      2  O   UNL     1      13.903   6.645  21.139  0.00  0.00    -0.385 OA
ATOM     34  H   UNL     1      14.424   7.120  21.807  0.00  0.00    +0.210 HD
ENDBRANCH  11   2
TORSDOF 8
ENDMDL
MODEL 2
REMARK VINA RESULT:      -8.0      1.498      2.096
REMARK  Name = 56774753
REMARK  9 active torsions:
REMARK  status: ('A' for Active; 'I' for Inactive)
REMARK    1  A    between atoms: O_2  and  C_11
REMARK    2  A    between atoms: O_4  and  C_20
REMARK    3  A    between atoms: O_4  and  C_28
REMARK    4  A    between atoms: N_6  and  C_13
REMARK    5  A    between atoms: N_7  and  C_24
REMARK    6  A    between atoms: C_10  and  C_11
REMARK    7  A    between atoms: C_11  and  C_15
REMARK    8  A    between atoms: C_13  and  C_17
REMARK    9  A    between atoms: C_29  and  C_30
REMARK                            x       y       z     vdW  Elec       q    Type
REMARK                         _______ _______ _______ _____ _____    ______ ____
ROOT
ATOM     11  C   UNL     1      14.426   6.728  19.950  0.00  0.00    +0.167 C 
ENDROOT
BRANCH  11  10
ATOM      1  O   UNL     1      13.354   7.856  17.463  0.00  0.00    -0.369 OA
ATOM      3  O   UNL     1      10.456   8.439  19.538  0.00  0.00    -0.273 OA
ATOM      6  N   UNL     1      12.710   8.491  20.117  0.00  0.00    -0.287 N 
ATOM     10  C   UNL     1      14.091   8.202  19.710  0.00  0.00    +0.135 C 
ATOM     12  C   UNL     1      14.294   8.581  18.247  0.00  0.00    +0.185 C 
ATOM     14  C   UNL     1      11.646   8.380  19.224  0.00  0.00    +0.242 C 
ATOM     16  C   UNL     1      12.035   8.260  17.753  0.00  0.00    +0.255 C 
BRANCH   6  13
ATOM     13  C   UNL     1      12.459   8.720  21.533  0.00  0.00    +0.147 C 
BRANCH  13  17
ATOM     17  C   UNL     1      12.470  10.183  21.876  0.00  0.00    +0.011 A 
ATOM     20  C   UNL     1      13.658  10.825  22.226  0.00  0.00    +0.125 A 
ATOM     21  C   UNL     1      11.274  10.900  21.840  0.00  0.00    +0.009 A 
ATOM     25  C   UNL     1      13.651  12.183  22.541  0.00  0.00    +0.046 A 
ATOM     26  C   UNL     1      11.267  12.259  22.156  0.00  0.00    +0.001 A 
ATOM     27  C   UNL     1      12.455  12.900  22.506  0.00  0.00    +0.004 A 
BRANCH  20   4
ATOM      4  O   UNL     1      14.835  10.139  22.264  0.00  0.00    -0.495 OA
ATOM     28  C   UNL     1      16.029  10.908  22.395  0.00  0.00    +0.277 C 
ENDBRANCH  20   4
ENDBRANCH  13  17
ENDBRANCH   6  13
ENDBRANCH  11  10
BRANCH  11  15
ATOM     15  C   UNL     1      15.914   6.496  20.021  0.00  0.00    -0.017 A 
ATOM     18  C   UNL     1      16.584   5.923  18.939  0.00  0.00    +0.008 A 
ATOM     19  C   UNL     1      16.622   6.854  21.168  0.00  0.00    +0.008 A 
ATOM     22  C   UNL     1      17.960   5.708  19.004  0.00  0.00    +0.023 A 
ATOM     23  C   UNL     1      17.999   6.640  21.234  0.00  0.00    +0.023 A 
ATOM     24  C   UNL     1      18.669   6.067  20.152  0.00  0.00    +0.034 A 
BRANCH  24   7
ATOM      5  O   UNL     1      20.892   7.948  20.859  0.00  0.00    -0.268 OA
ATOM      7  N   UNL     1      20.045   5.851  20.218  0.00  0.00    -0.280 N 
ATOM     29  C   UNL     1      21.047   6.770  20.556  0.00  0.00    +0.268 C 
ATOM     35  H   UNL     1      20.348   4.906  19.996  0.00  0.00    +0.155 HD
BRANCH  29  30
ATOM      8  N   UNL     1      22.554   4.887  20.581  0.00  0.00    -0.247 NA
ATOM      9  N   UNL     1      24.788   6.583  20.575  0.00  0.00    -0.259 NA
ATOM     30  C   UNL     1      22.431   6.229  20.566  0.00  0.00    +0.144 A 
ATOM     31  C   UNL     1      23.528   7.062  20.563  0.00  0.00    +0.143 A 
ATOM     32  C   UNL     1      23.814   4.407  20.592  0.00  0.00    +0.131 A 
ATOM     33  C   UNL     1      24.912   5.241  20.590  0.00  0.00    +0.130 A 
ENDBRANCH  29  30
ENDBRANCH  24   7
ENDBRANCH  11  15
BRANCH  11   2
ATOM      2  O   UNL     1      13.821   6.298  21.164  0.00  0.00    -0.385 OA
ATOM     34  H   UNL     1      13.362   5.456  21.006  0.00  0.00    +0.210 HD
ENDBRANCH  11   2
TORSDOF 8
ENDMDL
MODEL 3
REMARK VINA RESULT:      -7.3     27.307     30.657
REMARK  Name = 56774753
REMARK  9 active torsions:
REMARK  status: ('A' for Active; 'I' for Inactive)
REMARK    1  A    between atoms: O_2  and  C_11
REMARK    2  A    between atoms: O_4  and  C_20
REMARK    3  A    between atoms: O_4  and  C_28
REMARK    4  A    between atoms: N_6  and  C_13
REMARK    5  A    between atoms: N_7  and  C_24
REMARK    6  A    between atoms: C_10  and  C_11
REMARK    7  A    between atoms: C_11  and  C_15
REMARK    8  A    between atoms: C_13  and  C_17
REMARK    9  A    between atoms: C_29  and  C_30
REMARK                            x       y       z     vdW  Elec       q    Type
REMARK                         _______ _______ _______ _____ _____    ______ ____
ROOT
ATOM     11  C   UNL     1     -11.264   9.745  19.759  0.00  0.00    +0.167 C 
ENDROOT
BRANCH  11  10
ATOM      1  O   UNL     1     -10.321  11.793  17.881  0.00  0.00    -0.369 OA
ATOM      3  O   UNL     1     -10.187   8.979  15.622  0.00  0.00    -0.273 OA
ATOM      6  N   UNL     1     -11.685   9.401  17.353  0.00  0.00    -0.287 N 
ATOM     10  C   UNL     1     -12.016  10.232  18.517  0.00  0.00    +0.135 C 
ATOM     12  C   UNL     1     -11.699  11.694  18.221  0.00  0.00    +0.185 C 
ATOM     14  C   UNL     1     -10.624   9.717  16.507  0.00  0.00    +0.242 C 
ATOM     16  C   UNL     1     -10.049  11.121  16.672  0.00  0.00    +0.255 C 
BRANCH   6  13
ATOM     13  C   UNL     1     -12.384   8.131  17.212  0.00  0.00    +0.147 C 
BRANCH  13  17
ATOM     17  C   UNL     1     -13.832   8.323  16.861  0.00  0.00    +0.011 A 
ATOM     20  C   UNL     1     -14.225   8.511  15.535  0.00  0.00    +0.125 A 
ATOM     21  C   UNL     1     -14.788   8.311  17.876  0.00  0.00    +0.009 A 
ATOM     25  C   UNL     1     -15.573   8.687  15.225  0.00  0.00    +0.046 A 
ATOM     26  C   UNL     1     -16.137   8.487  17.566  0.00  0.00    +0.001 A 
ATOM     27  C   UNL     1     -16.529   8.676  16.241  0.00  0.00    +0.004 A 
BRANCH  20   4
ATOM      4  O   UNL     1     -13.304   8.524  14.531  0.00  0.00    -0.495 OA
ATOM     28  C   UNL     1     -13.336   7.437  13.608  0.00  0.00    +0.277 C 
ENDBRANCH  20   4
ENDBRANCH  13  17
ENDBRANCH   6  13
ENDBRANCH  11  10
BRANCH  11  15
ATOM     15  C   UNL     1     -12.045   8.698  20.511  0.00  0.00    -0.017 A 
ATOM     18  C   UNL     1     -11.587   7.380  20.549  0.00  0.00    +0.008 A 
ATOM     19  C   UNL     1     -13.225   9.045  21.169  0.00  0.00    +0.008 A 
ATOM     22  C   UNL     1     -12.310   6.410  21.244  0.00  0.00    +0.023 A 
ATOM     23  C   UNL     1     -13.947   8.075  21.864  0.00  0.00    +0.023 A 
ATOM     24  C   UNL     1     -13.490   6.758  21.902  0.00  0.00    +0.034 A 
BRANCH  24   7
ATOM      5  O   UNL     1     -15.780   5.041  21.012  0.00  0.00    -0.268 OA
ATOM      7  N   UNL     1     -14.213   5.788  22.596  0.00  0.00    -0.280 N 
ATOM     29  C   UNL     1     -15.280   5.009  22.131  0.00  0.00    +0.268 C 
ATOM     35  H   UNL     1     -13.918   5.631  23.558  0.00  0.00    +0.155 HD
BRANCH  29  30
ATOM      8  N   UNL     1     -16.787   3.200  22.652  0.00  0.00    -0.247 NA
ATOM      9  N   UNL     1     -15.879   3.111  25.305  0.00  0.00    -0.259 NA
ATOM     30  C   UNL     1     -15.831   4.033  23.108  0.00  0.00    +0.144 A 
ATOM     31  C   UNL     1     -15.385   3.989  24.410  0.00  0.00    +0.143 A 
ATOM     32  C   UNL     1     -17.282   2.321  23.546  0.00  0.00    +0.131 A 
ATOM     33  C   UNL     1     -16.836   2.277  24.850  0.00  0.00    +0.130 A 
ENDBRANCH  29  30
ENDBRANCH  24   7
ENDBRANCH  11  15
BRANCH  11   2
ATOM      2  O   UNL     1     -10.005   9.209  19.368  0.00  0.00    -0.385 OA
ATOM     34  H   UNL     1      -9.492   9.904  18.923  0.00  0.00    +0.210 HD
ENDBRANCH  11   2
TORSDOF 8
ENDMDL
MODEL 4
REMARK VINA RESULT:      -6.9     27.369     30.805
REMARK  Name = 56774753
REMARK  9 active torsions:
REMARK  status: ('A' for Active; 'I' for Inactive)
REMARK    1  A    between atoms: O_2  and  C_11
REMARK    2  A    between atoms: O_4  and  C_20
REMARK    3  A    between atoms: O_4  and  C_28
REMARK    4  A    between atoms: N_6  and  C_13
REMARK    5  A    between atoms: N_7  and  C_24
REMARK    6  A    between atoms: C_10  and  C_11
REMARK    7  A    between atoms: C_11  and  C_15
REMARK    8  A    between atoms: C_13  and  C_17
REMARK    9  A    between atoms: C_29  and  C_30
REMARK                            x       y       z     vdW  Elec       q    Type
REMARK                         _______ _______ _______ _____ _____    ______ ____
ROOT
ATOM     11  C   UNL     1     -12.356   8.242  19.388  0.00  0.00    +0.167 C 
ENDROOT
BRANCH  11  10
ATOM      1  O   UNL     1     -10.330  10.130  18.418  0.00  0.00    -0.369 OA
ATOM      3  O   UNL     1     -12.981  12.520  18.968  0.00  0.00    -0.273 OA
ATOM      6  N   UNL     1     -12.482  10.582  20.158  0.00  0.00    -0.287 N 
ATOM     10  C   UNL     1     -11.693   9.345  20.217  0.00  0.00    +0.135 C 
ATOM     12  C   UNL     1     -10.269   9.611  19.741  0.00  0.00    +0.185 C 
ATOM     14  C   UNL     1     -12.252  11.549  19.181  0.00  0.00    +0.242 C 
ATOM     16  C   UNL     1     -10.951  11.396  18.400  0.00  0.00    +0.255 C 
BRANCH   6  13
ATOM     13  C   UNL     1     -13.636  10.688  21.039  0.00  0.00    +0.147 C 
BRANCH  13  17
ATOM     17  C   UNL     1     -13.238  10.711  22.487  0.00  0.00    +0.011 A 
ATOM     20  C   UNL     1     -13.901   9.916  23.422  0.00  0.00    +0.125 A 
ATOM     21  C   UNL     1     -12.192  11.539  22.893  0.00  0.00    +0.009 A 
ATOM     25  C   UNL     1     -13.519   9.949  24.762  0.00  0.00    +0.046 A 
ATOM     26  C   UNL     1     -11.809  11.573  24.234  0.00  0.00    +0.001 A 
ATOM     27  C   UNL     1     -12.473  10.778  25.168  0.00  0.00    +0.004 A 
BRANCH  20   4
ATOM      4  O   UNL     1     -14.924   9.100  23.042  0.00  0.00    -0.495 OA
ATOM     28  C   UNL     1     -16.110   9.137  23.833  0.00  0.00    +0.277 C 
ENDBRANCH  20   4
ENDBRANCH  13  17
ENDBRANCH   6  13
ENDBRANCH  11  10
BRANCH  11  15
ATOM     15  C   UNL     1     -13.024   7.210  20.260  0.00  0.00    -0.017 A 
ATOM     18  C   UNL     1     -12.257   6.416  21.113  0.00  0.00    +0.008 A 
ATOM     19  C   UNL     1     -14.409   7.049  20.215  0.00  0.00    +0.008 A 
ATOM     22  C   UNL     1     -12.875   5.460  21.920  0.00  0.00    +0.023 A 
ATOM     23  C   UNL     1     -15.026   6.094  21.022  0.00  0.00    +0.023 A 
ATOM     24  C   UNL     1     -14.260   5.299  21.874  0.00  0.00    +0.034 A 
BRANCH  24   7
ATOM      5  O   UNL     1     -16.141   5.636  24.184  0.00  0.00    -0.268 OA
ATOM      7  N   UNL     1     -14.878   4.343  22.681  0.00  0.00    -0.280 N 
ATOM     29  C   UNL     1     -15.754   4.555  23.753  0.00  0.00    +0.268 C 
ATOM     35  H   UNL     1     -14.663   3.375  22.450  0.00  0.00    +0.155 HD
BRANCH  29  30
ATOM      8  N   UNL     1     -16.038   3.195  25.725  0.00  0.00    -0.247 NA
ATOM      9  N   UNL     1     -17.431   1.245  24.268  0.00  0.00    -0.259 NA
ATOM     30  C   UNL     1     -16.274   3.324  24.404  0.00  0.00    +0.144 A 
ATOM     31  C   UNL     1     -16.957   2.366  23.689  0.00  0.00    +0.143 A 
ATOM     32  C   UNL     1     -16.512   2.074  26.305  0.00  0.00    +0.131 A 
ATOM     33  C   UNL     1     -17.196   1.115  25.589  0.00  0.00    +0.130 A 
ENDBRANCH  29  30
ENDBRANCH  24   7
ENDBRANCH  11  15
BRANCH  11   2
ATOM      2  O   UNL     1     -13.319   8.823  18.516  0.00  0.00    -0.385 OA
ATOM     34  H   UNL     1     -14.205   8.692  18.894  0.00  0.00    +0.210 HD
ENDBRANCH  11   2
TORSDOF 8
ENDMDL
MODEL 5
REMARK VINA RESULT:      -6.7     14.886     18.664
REMARK  Name = 56774753
REMARK  9 active torsions:
REMARK  status: ('A' for Active; 'I' for Inactive)
REMARK    1  A    between atoms: O_2  and  C_11
REMARK    2  A    between atoms: O_4  and  C_20
REMARK    3  A    between atoms: O_4  and  C_28
REMARK    4  A    between atoms: N_6  and  C_13
REMARK    5  A    between atoms: N_7  and  C_24
REMARK    6  A    between atoms: C_10  and  C_11
REMARK    7  A    between atoms: C_11  and  C_15
REMARK    8  A    between atoms: C_13  and  C_17
REMARK    9  A    between atoms: C_29  and  C_30
REMARK                            x       y       z     vdW  Elec       q    Type
REMARK                         _______ _______ _______ _____ _____    ______ ____
ROOT
ATOM     11  C   UNL     1      11.068   9.270   4.878  0.00  0.00    +0.167 C 
ENDROOT
BRANCH  11  10
ATOM      1  O   UNL     1      12.478  10.377   7.201  0.00  0.00    -0.369 OA
ATOM      3  O   UNL     1       9.212  10.100   8.716  0.00  0.00    -0.273 OA
ATOM      6  N   UNL     1      10.214   8.725   7.127  0.00  0.00    -0.287 N 
ATOM     10  C   UNL     1      11.333   8.536   6.196  0.00  0.00    +0.135 C 
ATOM     12  C   UNL     1      12.632   9.010   6.838  0.00  0.00    +0.185 C 
ATOM     14  C   UNL     1      10.187   9.785   8.032  0.00  0.00    +0.242 C 
ATOM     16  C   UNL     1      11.509  10.525   8.214  0.00  0.00    +0.255 C 
BRANCH   6  13
ATOM     13  C   UNL     1       9.042   7.878   6.953  0.00  0.00    +0.147 C 
BRANCH  13  17
ATOM     17  C   UNL     1       9.266   6.493   7.488  0.00  0.00    +0.011 A 
ATOM     20  C   UNL     1       9.554   5.434   6.626  0.00  0.00    +0.125 A 
ATOM     21  C   UNL     1       9.185   6.271   8.862  0.00  0.00    +0.009 A 
ATOM     25  C   UNL     1       9.760   4.153   7.138  0.00  0.00    +0.046 A 
ATOM     26  C   UNL     1       9.391   4.989   9.376  0.00  0.00    +0.001 A 
ATOM     27  C   UNL     1       9.678   3.931   8.513  0.00  0.00    +0.004 A 
BRANCH  20   4
ATOM      4  O   UNL     1       9.638   5.633   5.281  0.00  0.00    -0.495 OA
ATOM     28  C   UNL     1      10.429   4.709   4.537  0.00  0.00    +0.277 C 
ENDBRANCH  20   4
ENDBRANCH  13  17
ENDBRANCH   6  13
ENDBRANCH  11  10
BRANCH  11  15
ATOM     15  C   UNL     1      11.217   8.355   3.689  0.00  0.00    -0.017 A 
ATOM     18  C   UNL     1      12.447   7.754   3.420  0.00  0.00    +0.008 A 
ATOM     19  C   UNL     1      10.125   8.111   2.856  0.00  0.00    +0.008 A 
ATOM     22  C   UNL     1      12.585   6.909   2.320  0.00  0.00    +0.023 A 
ATOM     23  C   UNL     1      10.263   7.266   1.755  0.00  0.00    +0.023 A 
ATOM     24  C   UNL     1      11.493   6.664   1.486  0.00  0.00    +0.034 A 
BRANCH  24   7
ATOM      5  O   UNL     1       9.971   4.193   0.738  0.00  0.00    -0.268 OA
ATOM      7  N   UNL     1      11.631   5.820   0.385  0.00  0.00    -0.280 N 
ATOM     29  C   UNL     1      10.889   4.672   0.080  0.00  0.00    +0.268 C 
ATOM     35  H   UNL     1      12.360   6.081  -0.275  0.00  0.00    +0.155 HD
BRANCH  29  30
ATOM      8  N   UNL     1      10.237   3.570  -1.965  0.00  0.00    -0.247 NA
ATOM      9  N   UNL     1      12.917   3.191  -2.700  0.00  0.00    -0.259 NA
ATOM     30  C   UNL     1      11.256   3.993  -1.191  0.00  0.00    +0.144 A 
ATOM     31  C   UNL     1      12.572   3.807  -1.552  0.00  0.00    +0.143 A 
ATOM     32  C   UNL     1      10.581   2.953  -3.113  0.00  0.00    +0.131 A 
ATOM     33  C   UNL     1      11.899   2.767  -3.474  0.00  0.00    +0.130 A 
ENDBRANCH  29  30
ENDBRANCH  24   7
ENDBRANCH  11  15
BRANCH  11   2
ATOM      2  O   UNL     1       9.753   9.814   4.898  0.00  0.00    -0.385 OA
ATOM     34  H   UNL     1       9.217   9.318   5.538  0.00  0.00    +0.210 HD
ENDBRANCH  11   2
TORSDOF 8
ENDMDL
MODEL 6
REMARK VINA RESULT:      -6.7      2.216      2.735
REMARK  Name = 56774753
REMARK  9 active torsions:
REMARK  status: ('A' for Active; 'I' for Inactive)
REMARK    1  A    between atoms: O_2  and  C_11
REMARK    2  A    between atoms: O_4  and  C_20
REMARK    3  A    between atoms: O_4  and  C_28
REMARK    4  A    between atoms: N_6  and  C_13
REMARK    5  A    between atoms: N_7  and  C_24
REMARK    6  A    between atoms: C_10  and  C_11
REMARK    7  A    between atoms: C_11  and  C_15
REMARK    8  A    between atoms: C_13  and  C_17
REMARK    9  A    between atoms: C_29  and  C_30
REMARK                            x       y       z     vdW  Elec       q    Type
REMARK                         _______ _______ _______ _____ _____    ______ ____
ROOT
ATOM     11  C   UNL     1      14.761   7.658  19.087  0.00  0.00    +0.167 C 
ENDROOT
BRANCH  11  10
ATOM      1  O   UNL     1      12.667   8.806  17.382  0.00  0.00    -0.369 OA
ATOM      3  O   UNL     1      10.586   8.022  20.227  0.00  0.00    -0.273 OA
ATOM      6  N   UNL     1      12.812   8.702  20.180  0.00  0.00    -0.287 N 
ATOM     10  C   UNL     1      14.001   8.959  19.359  0.00  0.00    +0.135 C 
ATOM     12  C   UNL     1      13.599   9.643  18.058  0.00  0.00    +0.185 C 
ATOM     14  C   UNL     1      11.576   8.414  19.606  0.00  0.00    +0.242 C 
ATOM     16  C   UNL     1      11.465   8.697  18.111  0.00  0.00    +0.255 C 
BRANCH   6  13
ATOM     13  C   UNL     1      13.001   8.575  21.619  0.00  0.00    +0.147 C 
BRANCH  13  17
ATOM     17  C   UNL     1      12.553   9.804  22.355  0.00  0.00    +0.011 A 
ATOM     20  C   UNL     1      13.436  10.861  22.581  0.00  0.00    +0.125 A 
ATOM     21  C   UNL     1      11.239   9.885  22.814  0.00  0.00    +0.009 A 
ATOM     25  C   UNL     1      13.005  11.996  23.267  0.00  0.00    +0.046 A 
ATOM     26  C   UNL     1      10.807  11.020  23.499  0.00  0.00    +0.001 A 
ATOM     27  C   UNL     1      11.690  12.076  23.726  0.00  0.00    +0.004 A 
BRANCH  20   4
ATOM      4  O   UNL     1      14.724  10.800  22.139  0.00  0.00    -0.495 OA
ATOM     28  C   UNL     1      15.699  11.530  22.880  0.00  0.00    +0.277 C 
ENDBRANCH  20   4
ENDBRANCH  13  17
ENDBRANCH   6  13
ENDBRANCH  11  10
BRANCH  11  15
ATOM     15  C   UNL     1      16.048   7.586  19.869  0.00  0.00    -0.017 A 
ATOM     18  C   UNL     1      16.745   6.380  19.956  0.00  0.00    +0.008 A 
ATOM     19  C   UNL     1      16.542   8.725  20.504  0.00  0.00    +0.008 A 
ATOM     22  C   UNL     1      17.936   6.314  20.680  0.00  0.00    +0.023 A 
ATOM     23  C   UNL     1      17.733   8.659  21.227  0.00  0.00    +0.023 A 
ATOM     24  C   UNL     1      18.430   7.454  21.316  0.00  0.00    +0.034 A 
BRANCH  24   7
ATOM      5  O   UNL     1      21.271   7.344  20.367  0.00  0.00    -0.268 OA
ATOM      7  N   UNL     1      19.620   7.387  22.040  0.00  0.00    -0.280 N 
ATOM     29  C   UNL     1      20.930   7.339  21.545  0.00  0.00    +0.268 C 
ATOM     35  H   UNL     1      19.514   7.379  23.052  0.00  0.00    +0.155 HD
BRANCH  29  30
ATOM      8  N   UNL     1      23.221   7.728  22.193  0.00  0.00    -0.247 NA
ATOM      9  N   UNL     1      22.716   6.807  24.794  0.00  0.00    -0.259 NA
ATOM     30  C   UNL     1      22.000   7.301  22.576  0.00  0.00    +0.144 A 
ATOM     31  C   UNL     1      21.753   6.849  23.853  0.00  0.00    +0.143 A 
ATOM     32  C   UNL     1      24.185   7.686  23.134  0.00  0.00    +0.131 A 
ATOM     33  C   UNL     1      23.937   7.234  24.412  0.00  0.00    +0.130 A 
ENDBRANCH  29  30
ENDBRANCH  24   7
ENDBRANCH  11  15
BRANCH  11   2
ATOM      2  O   UNL     1      13.936   6.550  19.430  0.00  0.00    -0.385 OA
ATOM     34  H   UNL     1      14.281   5.753  18.993  0.00  0.00    +0.210 HD
ENDBRANCH  11   2
TORSDOF 8
ENDMDL
MODEL 7
REMARK VINA RESULT:      -6.5     12.435     16.588
REMARK  Name = 56774753
REMARK  9 active torsions:
REMARK  status: ('A' for Active; 'I' for Inactive)
REMARK    1  A    between atoms: O_2  and  C_11
REMARK    2  A    between atoms: O_4  and  C_20
REMARK    3  A    between atoms: O_4  and  C_28
REMARK    4  A    between atoms: N_6  and  C_13
REMARK    5  A    between atoms: N_7  and  C_24
REMARK    6  A    between atoms: C_10  and  C_11
REMARK    7  A    between atoms: C_11  and  C_15
REMARK    8  A    between atoms: C_13  and  C_17
REMARK    9  A    between atoms: C_29  and  C_30
REMARK                            x       y       z     vdW  Elec       q    Type
REMARK                         _______ _______ _______ _____ _____    ______ ____
ROOT
ATOM     11  C   UNL     1      12.511   7.324   3.363  0.00  0.00    +0.167 C 
ENDROOT
BRANCH  11  10
ATOM      1  O   UNL     1      11.921   6.276   0.686  0.00  0.00    -0.369 OA
ATOM      3  O   UNL     1      11.372   3.217   2.525  0.00  0.00    -0.273 OA
ATOM      6  N   UNL     1      10.961   5.414   3.175  0.00  0.00    -0.287 N 
ATOM     10  C   UNL     1      11.143   6.839   2.874  0.00  0.00    +0.135 C 
ATOM     12  C   UNL     1      10.975   7.083   1.379  0.00  0.00    +0.185 C 
ATOM     14  C   UNL     1      11.337   4.423   2.271  0.00  0.00    +0.242 C 
ATOM     16  C   UNL     1      11.638   4.906   0.855  0.00  0.00    +0.255 C 
BRANCH   6  13
ATOM     13  C   UNL     1      10.545   5.058   4.525  0.00  0.00    +0.147 C 
BRANCH  13  17
ATOM     17  C   UNL     1       9.690   6.124   5.148  0.00  0.00    +0.011 A 
ATOM     20  C   UNL     1       9.734   6.360   6.522  0.00  0.00    +0.125 A 
ATOM     21  C   UNL     1       8.845   6.882   4.337  0.00  0.00    +0.009 A 
ATOM     25  C   UNL     1       8.934   7.354   7.086  0.00  0.00    +0.046 A 
ATOM     26  C   UNL     1       8.044   7.876   4.900  0.00  0.00    +0.001 A 
ATOM     27  C   UNL     1       8.089   8.111   6.275  0.00  0.00    +0.004 A 
BRANCH  20   4
ATOM      4  O   UNL     1      10.555   5.630   7.329  0.00  0.00    -0.495 OA
ATOM     28  C   UNL     1       9.948   4.950   8.425  0.00  0.00    +0.277 C 
ENDBRANCH  20   4
ENDBRANCH  13  17
ENDBRANCH   6  13
ENDBRANCH  11  10
BRANCH  11  15
ATOM     15  C   UNL     1      12.398   8.135   4.629  0.00  0.00    -0.017 A 
ATOM     18  C   UNL     1      11.658   9.318   4.635  0.00  0.00    +0.008 A 
ATOM     19  C   UNL     1      13.034   7.704   5.792  0.00  0.00    +0.008 A 
ATOM     22  C   UNL     1      11.555  10.069   5.806  0.00  0.00    +0.023 A 
ATOM     23  C   UNL     1      12.931   8.454   6.963  0.00  0.00    +0.023 A 
ATOM     24  C   UNL     1      12.191   9.637   6.971  0.00  0.00    +0.034 A 
BRANCH  24   7
ATOM      5  O   UNL     1       9.799  10.273   8.661  0.00  0.00    -0.268 OA
ATOM      7  N   UNL     1      12.088  10.389   8.141  0.00  0.00    -0.280 N 
ATOM     29  C   UNL     1      10.940  10.656   8.897  0.00  0.00    +0.268 C 
ATOM     35  H   UNL     1      12.962  10.783   8.483  0.00  0.00    +0.155 HD
BRANCH  29  30
ATOM      8  N   UNL     1      12.431  11.809  10.402  0.00  0.00    -0.247 NA
ATOM      9  N   UNL     1      10.290  12.591  12.038  0.00  0.00    -0.259 NA
ATOM     30  C   UNL     1      11.157  11.471  10.121  0.00  0.00    +0.144 A 
ATOM     31  C   UNL     1      10.106  11.855  10.924  0.00  0.00    +0.143 A 
ATOM     32  C   UNL     1      12.616  12.546  11.516  0.00  0.00    +0.131 A 
ATOM     33  C   UNL     1      11.564  12.930  12.320  0.00  0.00    +0.130 A 
ENDBRANCH  29  30
ENDBRANCH  24   7
ENDBRANCH  11  15
BRANCH  11   2
ATOM      2  O   UNL     1      13.354   6.201   3.592  0.00  0.00    -0.385 OA
ATOM     34  H   UNL     1      13.587   6.169   4.535  0.00  0.00    +0.210 HD
ENDBRANCH  11   2
TORSDOF 8
ENDMDL
MODEL 8
REMARK VINA RESULT:      -6.5      4.764      7.468
REMARK  Name = 56774753
REMARK  9 active torsions:
REMARK  status: ('A' for Active; 'I' for Inactive)
REMARK    1  A    between atoms: O_2  and  C_11
REMARK    2  A    between atoms: O_4  and  C_20
REMARK    3  A    between atoms: O_4  and  C_28
REMARK    4  A    between atoms: N_6  and  C_13
REMARK    5  A    between atoms: N_7  and  C_24
REMARK    6  A    between atoms: C_10  and  C_11
REMARK    7  A    between atoms: C_11  and  C_15
REMARK    8  A    between atoms: C_13  and  C_17
REMARK    9  A    between atoms: C_29  and  C_30
REMARK                            x       y       z     vdW  Elec       q    Type
REMARK                         _______ _______ _______ _____ _____    ______ ____
ROOT
ATOM     11  C   UNL     1      12.254   8.598  17.813  0.00  0.00    +0.167 C 
ENDROOT
BRANCH  11  10
ATOM      1  O   UNL     1      11.162   7.335  20.226  0.00  0.00    -0.369 OA
ATOM      3  O   UNL     1      14.598   6.317  20.671  0.00  0.00    -0.273 OA
ATOM      6  N   UNL     1      13.757   8.279  19.742  0.00  0.00    -0.287 N 
ATOM     10  C   UNL     1      12.575   9.000  19.255  0.00  0.00    +0.135 C 
ATOM     12  C   UNL     1      11.388   8.739  20.176  0.00  0.00    +0.185 C 
ATOM     14  C   UNL     1      13.648   7.051  20.392  0.00  0.00    +0.242 C 
ATOM     16  C   UNL     1      12.242   6.671  20.844  0.00  0.00    +0.255 C 
BRANCH   6  13
ATOM     13  C   UNL     1      15.065   8.797  19.364  0.00  0.00    +0.147 C 
BRANCH  13  17
ATOM     17  C   UNL     1      15.467   9.975  20.203  0.00  0.00    +0.011 A 
ATOM     20  C   UNL     1      16.240   9.802  21.351  0.00  0.00    +0.125 A 
ATOM     21  C   UNL     1      15.060  11.254  19.822  0.00  0.00    +0.009 A 
ATOM     25  C   UNL     1      16.606  10.907  22.119  0.00  0.00    +0.046 A 
ATOM     26  C   UNL     1      15.425  12.360  20.591  0.00  0.00    +0.001 A 
ATOM     27  C   UNL     1      16.198  12.186  21.739  0.00  0.00    +0.004 A 
BRANCH  20   4
ATOM      4  O   UNL     1      16.648   8.560  21.736  0.00  0.00    -0.495 OA
ATOM     28  C   UNL     1      18.028   8.249  21.563  0.00  0.00    +0.277 C 
ENDBRANCH  20   4
ENDBRANCH  13  17
ENDBRANCH   6  13
ENDBRANCH  11  10
BRANCH  11  15
ATOM     15  C   UNL     1      13.199   9.239  16.829  0.00  0.00    -0.017 A 
ATOM     18  C   UNL     1      13.986   8.442  15.997  0.00  0.00    +0.008 A 
ATOM     19  C   UNL     1      13.287  10.629  16.750  0.00  0.00    +0.008 A 
ATOM     22  C   UNL     1      14.861   9.035  15.087  0.00  0.00    +0.023 A 
ATOM     23  C   UNL     1      14.161  11.222  15.840  0.00  0.00    +0.023 A 
ATOM     24  C   UNL     1      14.949  10.425  15.008  0.00  0.00    +0.034 A 
BRANCH  24   7
ATOM      5  O   UNL     1      17.316  12.204  15.475  0.00  0.00    -0.268 OA
ATOM      7  N   UNL     1      15.824  11.018  14.099  0.00  0.00    -0.280 N 
ATOM     29  C   UNL     1      16.921  11.845  14.370  0.00  0.00    +0.268 C 
ATOM     35  H   UNL     1      15.637  10.815  13.119  0.00  0.00    +0.155 HD
BRANCH  29  30
ATOM      8  N   UNL     1      17.050  12.238  11.994  0.00  0.00    -0.247 NA
ATOM      9  N   UNL     1      19.682  13.180  12.219  0.00  0.00    -0.259 NA
ATOM     30  C   UNL     1      17.686  12.303  13.181  0.00  0.00    +0.144 A 
ATOM     31  C   UNL     1      18.978  12.766  13.291  0.00  0.00    +0.143 A 
ATOM     32  C   UNL     1      17.753  12.652  10.921  0.00  0.00    +0.131 A 
ATOM     33  C   UNL     1      19.047  13.115  11.032  0.00  0.00    +0.130 A 
ENDBRANCH  29  30
ENDBRANCH  24   7
ENDBRANCH  11  15
BRANCH  11   2
ATOM      2  O   UNL     1      12.330   7.182  17.691  0.00  0.00    -0.385 OA
ATOM     34  H   UNL     1      11.690   6.778  18.301  0.00  0.00    +0.210 HD
ENDBRANCH  11   2
TORSDOF 8
ENDMDL
MODEL 9
REMARK VINA RESULT:      -6.5     15.724     19.259
REMARK  Name = 56774753
REMARK  9 active torsions:
REMARK  status: ('A' for Active; 'I' for Inactive)
REMARK    1  A    between atoms: O_2  and  C_11
REMARK    2  A    between atoms: O_4  and  C_20
REMARK    3  A    between atoms: O_4  and  C_28
REMARK    4  A    between atoms: N_6  and  C_13
REMARK    5  A    between atoms: N_7  and  C_24
REMARK    6  A    between atoms: C_10  and  C_11
REMARK    7  A    between atoms: C_11  and  C_15
REMARK    8  A    between atoms: C_13  and  C_17
REMARK    9  A    between atoms: C_29  and  C_30
REMARK                            x       y       z     vdW  Elec       q    Type
REMARK                         _______ _______ _______ _____ _____    ______ ____
ROOT
ATOM     11  C   UNL     1       9.089   6.273   4.819  0.00  0.00    +0.167 C 
ENDROOT
BRANCH  11  10
ATOM      1  O   UNL     1       8.127   7.416   7.344  0.00  0.00    -0.369 OA
ATOM      3  O   UNL     1      11.099   5.828   8.643  0.00  0.00    -0.273 OA
ATOM      6  N   UNL     1      10.750   6.810   6.562  0.00  0.00    -0.287 N 
ATOM     10  C   UNL     1       9.781   7.381   5.619  0.00  0.00    +0.135 C 
ATOM     12  C   UNL     1       8.764   8.233   6.369  0.00  0.00    +0.185 C 
ATOM     14  C   UNL     1      10.389   6.464   7.862  0.00  0.00    +0.242 C 
ATOM     16  C   UNL     1       9.043   7.005   8.334  0.00  0.00    +0.255 C 
BRANCH   6  13
ATOM     13  C   UNL     1      12.060   6.443   6.041  0.00  0.00    +0.147 C 
BRANCH  13  17
ATOM     17  C   UNL     1      12.918   7.647   5.779  0.00  0.00    +0.011 A 
ATOM     20  C   UNL     1      13.462   7.873   4.514  0.00  0.00    +0.125 A 
ATOM     21  C   UNL     1      13.168   8.545   6.816  0.00  0.00    +0.009 A 
ATOM     25  C   UNL     1      14.256   8.997   4.286  0.00  0.00    +0.046 A 
ATOM     26  C   UNL     1      13.963   9.670   6.589  0.00  0.00    +0.001 A 
ATOM     27  C   UNL     1      14.507   9.894   5.324  0.00  0.00    +0.004 A 
BRANCH  20   4
ATOM      4  O   UNL     1      13.226   7.007   3.489  0.00  0.00    -0.495 OA
ATOM     28  C   UNL     1      14.355   6.579   2.729  0.00  0.00    +0.277 C 
ENDBRANCH  20   4
ENDBRANCH  13  17
ENDBRANCH   6  13
ENDBRANCH  11  10
BRANCH  11  15
ATOM     15  C   UNL     1       9.794   6.002   3.514  0.00  0.00    -0.017 A 
ATOM     18  C   UNL     1      10.469   4.795   3.324  0.00  0.00    +0.008 A 
ATOM     19  C   UNL     1       9.772   6.956   2.497  0.00  0.00    +0.008 A 
ATOM     22  C   UNL     1      11.122   4.544   2.117  0.00  0.00    +0.023 A 
ATOM     23  C   UNL     1      10.424   6.704   1.291  0.00  0.00    +0.023 A 
ATOM     24  C   UNL     1      11.100   5.499   1.100  0.00  0.00    +0.034 A 
BRANCH  24   7
ATOM      5  O   UNL     1      10.200   3.953  -1.306  0.00  0.00    -0.268 OA
ATOM      7  N   UNL     1      11.753   5.248  -0.106  0.00  0.00    -0.280 N 
ATOM     29  C   UNL     1      11.285   4.516  -1.205  0.00  0.00    +0.268 C 
ATOM     35  H   UNL     1      12.682   5.655  -0.191  0.00  0.00    +0.155 HD
BRANCH  29  30
ATOM      8  N   UNL     1      13.498   4.764  -2.132  0.00  0.00    -0.247 NA
ATOM      9  N   UNL     1      12.591   4.025  -4.681  0.00  0.00    -0.259 NA
ATOM     30  C   UNL     1      12.209   4.449  -2.368  0.00  0.00    +0.144 A 
ATOM     31  C   UNL     1      11.764   4.086  -3.620  0.00  0.00    +0.143 A 
ATOM     32  C   UNL     1      14.327   4.703  -3.194  0.00  0.00    +0.131 A 
ATOM     33  C   UNL     1      13.881   4.340  -4.447  0.00  0.00    +0.130 A 
ENDBRANCH  29  30
ENDBRANCH  24   7
ENDBRANCH  11  15
BRANCH  11   2
ATOM      2  O   UNL     1       9.054   5.082   5.597  0.00  0.00    -0.385 OA
ATOM     34  H   UNL     1       9.883   5.009   6.098  0.00  0.00    +0.210 HD
ENDBRANCH  11   2
TORSDOF 8
ENDMDL
MODEL 10
REMARK VINA RESULT:      -6.5     28.821     30.795
REMARK  Name = 56774753
REMARK  9 active torsions:
REMARK  status: ('A' for Active; 'I' for Inactive)
REMARK    1  A    between atoms: O_2  and  C_11
REMARK    2  A    between atoms: O_4  and  C_20
REMARK    3  A    between atoms: O_4  and  C_28
REMARK    4  A    between atoms: N_6  and  C_13
REMARK    5  A    between atoms: N_7  and  C_24
REMARK    6  A    between atoms: C_10  and  C_11
REMARK    7  A    between atoms: C_11  and  C_15
REMARK    8  A    between atoms: C_13  and  C_17
REMARK    9  A    between atoms: C_29  and  C_30
REMARK                            x       y       z     vdW  Elec       q    Type
REMARK                         _______ _______ _______ _____ _____    ______ ____
ROOT
ATOM     11  C   UNL     1      -4.702 -11.006  15.283  0.00  0.00    +0.167 C 
ENDROOT
BRANCH  11  10
ATOM      1  O   UNL     1      -4.809 -13.854  15.979  0.00  0.00    -0.369 OA
ATOM      3  O   UNL     1      -4.442 -12.559  19.330  0.00  0.00    -0.273 OA
ATOM      6  N   UNL     1      -5.557 -11.628  17.511  0.00  0.00    -0.287 N 
ATOM     10  C   UNL     1      -5.823 -11.692  16.069  0.00  0.00    +0.135 C 
ATOM     12  C   UNL     1      -5.992 -13.143  15.633  0.00  0.00    +0.185 C 
ATOM     14  C   UNL     1      -4.846 -12.631  18.168  0.00  0.00    +0.242 C 
ATOM     16  C   UNL     1      -4.651 -13.921  17.378  0.00  0.00    +0.255 C 
BRANCH   6  13
ATOM     13  C   UNL     1      -5.899 -10.394  18.205  0.00  0.00    +0.147 C 
BRANCH  13  17
ATOM     17  C   UNL     1      -7.373 -10.111  18.155  0.00  0.00    +0.011 A 
ATOM     20  C   UNL     1      -8.253 -10.755  19.025  0.00  0.00    +0.125 A 
ATOM     21  C   UNL     1      -7.859  -9.192  17.225  0.00  0.00    +0.009 A 
ATOM     25  C   UNL     1      -9.619 -10.481  18.965  0.00  0.00    +0.046 A 
ATOM     26  C   UNL     1      -9.226  -8.917  17.165  0.00  0.00    +0.001 A 
ATOM     27  C   UNL     1     -10.105  -9.562  18.035  0.00  0.00    +0.004 A 
BRANCH  20   4
ATOM      4  O   UNL     1      -7.794 -11.655  19.940  0.00  0.00    -0.495 OA
ATOM     28  C   UNL     1      -8.204 -13.011  19.776  0.00  0.00    +0.277 C 
ENDBRANCH  20   4
ENDBRANCH  13  17
ENDBRANCH   6  13
ENDBRANCH  11  10
BRANCH  11  15
ATOM     15  C   UNL     1      -5.199 -10.443  13.975  0.00  0.00    -0.017 A 
ATOM     18  C   UNL     1      -6.513  -9.985  13.867  0.00  0.00    +0.008 A 
ATOM     19  C   UNL     1      -4.346 -10.381  12.873  0.00  0.00    +0.008 A 
ATOM     22  C   UNL     1      -6.972  -9.465  12.657  0.00  0.00    +0.023 A 
ATOM     23  C   UNL     1      -4.805  -9.861  11.664  0.00  0.00    +0.023 A 
ATOM     24  C   UNL     1      -6.118  -9.403  11.555  0.00  0.00    +0.034 A 
BRANCH  24   7
ATOM      5  O   UNL     1      -6.943 -10.802   9.035  0.00  0.00    -0.268 OA
ATOM      7  N   UNL     1      -6.578  -8.884  10.345  0.00  0.00    -0.280 N 
ATOM     29  C   UNL     1      -6.953  -9.586   9.192  0.00  0.00    +0.268 C 
ATOM     35  H   UNL     1      -6.652  -7.870  10.306  0.00  0.00    +0.155 HD
BRANCH  29  30
ATOM      8  N   UNL     1      -8.002  -7.568   8.385  0.00  0.00    -0.247 NA
ATOM      9  N   UNL     1      -7.736  -8.409   5.722  0.00  0.00    -0.259 NA
ATOM     30  C   UNL     1      -7.432  -8.747   8.062  0.00  0.00    +0.144 A 
ATOM     31  C   UNL     1      -7.302  -9.160   6.754  0.00  0.00    +0.143 A 
ATOM     32  C   UNL     1      -8.436  -6.817   7.353  0.00  0.00    +0.131 A 
ATOM     33  C   UNL     1      -8.305  -7.231   6.045  0.00  0.00    +0.130 A 
ENDBRANCH  29  30
ENDBRANCH  24   7
ENDBRANCH  11  15
BRANCH  11   2
ATOM      2  O   UNL     1      -4.147  -9.958  16.070  0.00  0.00    -0.385 OA
ATOM     34  H   UNL     1      -4.822  -9.642  16.694  0.00  0.00    +0.210 HD
ENDBRANCH  11   2
TORSDOF 8
ENDMDL
