MODEL 1
REMARK VINA RESULT:      -7.3      0.000      0.000
REMARK  Name = 51137113
REMARK  3 active torsions:
REMARK  status: ('A' for Active; 'I' for Inactive)
REMARK    1  A    between atoms: N_3  and  C_11
REMARK    2  A    between atoms: C_6  and  C_10
REMARK    3  A    between atoms: C_11  and  C_12
REMARK                            x       y       z     vdW  Elec       q    Type
REMARK                         _______ _______ _______ _____ _____    ______ ____
ROOT
ATOM      3  N   UNL     1      11.956   4.231   1.877  0.00  0.00    -0.297 NA
ATOM      6  C   UNL     1      10.437   5.268   3.332  0.00  0.00    +0.070 C 
ATOM      7  C   UNL     1      11.417   6.316   2.778  0.00  0.00    +0.028 C 
ATOM      8  C   UNL     1      11.096   3.917   3.020  0.00  0.00    +0.096 C 
ATOM      9  C   UNL     1      12.580   5.511   2.214  0.00  0.00    +0.085 C 
ENDROOT
BRANCH   6  10
ATOM      4  N   UNL     1      10.264   4.406   5.684  0.00  0.00    -0.342 N 
ATOM      5  N   UNL     1       9.612   6.509   5.374  0.00  0.00    -0.232 NA
ATOM     10  C   UNL     1      10.092   5.431   4.795  0.00  0.00    +0.113 A 
ATOM     13  C   UNL     1       9.869   4.852   6.918  0.00  0.00    +0.066 A 
ATOM     14  C   UNL     1       9.466   6.167   6.699  0.00  0.00    +0.089 A 
ATOM     17  C   UNL     1       9.830   4.238   8.170  0.00  0.00    +0.028 A 
ATOM     18  C   UNL     1       8.993   6.928   7.781  0.00  0.00    +0.030 A 
ATOM     19  C   UNL     1       9.356   5.010   9.236  0.00  0.00    +0.002 A 
ATOM     20  C   UNL     1       8.945   6.331   9.048  0.00  0.00    +0.002 A 
ATOM     24  H   UNL     1      10.619   3.483   5.472  0.00  0.00    +0.167 HD
ENDBRANCH   6  10
BRANCH   3  11
ATOM     11  C   UNL     1      12.936   3.187   1.617  0.00  0.00    +0.119 C 
BRANCH  11  12
ATOM      1  F   UNL     1      13.937   4.242  -3.042  0.00  0.00    -0.202 F 
ATOM      2  F   UNL     1      16.565   4.677  -2.428  0.00  0.00    -0.202 F 
ATOM     12  C   UNL     1      13.906   3.585   0.536  0.00  0.00    -0.030 A 
ATOM     15  C   UNL     1      13.463   3.732  -0.779  0.00  0.00    +0.046 A 
ATOM     16  C   UNL     1      15.247   3.807   0.849  0.00  0.00    +0.008 A 
ATOM     21  C   UNL     1      14.362   4.100  -1.780  0.00  0.00    +0.159 A 
ATOM     22  C   UNL     1      16.146   4.176  -0.151  0.00  0.00    +0.041 A 
ATOM     23  C   UNL     1      15.703   4.323  -1.467  0.00  0.00    +0.158 A 
ENDBRANCH  11  12
ENDBRANCH   3  11
TORSDOF 3
ENDMDL
MODEL 2
REMARK VINA RESULT:      -7.1     17.444     20.060
REMARK  Name = 51137113
REMARK  3 active torsions:
REMARK  status: ('A' for Active; 'I' for Inactive)
REMARK    1  A    between atoms: N_3  and  C_11
REMARK    2  A    between atoms: C_6  and  C_10
REMARK    3  A    between atoms: C_11  and  C_12
REMARK                            x       y       z     vdW  Elec       q    Type
REMARK                         _______ _______ _______ _____ _____    ______ ____
ROOT
ATOM      3  N   UNL     1      16.552   7.574  20.553  0.00  0.00    -0.297 NA
ATOM      6  C   UNL     1      18.693   6.711  20.138  0.00  0.00    +0.070 C 
ATOM      7  C   UNL     1      17.649   5.897  19.355  0.00  0.00    +0.028 C 
ATOM      8  C   UNL     1      17.876   7.495  21.174  0.00  0.00    +0.096 C 
ATOM      9  C   UNL     1      16.314   6.239  20.002  0.00  0.00    +0.085 C 
ENDROOT
BRANCH   6  10
ATOM      4  N   UNL     1      20.309   4.790  20.129  0.00  0.00    -0.342 N 
ATOM      5  N   UNL     1      20.391   6.114  21.913  0.00  0.00    -0.232 NA
ATOM     10  C   UNL     1      19.801   5.893  20.759  0.00  0.00    +0.113 A 
ATOM     13  C   UNL     1      21.291   4.265  20.929  0.00  0.00    +0.066 A 
ATOM     14  C   UNL     1      21.322   5.109  22.037  0.00  0.00    +0.089 A 
ATOM     17  C   UNL     1      22.128   3.159  20.785  0.00  0.00    +0.028 A 
ATOM     18  C   UNL     1      22.237   4.847  23.071  0.00  0.00    +0.030 A 
ATOM     19  C   UNL     1      23.032   2.913  21.824  0.00  0.00    +0.002 A 
ATOM     20  C   UNL     1      23.088   3.741  22.948  0.00  0.00    +0.002 A 
ATOM     24  H   UNL     1      20.016   4.424  19.233  0.00  0.00    +0.167 HD
ENDBRANCH   6  10
BRANCH   3  11
ATOM     11  C   UNL     1      15.520   7.977  21.496  0.00  0.00    +0.119 C 
BRANCH  11  12
ATOM      1  F   UNL     1      10.775   6.899  21.109  0.00  0.00    -0.202 F 
ATOM      2  F   UNL     1      10.514   8.603  18.986  0.00  0.00    -0.202 F 
ATOM     12  C   UNL     1      14.182   8.145  20.825  0.00  0.00    -0.030 A 
ATOM     15  C   UNL     1      13.076   7.430  21.287  0.00  0.00    +0.046 A 
ATOM     16  C   UNL     1      14.048   9.013  19.742  0.00  0.00    +0.008 A 
ATOM     21  C   UNL     1      11.837   7.585  20.665  0.00  0.00    +0.159 A 
ATOM     22  C   UNL     1      12.810   9.168  19.121  0.00  0.00    +0.041 A 
ATOM     23  C   UNL     1      11.703   8.454  19.583  0.00  0.00    +0.158 A 
ENDBRANCH  11  12
ENDBRANCH   3  11
TORSDOF 3
ENDMDL
MODEL 3
REMARK VINA RESULT:      -7.1     17.580     20.834
REMARK  Name = 51137113
REMARK  3 active torsions:
REMARK  status: ('A' for Active; 'I' for Inactive)
REMARK    1  A    between atoms: N_3  and  C_11
REMARK    2  A    between atoms: C_6  and  C_10
REMARK    3  A    between atoms: C_11  and  C_12
REMARK                            x       y       z     vdW  Elec       q    Type
REMARK                         _______ _______ _______ _____ _____    ______ ____
ROOT
ATOM      3  N   UNL     1      11.668   9.755  21.372  0.00  0.00    -0.297 NA
ATOM      6  C   UNL     1      13.524   9.263  20.027  0.00  0.00    +0.070 C 
ATOM      7  C   UNL     1      12.250   8.704  19.370  0.00  0.00    +0.028 C 
ATOM      8  C   UNL     1      13.116   9.562  21.475  0.00  0.00    +0.096 C 
ATOM      9  C   UNL     1      11.208   8.691  20.480  0.00  0.00    +0.085 C 
ENDROOT
BRANCH   6  10
ATOM      4  N   UNL     1      15.795   8.505  20.781  0.00  0.00    -0.342 N 
ATOM      5  N   UNL     1      14.923   7.387  19.071  0.00  0.00    -0.232 NA
ATOM     10  C   UNL     1      14.735   8.364  19.930  0.00  0.00    +0.113 A 
ATOM     13  C   UNL     1      16.729   7.557  20.450  0.00  0.00    +0.066 A 
ATOM     14  C   UNL     1      16.161   6.872  19.380  0.00  0.00    +0.089 A 
ATOM     17  C   UNL     1      17.983   7.249  20.978  0.00  0.00    +0.028 A 
ATOM     18  C   UNL     1      16.872   5.814  18.788  0.00  0.00    +0.030 A 
ATOM     19  C   UNL     1      18.677   6.194  20.378  0.00  0.00    +0.002 A 
ATOM     20  C   UNL     1      18.134   5.487  19.303  0.00  0.00    +0.002 A 
ATOM     24  H   UNL     1      15.880   9.187  21.525  0.00  0.00    +0.167 HD
ENDBRANCH   6  10
BRANCH   3  11
ATOM     11  C   UNL     1      11.009   9.716  22.669  0.00  0.00    +0.119 C 
BRANCH  11  12
ATOM      1  F   UNL     1      10.829  14.586  22.388  0.00  0.00    -0.202 F 
ATOM      2  F   UNL     1      10.888  14.792  25.114  0.00  0.00    -0.202 F 
ATOM     12  C   UNL     1      10.976  11.073  23.323  0.00  0.00    -0.030 A 
ATOM     15  C   UNL     1      10.917  12.224  22.537  0.00  0.00    +0.046 A 
ATOM     16  C   UNL     1      11.007  11.178  24.713  0.00  0.00    +0.008 A 
ATOM     21  C   UNL     1      10.888  13.480  23.142  0.00  0.00    +0.159 A 
ATOM     22  C   UNL     1      10.977  12.434  25.318  0.00  0.00    +0.041 A 
ATOM     23  C   UNL     1      10.917  13.586  24.533  0.00  0.00    +0.158 A 
ENDBRANCH  11  12
ENDBRANCH   3  11
TORSDOF 3
ENDMDL
MODEL 4
REMARK VINA RESULT:      -7.0     23.151     26.078
REMARK  Name = 51137113
REMARK  3 active torsions:
REMARK  status: ('A' for Active; 'I' for Inactive)
REMARK    1  A    between atoms: N_3  and  C_11
REMARK    2  A    between atoms: C_6  and  C_10
REMARK    3  A    between atoms: C_11  and  C_12
REMARK                            x       y       z     vdW  Elec       q    Type
REMARK                         _______ _______ _______ _____ _____    ______ ____
ROOT
ATOM      3  N   UNL     1      -3.959 -10.870  14.708  0.00  0.00    -0.297 NA
ATOM      6  C   UNL     1      -5.308  -9.802  16.302  0.00  0.00    +0.070 C 
ATOM      7  C   UNL     1      -4.268 -10.684  17.015  0.00  0.00    +0.028 C 
ATOM      8  C   UNL     1      -5.296 -10.287  14.846  0.00  0.00    +0.096 C 
ATOM      9  C   UNL     1      -3.750 -11.631  15.940  0.00  0.00    +0.085 C 
ENDROOT
BRANCH   6  10
ATOM      4  N   UNL     1      -7.671  -8.976  16.487  0.00  0.00    -0.342 N 
ATOM      5  N   UNL     1      -7.104 -10.605  17.888  0.00  0.00    -0.232 NA
ATOM     10  C   UNL     1      -6.687  -9.823  16.918  0.00  0.00    +0.113 A 
ATOM     13  C   UNL     1      -8.796  -9.229  17.227  0.00  0.00    +0.066 A 
ATOM     14  C   UNL     1      -8.417 -10.249  18.095  0.00  0.00    +0.089 A 
ATOM     17  C   UNL     1     -10.075  -8.670  17.214  0.00  0.00    +0.028 A 
ATOM     18  C   UNL     1      -9.356 -10.754  19.011  0.00  0.00    +0.030 A 
ATOM     19  C   UNL     1     -10.996  -9.184  18.132  0.00  0.00    +0.002 A 
ATOM     20  C   UNL     1     -10.646 -10.208  19.016  0.00  0.00    +0.002 A 
ATOM     24  H   UNL     1      -7.587  -8.285  15.752  0.00  0.00    +0.167 HD
ENDBRANCH   6  10
BRANCH   3  11
ATOM     11  C   UNL     1      -3.834 -11.697  13.517  0.00  0.00    +0.119 C 
BRANCH  11  12
ATOM      1  F   UNL     1      -1.359  -8.851  10.419  0.00  0.00    -0.202 F 
ATOM      2  F   UNL     1      -3.563  -8.591   8.823  0.00  0.00    -0.202 F 
ATOM     12  C   UNL     1      -3.762 -10.867  12.263  0.00  0.00    -0.030 A 
ATOM     15  C   UNL     1      -2.570 -10.231  11.915  0.00  0.00    +0.046 A 
ATOM     16  C   UNL     1      -4.887 -10.734  11.449  0.00  0.00    +0.008 A 
ATOM     21  C   UNL     1      -2.504  -9.462  10.754  0.00  0.00    +0.159 A 
ATOM     22  C   UNL     1      -4.820  -9.966  10.287  0.00  0.00    +0.041 A 
ATOM     23  C   UNL     1      -3.628  -9.329   9.939  0.00  0.00    +0.158 A 
ENDBRANCH  11  12
ENDBRANCH   3  11
TORSDOF 3
ENDMDL
MODEL 5
REMARK VINA RESULT:      -7.0     18.096     20.801
REMARK  Name = 51137113
REMARK  3 active torsions:
REMARK  status: ('A' for Active; 'I' for Inactive)
REMARK    1  A    between atoms: N_3  and  C_11
REMARK    2  A    between atoms: C_6  and  C_10
REMARK    3  A    between atoms: C_11  and  C_12
REMARK                            x       y       z     vdW  Elec       q    Type
REMARK                         _______ _______ _______ _____ _____    ______ ____
ROOT
ATOM      3  N   UNL     1      12.049   8.790  21.217  0.00  0.00    -0.297 NA
ATOM      6  C   UNL     1      14.053   8.378  20.070  0.00  0.00    +0.070 C 
ATOM      7  C   UNL     1      12.971   7.398  19.584  0.00  0.00    +0.028 C 
ATOM      8  C   UNL     1      13.495   8.955  21.378  0.00  0.00    +0.096 C 
ATOM      9  C   UNL     1      11.883   7.452  20.649  0.00  0.00    +0.085 C 
ENDROOT
BRANCH   6  10
ATOM      4  N   UNL     1      15.855   6.750  19.432  0.00  0.00    -0.342 N 
ATOM      5  N   UNL     1      16.346   8.129  21.105  0.00  0.00    -0.232 NA
ATOM     10  C   UNL     1      15.429   7.775  20.232  0.00  0.00    +0.113 A 
ATOM     13  C   UNL     1      17.130   6.422  19.814  0.00  0.00    +0.066 A 
ATOM     14  C   UNL     1      17.413   7.296  20.861  0.00  0.00    +0.089 A 
ATOM     17  C   UNL     1      18.032   5.465  19.350  0.00  0.00    +0.028 A 
ATOM     18  C   UNL     1      18.666   7.224  21.493  0.00  0.00    +0.030 A 
ATOM     19  C   UNL     1      19.274   5.407  19.991  0.00  0.00    +0.002 A 
ATOM     20  C   UNL     1      19.588   6.270  21.043  0.00  0.00    +0.002 A 
ATOM     24  H   UNL     1      15.326   6.311  18.689  0.00  0.00    +0.167 HD
ENDBRANCH   6  10
BRANCH   3  11
ATOM     11  C   UNL     1      11.328   8.954  22.470  0.00  0.00    +0.119 C 
BRANCH  11  12
ATOM      1  F   UNL     1      10.643  12.481  25.774  0.00  0.00    -0.202 F 
ATOM      2  F   UNL     1      10.663  14.386  23.813  0.00  0.00    -0.202 F 
ATOM     12  C   UNL     1      11.150  10.406  22.828  0.00  0.00    -0.030 A 
ATOM     15  C   UNL     1      10.976  10.778  24.162  0.00  0.00    +0.046 A 
ATOM     16  C   UNL     1      11.160  11.378  21.829  0.00  0.00    +0.008 A 
ATOM     21  C   UNL     1      10.810  12.123  24.494  0.00  0.00    +0.159 A 
ATOM     22  C   UNL     1      10.996  12.722  22.161  0.00  0.00    +0.041 A 
ATOM     23  C   UNL     1      10.821  13.095  23.494  0.00  0.00    +0.158 A 
ENDBRANCH  11  12
ENDBRANCH   3  11
TORSDOF 3
ENDMDL
MODEL 6
REMARK VINA RESULT:      -6.9     22.858     25.289
REMARK  Name = 51137113
REMARK  3 active torsions:
REMARK  status: ('A' for Active; 'I' for Inactive)
REMARK    1  A    between atoms: N_3  and  C_11
REMARK    2  A    between atoms: C_6  and  C_10
REMARK    3  A    between atoms: C_11  and  C_12
REMARK                            x       y       z     vdW  Elec       q    Type
REMARK                         _______ _______ _______ _____ _____    ______ ____
ROOT
ATOM      3  N   UNL     1      -2.416 -11.415  12.605  0.00  0.00    -0.297 NA
ATOM      6  C   UNL     1      -2.696 -10.661  14.808  0.00  0.00    +0.070 C 
ATOM      7  C   UNL     1      -1.592 -11.731  14.767  0.00  0.00    +0.028 C 
ATOM      8  C   UNL     1      -3.431 -10.810  13.470  0.00  0.00    +0.096 C 
ATOM      9  C   UNL     1      -1.779 -12.441  13.432  0.00  0.00    +0.085 C 
ENDROOT
BRANCH   6  10
ATOM      4  N   UNL     1      -3.273 -11.454  17.119  0.00  0.00    -0.342 N 
ATOM      5  N   UNL     1      -4.805 -10.192  16.119  0.00  0.00    -0.232 NA
ATOM     10  C   UNL     1      -3.620 -10.747  16.001  0.00  0.00    +0.113 A 
ATOM     13  C   UNL     1      -4.302 -11.347  18.018  0.00  0.00    +0.066 A 
ATOM     14  C   UNL     1      -5.247 -10.555  17.371  0.00  0.00    +0.089 A 
ATOM     17  C   UNL     1      -4.484 -11.860  19.303  0.00  0.00    +0.028 A 
ATOM     18  C   UNL     1      -6.449 -10.246  18.029  0.00  0.00    +0.030 A 
ATOM     19  C   UNL     1      -5.686 -11.543  19.943  0.00  0.00    +0.002 A 
ATOM     20  C   UNL     1      -6.653 -10.751  19.320  0.00  0.00    +0.002 A 
ATOM     24  H   UNL     1      -2.412 -11.966  17.261  0.00  0.00    +0.167 HD
ENDBRANCH   6  10
BRANCH   3  11
ATOM     11  C   UNL     1      -2.982 -11.962  11.382  0.00  0.00    +0.119 C 
BRANCH  11  12
ATOM      1  F   UNL     1      -7.306 -10.540   9.619  0.00  0.00    -0.202 F 
ATOM      2  F   UNL     1      -6.217  -8.206   8.702  0.00  0.00    -0.202 F 
ATOM     12  C   UNL     1      -3.846 -10.958  10.666  0.00  0.00    -0.030 A 
ATOM     15  C   UNL     1      -5.203 -11.220  10.470  0.00  0.00    +0.046 A 
ATOM     16  C   UNL     1      -3.291  -9.768  10.198  0.00  0.00    +0.008 A 
ATOM     21  C   UNL     1      -6.003 -10.290   9.807  0.00  0.00    +0.159 A 
ATOM     22  C   UNL     1      -4.091  -8.838   9.535  0.00  0.00    +0.041 A 
ATOM     23  C   UNL     1      -5.448  -9.099   9.339  0.00  0.00    +0.158 A 
ENDBRANCH  11  12
ENDBRANCH   3  11
TORSDOF 3
ENDMDL
MODEL 7
REMARK VINA RESULT:      -6.9     22.583     25.401
REMARK  Name = 51137113
REMARK  3 active torsions:
REMARK  status: ('A' for Active; 'I' for Inactive)
REMARK    1  A    between atoms: N_3  and  C_11
REMARK    2  A    between atoms: C_6  and  C_10
REMARK    3  A    between atoms: C_11  and  C_12
REMARK                            x       y       z     vdW  Elec       q    Type
REMARK                         _______ _______ _______ _____ _____    ______ ____
ROOT
ATOM      3  N   UNL     1      -2.113 -11.060  13.761  0.00  0.00    -0.297 NA
ATOM      6  C   UNL     1      -3.192 -10.248  15.679  0.00  0.00    +0.070 C 
ATOM      7  C   UNL     1      -1.843 -10.875  16.073  0.00  0.00    +0.028 C 
ATOM      8  C   UNL     1      -3.459 -10.762  14.258  0.00  0.00    +0.096 C 
ATOM      9  C   UNL     1      -1.438 -11.725  14.876  0.00  0.00    +0.085 C 
ENDROOT
BRANCH   6  10
ATOM      4  N   UNL     1      -5.556  -9.955  16.470  0.00  0.00    -0.342 N 
ATOM      5  N   UNL     1      -4.296 -11.330  17.679  0.00  0.00    -0.232 NA
ATOM     10  C   UNL     1      -4.329 -10.535  16.632  0.00  0.00    +0.113 A 
ATOM     13  C   UNL     1      -6.369 -10.405  17.477  0.00  0.00    +0.066 A 
ATOM     14  C   UNL     1      -5.560 -11.261  18.219  0.00  0.00    +0.089 A 
ATOM     17  C   UNL     1      -7.703 -10.144  17.796  0.00  0.00    +0.028 A 
ATOM     18  C   UNL     1      -6.096 -11.904  19.348  0.00  0.00    +0.030 A 
ATOM     19  C   UNL     1      -8.219 -10.792  18.922  0.00  0.00    +0.002 A 
ATOM     20  C   UNL     1      -7.432 -11.657  19.686  0.00  0.00    +0.002 A 
ATOM     24  H   UNL     1      -5.821  -9.309  15.737  0.00  0.00    +0.167 HD
ENDBRANCH   6  10
BRANCH   3  11
ATOM     11  C   UNL     1      -2.134 -11.878  12.558  0.00  0.00    +0.119 C 
BRANCH  11  12
ATOM      1  F   UNL     1      -5.189 -11.819   8.752  0.00  0.00    -0.202 F 
ATOM      2  F   UNL     1      -4.578  -9.203   8.242  0.00  0.00    -0.202 F 
ATOM     12  C   UNL     1      -2.787 -11.163  11.405  0.00  0.00    -0.030 A 
ATOM     15  C   UNL     1      -3.704 -11.836  10.597  0.00  0.00    +0.046 A 
ATOM     16  C   UNL     1      -2.475  -9.829  11.144  0.00  0.00    +0.008 A 
ATOM     21  C   UNL     1      -4.308 -11.173   9.528  0.00  0.00    +0.159 A 
ATOM     22  C   UNL     1      -3.080  -9.166  10.076  0.00  0.00    +0.041 A 
ATOM     23  C   UNL     1      -3.997  -9.839   9.268  0.00  0.00    +0.158 A 
ENDBRANCH  11  12
ENDBRANCH   3  11
TORSDOF 3
ENDMDL
MODEL 8
REMARK VINA RESULT:      -6.8     29.451     33.608
REMARK  Name = 51137113
REMARK  3 active torsions:
REMARK  status: ('A' for Active; 'I' for Inactive)
REMARK    1  A    between atoms: N_3  and  C_11
REMARK    2  A    between atoms: C_6  and  C_10
REMARK    3  A    between atoms: C_11  and  C_12
REMARK                            x       y       z     vdW  Elec       q    Type
REMARK                         _______ _______ _______ _____ _____    ______ ____
ROOT
ATOM      3  N   UNL     1     -15.017   5.884  22.067  0.00  0.00    -0.297 NA
ATOM      6  C   UNL     1     -15.746   3.941  23.159  0.00  0.00    +0.070 C 
ATOM      7  C   UNL     1     -16.952   4.665  22.537  0.00  0.00    +0.028 C 
ATOM      8  C   UNL     1     -14.621   4.984  23.152  0.00  0.00    +0.096 C 
ATOM      9  C   UNL     1     -16.457   6.075  22.242  0.00  0.00    +0.085 C 
ENDROOT
BRANCH   6  10
ATOM      4  N   UNL     1     -15.829   4.097  25.663  0.00  0.00    -0.342 N 
ATOM      5  N   UNL     1     -16.380   2.125  24.798  0.00  0.00    -0.232 NA
ATOM     10  C   UNL     1     -15.995   3.352  24.528  0.00  0.00    +0.113 A 
ATOM     13  C   UNL     1     -16.128   3.298  26.736  0.00  0.00    +0.066 A 
ATOM     14  C   UNL     1     -16.468   2.072  26.170  0.00  0.00    +0.089 A 
ATOM     17  C   UNL     1     -16.128   3.534  28.111  0.00  0.00    +0.028 A 
ATOM     18  C   UNL     1     -16.833   1.007  27.012  0.00  0.00    +0.030 A 
ATOM     19  C   UNL     1     -16.494   2.463  28.933  0.00  0.00    +0.002 A 
ATOM     20  C   UNL     1     -16.841   1.222  28.396  0.00  0.00    +0.002 A 
ATOM     24  H   UNL     1     -15.539   5.065  25.706  0.00  0.00    +0.167 HD
ENDBRANCH   6  10
BRANCH   3  11
ATOM     11  C   UNL     1     -14.284   7.141  22.092  0.00  0.00    +0.119 C 
BRANCH  11  12
ATOM      1  F   UNL     1     -13.881   8.377  17.387  0.00  0.00    -0.202 F 
ATOM      2  F   UNL     1     -11.196   7.861  17.434  0.00  0.00    -0.202 F 
ATOM     12  C   UNL     1     -13.458   7.333  20.847  0.00  0.00    -0.030 A 
ATOM     15  C   UNL     1     -14.064   7.775  19.670  0.00  0.00    +0.046 A 
ATOM     16  C   UNL     1     -12.089   7.070  20.870  0.00  0.00    +0.008 A 
ATOM     21  C   UNL     1     -13.300   7.952  18.517  0.00  0.00    +0.159 A 
ATOM     22  C   UNL     1     -11.324   7.249  19.718  0.00  0.00    +0.041 A 
ATOM     23  C   UNL     1     -11.930   7.690  18.540  0.00  0.00    +0.158 A 
ENDBRANCH  11  12
ENDBRANCH   3  11
TORSDOF 3
ENDMDL
MODEL 9
REMARK VINA RESULT:      -6.8     24.780     27.926
REMARK  Name = 51137113
REMARK  3 active torsions:
REMARK  status: ('A' for Active; 'I' for Inactive)
REMARK    1  A    between atoms: N_3  and  C_11
REMARK    2  A    between atoms: C_6  and  C_10
REMARK    3  A    between atoms: C_11  and  C_12
REMARK                            x       y       z     vdW  Elec       q    Type
REMARK                         _______ _______ _______ _____ _____    ______ ____
ROOT
ATOM      3  N   UNL     1      -4.717 -11.718  17.324  0.00  0.00    -0.297 NA
ATOM      6  C   UNL     1      -6.351 -10.552  18.537  0.00  0.00    +0.070 C 
ATOM      7  C   UNL     1      -5.564 -11.471  19.486  0.00  0.00    +0.028 C 
ATOM      8  C   UNL     1      -6.013 -11.065  17.130  0.00  0.00    +0.096 C 
ATOM      9  C   UNL     1      -4.853 -12.464  18.576  0.00  0.00    +0.085 C 
ENDROOT
BRANCH   6  10
ATOM      4  N   UNL     1      -8.660  -9.695  18.050  0.00  0.00    -0.342 N 
ATOM      5  N   UNL     1      -8.501 -11.149  19.724  0.00  0.00    -0.232 NA
ATOM     10  C   UNL     1      -7.838 -10.490  18.800  0.00  0.00    +0.113 A 
ATOM     13  C   UNL     1      -9.937  -9.851  18.521  0.00  0.00    +0.066 A 
ATOM     14  C   UNL     1      -9.812 -10.763  19.566  0.00  0.00    +0.089 A 
ATOM     17  C   UNL     1     -11.155  -9.289  18.136  0.00  0.00    +0.028 A 
ATOM     18  C   UNL     1     -10.960 -11.149  20.280  0.00  0.00    +0.030 A 
ATOM     19  C   UNL     1     -12.287  -9.684  18.857  0.00  0.00    +0.002 A 
ATOM     20  C   UNL     1     -12.193 -10.597  19.910  0.00  0.00    +0.002 A 
ATOM     24  H   UNL     1      -8.378  -9.097  17.284  0.00  0.00    +0.167 HD
ENDBRANCH   6  10
BRANCH   3  11
ATOM     11  C   UNL     1      -4.353 -12.574  16.205  0.00  0.00    +0.119 C 
BRANCH  11  12
ATOM      1  F   UNL     1      -0.797  -9.461  14.983  0.00  0.00    -0.202 F 
ATOM      2  F   UNL     1      -1.356  -9.794  12.327  0.00  0.00    -0.202 F 
ATOM     12  C   UNL     1      -3.552 -11.831  15.169  0.00  0.00    -0.030 A 
ATOM     15  C   UNL     1      -2.525 -10.973  15.564  0.00  0.00    +0.046 A 
ATOM     16  C   UNL     1      -3.836 -12.001  13.814  0.00  0.00    +0.008 A 
ATOM     21  C   UNL     1      -1.784 -10.285  14.604  0.00  0.00    +0.159 A 
ATOM     22  C   UNL     1      -3.095 -11.313  12.854  0.00  0.00    +0.041 A 
ATOM     23  C   UNL     1      -2.067 -10.455  13.249  0.00  0.00    +0.158 A 
ENDBRANCH  11  12
ENDBRANCH   3  11
TORSDOF 3
ENDMDL
MODEL 10
REMARK VINA RESULT:      -6.8      5.692      6.379
REMARK  Name = 51137113
REMARK  3 active torsions:
REMARK  status: ('A' for Active; 'I' for Inactive)
REMARK    1  A    between atoms: N_3  and  C_11
REMARK    2  A    between atoms: C_6  and  C_10
REMARK    3  A    between atoms: C_11  and  C_12
REMARK                            x       y       z     vdW  Elec       q    Type
REMARK                         _______ _______ _______ _____ _____    ______ ____
ROOT
ATOM      3  N   UNL     1      16.234   8.509   5.293  0.00  0.00    -0.297 NA
ATOM      6  C   UNL     1      14.135   7.464   5.239  0.00  0.00    +0.070 C 
ATOM      7  C   UNL     1      14.176   8.589   4.191  0.00  0.00    +0.028 C 
ATOM      8  C   UNL     1      15.332   7.744   6.157  0.00  0.00    +0.096 C 
ATOM      9  C   UNL     1      15.367   9.452   4.586  0.00  0.00    +0.085 C 
ENDROOT
BRANCH   6  10
ATOM      4  N   UNL     1      12.538   6.238   6.739  0.00  0.00    -0.342 N 
ATOM      5  N   UNL     1      11.861   8.234   6.032  0.00  0.00    -0.232 NA
ATOM     10  C   UNL     1      12.830   7.346   5.993  0.00  0.00    +0.113 A 
ATOM     13  C   UNL     1      11.299   6.423   7.297  0.00  0.00    +0.066 A 
ATOM     14  C   UNL     1      10.898   7.676   6.841  0.00  0.00    +0.089 A 
ATOM     17  C   UNL     1      10.518   5.627   8.135  0.00  0.00    +0.028 A 
ATOM     18  C   UNL     1       9.646   8.179   7.234  0.00  0.00    +0.030 A 
ATOM     19  C   UNL     1       9.276   6.143   8.517  0.00  0.00    +0.002 A 
ATOM     20  C   UNL     1       8.845   7.397   8.076  0.00  0.00    +0.002 A 
ATOM     24  H   UNL     1      13.128   5.425   6.861  0.00  0.00    +0.167 HD
ENDBRANCH   6  10
BRANCH   3  11
ATOM     11  C   UNL     1      17.287   9.177   6.042  0.00  0.00    +0.119 C 
BRANCH  11  12
ATOM      1  F   UNL     1      20.499   7.102   3.008  0.00  0.00    -0.202 F 
ATOM      2  F   UNL     1      22.346   6.919   5.015  0.00  0.00    -0.202 F 
ATOM     12  C   UNL     1      18.639   8.574   5.767  0.00  0.00    -0.030 A 
ATOM     15  C   UNL     1      18.949   8.108   4.489  0.00  0.00    +0.046 A 
ATOM     16  C   UNL     1      19.581   8.480   6.791  0.00  0.00    +0.008 A 
ATOM     21  C   UNL     1      20.201   7.548   4.235  0.00  0.00    +0.159 A 
ATOM     22  C   UNL     1      20.834   7.921   6.537  0.00  0.00    +0.041 A 
ATOM     23  C   UNL     1      21.144   7.455   5.258  0.00  0.00    +0.158 A 
ENDBRANCH  11  12
ENDBRANCH   3  11
TORSDOF 3
ENDMDL
