MODEL 1
REMARK VINA RESULT:      -7.6      0.000      0.000
REMARK  Name = 45783657
REMARK  6 active torsions:
REMARK  status: ('A' for Active; 'I' for Inactive)
REMARK    1  A    between atoms: N_2  and  C_13
REMARK    2  A    between atoms: N_6  and  C_26
REMARK    3  A    between atoms: C_9  and  C_14
REMARK    4  A    between atoms: C_13  and  C_15
REMARK    5  A    between atoms: C_18  and  C_21
REMARK    6  A    between atoms: C_22  and  C_27
REMARK                            x       y       z     vdW  Elec       q    Type
REMARK                         _______ _______ _______ _____ _____    ______ ____
ROOT
ATOM      1  O   UNL     1      14.943   8.972  19.596  0.00  0.00    -0.336 OA
ATOM      3  N   UNL     1      15.839   6.989  19.062  0.00  0.00    -0.190 NA
ATOM      4  N   UNL     1      16.101   8.844  20.375  0.00  0.00    -0.056 NA
ATOM     14  C   UNL     1      14.864   7.836  18.853  0.00  0.00    +0.245 A 
ATOM     18  C   UNL     1      16.572   7.650  20.004  0.00  0.00    +0.204 A 
ENDROOT
BRANCH  18  21
ATOM      5  N   UNL     1      19.474   7.134  22.272  0.00  0.00    -0.237 NA
ATOM     21  C   UNL     1      17.773   7.090  20.555  0.00  0.00    +0.041 A 
ATOM     23  C   UNL     1      18.399   6.004  19.952  0.00  0.00    +0.017 A 
ATOM     24  C   UNL     1      18.345   7.614  21.702  0.00  0.00    +0.124 A 
ATOM     25  C   UNL     1      19.562   5.483  20.508  0.00  0.00    +0.047 A 
ATOM     26  C   UNL     1      20.055   6.079  21.658  0.00  0.00    +0.139 A 
BRANCH  26   6
ATOM      6  N   UNL     1      21.214   5.563  22.217  0.00  0.00    -0.290 N 
ATOM      7  N   UNL     1      22.880   4.152  22.621  0.00  0.00    -0.244 NA
ATOM     28  C   UNL     1      21.993   6.166  23.164  0.00  0.00    +0.114 A 
ATOM     29  C   UNL     1      21.786   4.357  21.923  0.00  0.00    +0.205 A 
ATOM     30  C   UNL     1      23.016   5.277  23.396  0.00  0.00    +0.130 A 
ENDBRANCH  26   6
ENDBRANCH  18  21
BRANCH  14   9
ATOM      2  N   UNL     1      12.545   8.573  18.329  0.00  0.00    -0.287 NA
ATOM      9  C   UNL     1      13.682   7.728  17.913  0.00  0.00    +0.146 C 
ATOM     10  C   UNL     1      14.014   8.196  16.484  0.00  0.00    +0.030 C 
ATOM     11  C   UNL     1      12.975   9.261  16.163  0.00  0.00    +0.017 C 
ATOM     12  C   UNL     1      11.833   8.942  17.106  0.00  0.00    +0.085 C 
BRANCH   2  13
ATOM     13  C   UNL     1      11.671   7.924  19.298  0.00  0.00    +0.120 C 
BRANCH  13  15
ATOM     15  C   UNL     1      11.453   8.779  20.518  0.00  0.00    -0.033 A 
ATOM     16  C   UNL     1      11.869  10.111  20.520  0.00  0.00    +0.006 A 
ATOM     17  C   UNL     1      10.833   8.240  21.645  0.00  0.00    +0.006 A 
ATOM     19  C   UNL     1      11.666  10.903  21.651  0.00  0.00    +0.019 A 
ATOM     20  C   UNL     1      10.631   9.033  22.776  0.00  0.00    +0.019 A 
ATOM     22  C   UNL     1      11.048  10.363  22.778  0.00  0.00    +0.052 A 
BRANCH  22  27
ATOM      8  N   UNL     1      10.671  11.834  24.876  0.00  0.00    -0.191 NA
ATOM     27  C   UNL     1      10.840  11.175  23.936  0.00  0.00    +0.099 C 
ENDBRANCH  22  27
ENDBRANCH  13  15
ENDBRANCH   2  13
ENDBRANCH  14   9
TORSDOF 6
ENDMDL
MODEL 2
REMARK VINA RESULT:      -7.0      3.315     11.576
REMARK  Name = 45783657
REMARK  6 active torsions:
REMARK  status: ('A' for Active; 'I' for Inactive)
REMARK    1  A    between atoms: N_2  and  C_13
REMARK    2  A    between atoms: N_6  and  C_26
REMARK    3  A    between atoms: C_9  and  C_14
REMARK    4  A    between atoms: C_13  and  C_15
REMARK    5  A    between atoms: C_18  and  C_21
REMARK    6  A    between atoms: C_22  and  C_27
REMARK                            x       y       z     vdW  Elec       q    Type
REMARK                         _______ _______ _______ _____ _____    ______ ____
ROOT
ATOM      1  O   UNL     1      21.364   4.687  20.496  0.00  0.00    -0.336 OA
ATOM      3  N   UNL     1      20.392   6.653  20.951  0.00  0.00    -0.190 NA
ATOM      4  N   UNL     1      20.027   4.563  20.095  0.00  0.00    -0.056 NA
ATOM     14  C   UNL     1      21.493   5.946  20.988  0.00  0.00    +0.245 A 
ATOM     18  C   UNL     1      19.520   5.762  20.395  0.00  0.00    +0.204 A 
ENDROOT
BRANCH  18  21
ATOM      5  N   UNL     1      16.225   6.014  18.692  0.00  0.00    -0.237 NA
ATOM     21  C   UNL     1      18.147   6.102  20.154  0.00  0.00    +0.041 A 
ATOM     23  C   UNL     1      17.413   6.823  21.089  0.00  0.00    +0.017 A 
ATOM     24  C   UNL     1      17.513   5.726  18.981  0.00  0.00    +0.124 A 
ATOM     25  C   UNL     1      16.084   7.139  20.827  0.00  0.00    +0.047 A 
ATOM     26  C   UNL     1      15.542   6.716  19.624  0.00  0.00    +0.139 A 
BRANCH  26   6
ATOM      6  N   UNL     1      14.218   7.028  19.357  0.00  0.00    -0.290 N 
ATOM      7  N   UNL     1      12.027   7.230  19.656  0.00  0.00    -0.244 NA
ATOM     28  C   UNL     1      13.734   7.587  18.208  0.00  0.00    +0.114 A 
ATOM     29  C   UNL     1      13.157   6.832  20.197  0.00  0.00    +0.205 A 
ATOM     30  C   UNL     1      12.380   7.702  18.416  0.00  0.00    +0.130 A 
ENDBRANCH  26   6
ENDBRANCH  18  21
BRANCH  14   9
ATOM      2  N   UNL     1      23.798   5.190  21.543  0.00  0.00    -0.287 NA
ATOM      9  C   UNL     1      22.867   6.334  21.495  0.00  0.00    +0.146 C 
ATOM     10  C   UNL     1      23.564   7.367  20.590  0.00  0.00    +0.030 C 
ATOM     11  C   UNL     1      24.903   6.741  20.230  0.00  0.00    +0.017 C 
ATOM     12  C   UNL     1      25.140   5.738  21.341  0.00  0.00    +0.085 C 
BRANCH   2  13
ATOM     13  C   UNL     1      23.700   4.421  22.777  0.00  0.00    +0.120 C 
BRANCH  13  15
ATOM     15  C   UNL     1      24.335   3.062  22.644  0.00  0.00    -0.033 A 
ATOM     16  C   UNL     1      25.350   2.677  23.520  0.00  0.00    +0.006 A 
ATOM     17  C   UNL     1      23.906   2.187  21.646  0.00  0.00    +0.006 A 
ATOM     19  C   UNL     1      25.937   1.417  23.396  0.00  0.00    +0.019 A 
ATOM     20  C   UNL     1      24.494   0.928  21.522  0.00  0.00    +0.019 A 
ATOM     22  C   UNL     1      25.509   0.544  22.397  0.00  0.00    +0.052 A 
BRANCH  22  27
ATOM      8  N   UNL     1      26.599  -1.794  22.169  0.00  0.00    -0.191 NA
ATOM     27  C   UNL     1      26.111  -0.747  22.271  0.00  0.00    +0.099 C 
ENDBRANCH  22  27
ENDBRANCH  13  15
ENDBRANCH   2  13
ENDBRANCH  14   9
TORSDOF 6
ENDMDL
MODEL 3
REMARK VINA RESULT:      -6.7     26.929     31.377
REMARK  Name = 45783657
REMARK  6 active torsions:
REMARK  status: ('A' for Active; 'I' for Inactive)
REMARK    1  A    between atoms: N_2  and  C_13
REMARK    2  A    between atoms: N_6  and  C_26
REMARK    3  A    between atoms: C_9  and  C_14
REMARK    4  A    between atoms: C_13  and  C_15
REMARK    5  A    between atoms: C_18  and  C_21
REMARK    6  A    between atoms: C_22  and  C_27
REMARK                            x       y       z     vdW  Elec       q    Type
REMARK                         _______ _______ _______ _____ _____    ______ ____
ROOT
ATOM      1  O   UNL     1     -15.060   3.957  24.219  0.00  0.00    -0.336 OA
ATOM      3  N   UNL     1     -15.679   4.716  22.204  0.00  0.00    -0.190 NA
ATOM      4  N   UNL     1     -13.985   4.718  23.742  0.00  0.00    -0.056 NA
ATOM     14  C   UNL     1     -16.014   4.008  23.252  0.00  0.00    +0.245 A 
ATOM     18  C   UNL     1     -14.426   5.131  22.550  0.00  0.00    +0.204 A 
ENDROOT
BRANCH  18  21
ATOM      5  N   UNL     1     -13.555   7.697  20.003  0.00  0.00    -0.237 NA
ATOM     21  C   UNL     1     -13.639   5.958  21.681  0.00  0.00    +0.041 A 
ATOM     23  C   UNL     1     -12.253   5.849  21.648  0.00  0.00    +0.017 A 
ATOM     24  C   UNL     1     -14.237   6.889  20.846  0.00  0.00    +0.124 A 
ATOM     25  C   UNL     1     -11.517   6.663  20.794  0.00  0.00    +0.047 A 
ATOM     26  C   UNL     1     -12.210   7.563  19.999  0.00  0.00    +0.139 A 
BRANCH  26   6
ATOM      6  N   UNL     1     -11.482   8.377  19.146  0.00  0.00    -0.290 N 
ATOM      7  N   UNL     1     -10.258  10.094  18.448  0.00  0.00    -0.244 NA
ATOM     28  C   UNL     1     -11.244   8.152  17.819  0.00  0.00    +0.114 A 
ATOM     29  C   UNL     1     -10.870   9.554  19.478  0.00  0.00    +0.205 A 
ATOM     30  C   UNL     1     -10.486   9.225  17.411  0.00  0.00    +0.130 A 
ENDBRANCH  26   6
ENDBRANCH  18  21
BRANCH  14   9
ATOM      2  N   UNL     1     -17.538   3.055  24.974  0.00  0.00    -0.287 NA
ATOM      9  C   UNL     1     -17.297   3.253  23.531  0.00  0.00    +0.146 C 
ATOM     10  C   UNL     1     -18.547   3.996  23.025  0.00  0.00    +0.030 C 
ATOM     11  C   UNL     1     -19.457   4.117  24.239  0.00  0.00    +0.017 C 
ATOM     12  C   UNL     1     -18.989   2.999  25.148  0.00  0.00    +0.085 C 
BRANCH   2  13
ATOM     13  C   UNL     1     -16.875   1.874  25.511  0.00  0.00    +0.120 C 
BRANCH  13  15
ATOM     15  C   UNL     1     -16.515   2.043  26.963  0.00  0.00    -0.033 A 
ATOM     16  C   UNL     1     -16.136   3.295  27.446  0.00  0.00    +0.006 A 
ATOM     17  C   UNL     1     -16.563   0.948  27.826  0.00  0.00    +0.006 A 
ATOM     19  C   UNL     1     -15.803   3.452  28.792  0.00  0.00    +0.019 A 
ATOM     20  C   UNL     1     -16.229   1.105  29.172  0.00  0.00    +0.019 A 
ATOM     22  C   UNL     1     -15.849   2.356  29.654  0.00  0.00    +0.052 A 
BRANCH  22  27
ATOM      8  N   UNL     1     -15.232   2.648  32.152  0.00  0.00    -0.191 NA
ATOM     27  C   UNL     1     -15.508   2.517  31.033  0.00  0.00    +0.099 C 
ENDBRANCH  22  27
ENDBRANCH  13  15
ENDBRANCH   2  13
ENDBRANCH  14   9
TORSDOF 6
ENDMDL
MODEL 4
REMARK VINA RESULT:      -6.6      3.950      8.146
REMARK  Name = 45783657
REMARK  6 active torsions:
REMARK  status: ('A' for Active; 'I' for Inactive)
REMARK    1  A    between atoms: N_2  and  C_13
REMARK    2  A    between atoms: N_6  and  C_26
REMARK    3  A    between atoms: C_9  and  C_14
REMARK    4  A    between atoms: C_13  and  C_15
REMARK    5  A    between atoms: C_18  and  C_21
REMARK    6  A    between atoms: C_22  and  C_27
REMARK                            x       y       z     vdW  Elec       q    Type
REMARK                         _______ _______ _______ _____ _____    ______ ____
ROOT
ATOM      1  O   UNL     1      12.851  10.506  19.248  0.00  0.00    -0.336 OA
ATOM      3  N   UNL     1      13.656   9.218  17.601  0.00  0.00    -0.190 NA
ATOM      4  N   UNL     1      13.539  11.366  18.381  0.00  0.00    -0.056 NA
ATOM     14  C   UNL     1      12.970   9.262  18.715  0.00  0.00    +0.245 A 
ATOM     18  C   UNL     1      13.985  10.533  17.437  0.00  0.00    +0.204 A 
ENDROOT
BRANCH  18  21
ATOM      5  N   UNL     1      15.308  10.779  13.970  0.00  0.00    -0.237 NA
ATOM     21  C   UNL     1      14.761  10.981  16.317  0.00  0.00    +0.041 A 
ATOM     23  C   UNL     1      15.692  12.005  16.453  0.00  0.00    +0.017 A 
ATOM     24  C   UNL     1      14.609  10.405  15.066  0.00  0.00    +0.124 A 
ATOM     25  C   UNL     1      16.431  12.417  15.350  0.00  0.00    +0.047 A 
ATOM     26  C   UNL     1      16.204  11.777  14.141  0.00  0.00    +0.139 A 
BRANCH  26   6
ATOM      6  N   UNL     1      16.937  12.184  13.038  0.00  0.00    -0.290 N 
ATOM      7  N   UNL     1      17.447  12.605  10.918  0.00  0.00    -0.244 NA
ATOM     28  C   UNL     1      18.207  12.689  13.052  0.00  0.00    +0.114 A 
ATOM     29  C   UNL     1      16.523  12.152  11.735  0.00  0.00    +0.205 A 
ATOM     30  C   UNL     1      18.499  12.942  11.732  0.00  0.00    +0.130 A 
ENDBRANCH  26   6
ENDBRANCH  18  21
BRANCH  14   9
ATOM      2  N   UNL     1      13.074   7.716  20.663  0.00  0.00    -0.287 NA
ATOM      9  C   UNL     1      12.302   8.136  19.476  0.00  0.00    +0.146 C 
ATOM     10  C   UNL     1      10.920   8.530  20.029  0.00  0.00    +0.030 C 
ATOM     11  C   UNL     1      10.991   8.240  21.521  0.00  0.00    +0.017 C 
ATOM     12  C   UNL     1      12.101   7.215  21.634  0.00  0.00    +0.085 C 
BRANCH   2  13
ATOM     13  C   UNL     1      14.103   6.730  20.359  0.00  0.00    +0.120 C 
BRANCH  13  15
ATOM     15  C   UNL     1      15.483   7.247  20.665  0.00  0.00    -0.033 A 
ATOM     16  C   UNL     1      16.602   6.466  20.370  0.00  0.00    +0.006 A 
ATOM     17  C   UNL     1      15.644   8.507  21.241  0.00  0.00    +0.006 A 
ATOM     19  C   UNL     1      17.881   6.946  20.653  0.00  0.00    +0.019 A 
ATOM     20  C   UNL     1      16.924   8.986  21.524  0.00  0.00    +0.019 A 
ATOM     22  C   UNL     1      18.041   8.206  21.230  0.00  0.00    +0.052 A 
BRANCH  22  27
ATOM      8  N   UNL     1      20.416   9.096  21.754  0.00  0.00    -0.191 NA
ATOM     27  C   UNL     1      19.352   8.698  21.519  0.00  0.00    +0.099 C 
ENDBRANCH  22  27
ENDBRANCH  13  15
ENDBRANCH   2  13
ENDBRANCH  14   9
TORSDOF 6
ENDMDL
MODEL 5
REMARK VINA RESULT:      -6.6     27.747     29.726
REMARK  Name = 45783657
REMARK  6 active torsions:
REMARK  status: ('A' for Active; 'I' for Inactive)
REMARK    1  A    between atoms: N_2  and  C_13
REMARK    2  A    between atoms: N_6  and  C_26
REMARK    3  A    between atoms: C_9  and  C_14
REMARK    4  A    between atoms: C_13  and  C_15
REMARK    5  A    between atoms: C_18  and  C_21
REMARK    6  A    between atoms: C_22  and  C_27
REMARK                            x       y       z     vdW  Elec       q    Type
REMARK                         _______ _______ _______ _____ _____    ______ ____
ROOT
ATOM      1  O   UNL     1      -8.436  -9.375  10.759  0.00  0.00    -0.336 OA
ATOM      3  N   UNL     1      -6.381  -9.289  11.648  0.00  0.00    -0.190 NA
ATOM      4  N   UNL     1      -8.581  -9.714  12.111  0.00  0.00    -0.056 NA
ATOM     14  C   UNL     1      -7.111  -9.141  10.571  0.00  0.00    +0.245 A 
ATOM     18  C   UNL     1      -7.327  -9.641  12.566  0.00  0.00    +0.204 A 
ENDROOT
BRANCH  18  21
ATOM      5  N   UNL     1      -7.712 -10.276  16.210  0.00  0.00    -0.237 NA
ATOM     21  C   UNL     1      -6.986  -9.915  13.932  0.00  0.00    +0.041 A 
ATOM     23  C   UNL     1      -5.661 -10.079  14.321  0.00  0.00    +0.017 A 
ATOM     24  C   UNL     1      -7.965 -10.021  14.906  0.00  0.00    +0.124 A 
ATOM     25  C   UNL     1      -5.360 -10.341  15.653  0.00  0.00    +0.047 A 
ATOM     26  C   UNL     1      -6.412 -10.429  16.551  0.00  0.00    +0.139 A 
BRANCH  26   6
ATOM      6  N   UNL     1      -6.118 -10.691  17.879  0.00  0.00    -0.290 N 
ATOM      7  N   UNL     1      -6.351 -10.767  20.086  0.00  0.00    -0.244 NA
ATOM     28  C   UNL     1      -4.987 -11.294  18.354  0.00  0.00    +0.114 A 
ATOM     29  C   UNL     1      -6.907 -10.393  18.956  0.00  0.00    +0.205 A 
ATOM     30  C   UNL     1      -5.155 -11.330  19.719  0.00  0.00    +0.130 A 
ENDBRANCH  26   6
ENDBRANCH  18  21
BRANCH  14   9
ATOM      2  N   UNL     1      -5.605  -9.606   8.645  0.00  0.00    -0.287 NA
ATOM      9  C   UNL     1      -6.687  -8.751   9.170  0.00  0.00    +0.146 C 
ATOM     10  C   UNL     1      -7.827  -8.889   8.144  0.00  0.00    +0.030 C 
ATOM     11  C   UNL     1      -7.271  -9.789   7.051  0.00  0.00    +0.017 C 
ATOM     12  C   UNL     1      -5.770  -9.638   7.191  0.00  0.00    +0.085 C 
BRANCH   2  13
ATOM     13  C   UNL     1      -4.275  -9.155   9.036  0.00  0.00    +0.120 C 
BRANCH  13  15
ATOM     15  C   UNL     1      -3.654 -10.064  10.063  0.00  0.00    -0.033 A 
ATOM     16  C   UNL     1      -2.703  -9.563  10.952  0.00  0.00    +0.006 A 
ATOM     17  C   UNL     1      -4.030 -11.405  10.126  0.00  0.00    +0.006 A 
ATOM     19  C   UNL     1      -2.128 -10.405  11.905  0.00  0.00    +0.019 A 
ATOM     20  C   UNL     1      -3.455 -12.247  11.079  0.00  0.00    +0.019 A 
ATOM     22  C   UNL     1      -2.504 -11.747  11.967  0.00  0.00    +0.052 A 
BRANCH  22  27
ATOM      8  N   UNL     1      -1.436 -13.309  13.735  0.00  0.00    -0.191 NA
ATOM     27  C   UNL     1      -1.915 -12.609  12.943  0.00  0.00    +0.099 C 
ENDBRANCH  22  27
ENDBRANCH  13  15
ENDBRANCH   2  13
ENDBRANCH  14   9
TORSDOF 6
ENDMDL
MODEL 6
REMARK VINA RESULT:      -6.6     27.261     30.169
REMARK  Name = 45783657
REMARK  6 active torsions:
REMARK  status: ('A' for Active; 'I' for Inactive)
REMARK    1  A    between atoms: N_2  and  C_13
REMARK    2  A    between atoms: N_6  and  C_26
REMARK    3  A    between atoms: C_9  and  C_14
REMARK    4  A    between atoms: C_13  and  C_15
REMARK    5  A    between atoms: C_18  and  C_21
REMARK    6  A    between atoms: C_22  and  C_27
REMARK                            x       y       z     vdW  Elec       q    Type
REMARK                         _______ _______ _______ _____ _____    ______ ____
ROOT
ATOM      1  O   UNL     1      -6.631 -11.197  20.091  0.00  0.00    -0.336 OA
ATOM      3  N   UNL     1      -7.274 -11.761  18.020  0.00  0.00    -0.190 NA
ATOM      4  N   UNL     1      -5.577 -10.834  19.242  0.00  0.00    -0.056 NA
ATOM     14  C   UNL     1      -7.589 -11.735  19.291  0.00  0.00    +0.245 A 
ATOM     18  C   UNL     1      -6.031 -11.199  18.040  0.00  0.00    +0.204 A 
ENDROOT
BRANCH  18  21
ATOM      5  N   UNL     1      -5.231 -10.776  14.433  0.00  0.00    -0.237 NA
ATOM     21  C   UNL     1      -5.269 -11.015  16.839  0.00  0.00    +0.041 A 
ATOM     23  C   UNL     1      -3.883 -10.904  16.879  0.00  0.00    +0.017 A 
ATOM     24  C   UNL     1      -5.889 -10.946  15.602  0.00  0.00    +0.124 A 
ATOM     25  C   UNL     1      -3.171 -10.728  15.698  0.00  0.00    +0.047 A 
ATOM     26  C   UNL     1      -3.885 -10.672  14.512  0.00  0.00    +0.139 A 
BRANCH  26   6
ATOM      6  N   UNL     1      -3.180 -10.496  13.331  0.00  0.00    -0.290 N 
ATOM      7  N   UNL     1      -1.463 -10.164  11.963  0.00  0.00    -0.244 NA
ATOM     28  C   UNL     1      -3.704 -10.490  12.069  0.00  0.00    +0.114 A 
ATOM     29  C   UNL     1      -1.832 -10.297  13.217  0.00  0.00    +0.205 A 
ATOM     30  C   UNL     1      -2.625 -10.284  11.242  0.00  0.00    +0.130 A 
ENDBRANCH  26   6
ENDBRANCH  18  21
BRANCH  14   9
ATOM      2  N   UNL     1     -10.077 -11.756  19.294  0.00  0.00    -0.287 NA
ATOM      9  C   UNL     1      -8.851 -12.213  19.978  0.00  0.00    +0.146 C 
ATOM     10  C   UNL     1      -8.968 -13.748  20.007  0.00  0.00    +0.030 C 
ATOM     11  C   UNL     1     -10.317 -14.056  19.374  0.00  0.00    +0.017 C 
ATOM     12  C   UNL     1     -11.099 -12.770  19.555  0.00  0.00    +0.085 C 
BRANCH   2  13
ATOM     13  C   UNL     1     -10.506 -10.426  19.710  0.00  0.00    +0.120 C 
BRANCH  13  15
ATOM     15  C   UNL     1     -10.823  -9.545  18.531  0.00  0.00    -0.033 A 
ATOM     16  C   UNL     1      -9.797  -8.877  17.863  0.00  0.00    +0.006 A 
ATOM     17  C   UNL     1     -12.143  -9.399  18.105  0.00  0.00    +0.006 A 
ATOM     19  C   UNL     1     -10.091  -8.061  16.770  0.00  0.00    +0.019 A 
ATOM     20  C   UNL     1     -12.438  -8.582  17.013  0.00  0.00    +0.019 A 
ATOM     22  C   UNL     1     -11.412  -7.914  16.346  0.00  0.00    +0.052 A 
BRANCH  22  27
ATOM      8  N   UNL     1     -11.957  -6.400  14.317  0.00  0.00    -0.191 NA
ATOM     27  C   UNL     1     -11.713  -7.078  15.226  0.00  0.00    +0.099 C 
ENDBRANCH  22  27
ENDBRANCH  13  15
ENDBRANCH   2  13
ENDBRANCH  14   9
TORSDOF 6
ENDMDL
MODEL 7
REMARK VINA RESULT:      -6.5     26.391     30.186
REMARK  Name = 45783657
REMARK  6 active torsions:
REMARK  status: ('A' for Active; 'I' for Inactive)
REMARK    1  A    between atoms: N_2  and  C_13
REMARK    2  A    between atoms: N_6  and  C_26
REMARK    3  A    between atoms: C_9  and  C_14
REMARK    4  A    between atoms: C_13  and  C_15
REMARK    5  A    between atoms: C_18  and  C_21
REMARK    6  A    between atoms: C_22  and  C_27
REMARK                            x       y       z     vdW  Elec       q    Type
REMARK                         _______ _______ _______ _____ _____    ______ ____
ROOT
ATOM      1  O   UNL     1      -4.855 -11.745  16.954  0.00  0.00    -0.336 OA
ATOM      3  N   UNL     1      -5.383 -10.170  15.450  0.00  0.00    -0.190 NA
ATOM      4  N   UNL     1      -6.159 -11.335  17.260  0.00  0.00    -0.056 NA
ATOM     14  C   UNL     1      -4.474 -11.010  15.877  0.00  0.00    +0.245 A 
ATOM     18  C   UNL     1      -6.399 -10.406  16.331  0.00  0.00    +0.204 A 
ENDROOT
BRANCH  18  21
ATOM      5  N   UNL     1      -9.513  -8.944  14.919  0.00  0.00    -0.237 NA
ATOM     21  C   UNL     1      -7.642  -9.694  16.254  0.00  0.00    +0.041 A 
ATOM     23  C   UNL     1      -8.184  -9.075  17.374  0.00  0.00    +0.017 A 
ATOM     24  C   UNL     1      -8.339  -9.600  15.060  0.00  0.00    +0.124 A 
ATOM     25  C   UNL     1      -9.390  -8.390  17.269  0.00  0.00    +0.047 A 
ATOM     26  C   UNL     1     -10.009  -8.355  16.030  0.00  0.00    +0.139 A 
BRANCH  26   6
ATOM      6  N   UNL     1     -11.212  -7.675  15.919  0.00  0.00    -0.290 N 
ATOM      7  N   UNL     1     -13.395  -7.280  16.007  0.00  0.00    -0.244 NA
ATOM     28  C   UNL     1     -11.377  -6.388  15.489  0.00  0.00    +0.114 A 
ATOM     29  C   UNL     1     -12.451  -8.169  16.219  0.00  0.00    +0.205 A 
ATOM     30  C   UNL     1     -12.733  -6.167  15.553  0.00  0.00    +0.130 A 
ENDBRANCH  26   6
ENDBRANCH  18  21
BRANCH  14   9
ATOM      2  N   UNL     1      -2.835 -10.604  14.048  0.00  0.00    -0.287 NA
ATOM      9  C   UNL     1      -3.081 -11.270  15.343  0.00  0.00    +0.146 C 
ATOM     10  C   UNL     1      -1.977 -10.732  16.272  0.00  0.00    +0.030 C 
ATOM     11  C   UNL     1      -1.127  -9.822  15.397  0.00  0.00    +0.017 C 
ATOM     12  C   UNL     1      -1.402 -10.319  13.992  0.00  0.00    +0.085 C 
BRANCH   2  13
ATOM     13  C   UNL     1      -3.283 -11.389  12.904  0.00  0.00    +0.120 C 
BRANCH  13  15
ATOM     15  C   UNL     1      -4.145 -10.582  11.971  0.00  0.00    -0.033 A 
ATOM     16  C   UNL     1      -5.534 -10.619  12.096  0.00  0.00    +0.006 A 
ATOM     17  C   UNL     1      -3.555  -9.794  10.982  0.00  0.00    +0.006 A 
ATOM     19  C   UNL     1      -6.332  -9.869  11.232  0.00  0.00    +0.019 A 
ATOM     20  C   UNL     1      -4.354  -9.045  10.117  0.00  0.00    +0.019 A 
ATOM     22  C   UNL     1      -5.742  -9.084  10.242  0.00  0.00    +0.052 A 
BRANCH  22  27
ATOM      8  N   UNL     1      -7.224  -7.693   8.639  0.00  0.00    -0.191 NA
ATOM     27  C   UNL     1      -6.560  -8.316   9.357  0.00  0.00    +0.099 C 
ENDBRANCH  22  27
ENDBRANCH  13  15
ENDBRANCH   2  13
ENDBRANCH  14   9
TORSDOF 6
ENDMDL
MODEL 8
REMARK VINA RESULT:      -6.5     26.632     30.191
REMARK  Name = 45783657
REMARK  6 active torsions:
REMARK  status: ('A' for Active; 'I' for Inactive)
REMARK    1  A    between atoms: N_2  and  C_13
REMARK    2  A    between atoms: N_6  and  C_26
REMARK    3  A    between atoms: C_9  and  C_14
REMARK    4  A    between atoms: C_13  and  C_15
REMARK    5  A    between atoms: C_18  and  C_21
REMARK    6  A    between atoms: C_22  and  C_27
REMARK                            x       y       z     vdW  Elec       q    Type
REMARK                         _______ _______ _______ _____ _____    ______ ____
ROOT
ATOM      1  O   UNL     1      -3.512 -11.414  17.950  0.00  0.00    -0.336 OA
ATOM      3  N   UNL     1      -5.151 -10.942  16.497  0.00  0.00    -0.190 NA
ATOM      4  N   UNL     1      -4.678 -11.262  18.712  0.00  0.00    -0.056 NA
ATOM     14  C   UNL     1      -3.880 -11.209  16.658  0.00  0.00    +0.245 A 
ATOM     18  C   UNL     1      -5.599 -10.985  17.785  0.00  0.00    +0.204 A 
ENDROOT
BRANCH  18  21
ATOM      5  N   UNL     1      -8.792 -10.968  19.692  0.00  0.00    -0.237 NA
ATOM     21  C   UNL     1      -6.976 -10.746  18.112  0.00  0.00    +0.041 A 
ATOM     23  C   UNL     1      -7.820 -10.092  17.222  0.00  0.00    +0.017 A 
ATOM     24  C   UNL     1      -7.505 -11.161  19.323  0.00  0.00    +0.124 A 
ATOM     25  C   UNL     1      -9.150  -9.875  17.565  0.00  0.00    +0.047 A 
ATOM     26  C   UNL     1      -9.583 -10.329  18.801  0.00  0.00    +0.139 A 
BRANCH  26   6
ATOM      6  N   UNL     1     -10.907 -10.116  19.149  0.00  0.00    -0.290 N 
ATOM      7  N   UNL     1     -12.755 -10.075  20.381  0.00  0.00    -0.244 NA
ATOM     28  C   UNL     1     -11.882  -9.597  18.344  0.00  0.00    +0.114 A 
ATOM     29  C   UNL     1     -11.479 -10.387  20.361  0.00  0.00    +0.205 A 
ATOM     30  C   UNL     1     -13.013  -9.581  19.127  0.00  0.00    +0.130 A 
ENDBRANCH  26   6
ENDBRANCH  18  21
BRANCH  14   9
ATOM      2  N   UNL     1      -3.131 -10.650  14.352  0.00  0.00    -0.287 NA
ATOM      9  C   UNL     1      -2.782 -11.319  15.620  0.00  0.00    +0.146 C 
ATOM     10  C   UNL     1      -1.470 -10.649  16.068  0.00  0.00    +0.030 C 
ATOM     11  C   UNL     1      -1.129  -9.663  14.960  0.00  0.00    +0.017 C 
ATOM     12  C   UNL     1      -1.870 -10.208  13.756  0.00  0.00    +0.085 C 
BRANCH   2  13
ATOM     13  C   UNL     1      -3.898 -11.496  13.446  0.00  0.00    +0.120 C 
BRANCH  13  15
ATOM     15  C   UNL     1      -4.633 -10.689  12.410  0.00  0.00    -0.033 A 
ATOM     16  C   UNL     1      -5.648  -9.813  12.798  0.00  0.00    +0.006 A 
ATOM     17  C   UNL     1      -4.298 -10.814  11.062  0.00  0.00    +0.006 A 
ATOM     19  C   UNL     1      -6.328  -9.065  11.838  0.00  0.00    +0.019 A 
ATOM     20  C   UNL     1      -4.980 -10.066  10.101  0.00  0.00    +0.019 A 
ATOM     22  C   UNL     1      -5.994  -9.192  10.490  0.00  0.00    +0.052 A 
BRANCH  22  27
ATOM      8  N   UNL     1      -7.258  -7.802   8.707  0.00  0.00    -0.191 NA
ATOM     27  C   UNL     1      -6.692  -8.425   9.506  0.00  0.00    +0.099 C 
ENDBRANCH  22  27
ENDBRANCH  13  15
ENDBRANCH   2  13
ENDBRANCH  14   9
TORSDOF 6
ENDMDL
MODEL 9
REMARK VINA RESULT:      -6.5     15.486     19.938
REMARK  Name = 45783657
REMARK  6 active torsions:
REMARK  status: ('A' for Active; 'I' for Inactive)
REMARK    1  A    between atoms: N_2  and  C_13
REMARK    2  A    between atoms: N_6  and  C_26
REMARK    3  A    between atoms: C_9  and  C_14
REMARK    4  A    between atoms: C_13  and  C_15
REMARK    5  A    between atoms: C_18  and  C_21
REMARK    6  A    between atoms: C_22  and  C_27
REMARK                            x       y       z     vdW  Elec       q    Type
REMARK                         _______ _______ _______ _____ _____    ______ ____
ROOT
ATOM      1  O   UNL     1      10.076   4.543   5.644  0.00  0.00    -0.336 OA
ATOM      3  N   UNL     1      11.001   5.947   4.162  0.00  0.00    -0.190 NA
ATOM      4  N   UNL     1      10.239   3.810   4.461  0.00  0.00    -0.056 NA
ATOM     14  C   UNL     1      10.549   5.790   5.381  0.00  0.00    +0.245 A 
ATOM     18  C   UNL     1      10.789   4.706   3.636  0.00  0.00    +0.204 A 
ENDROOT
BRANCH  18  21
ATOM      5  N   UNL     1      10.500   4.308  -0.050  0.00  0.00    -0.237 NA
ATOM     21  C   UNL     1      11.139   4.393   2.280  0.00  0.00    +0.041 A 
ATOM     23  C   UNL     1      12.395   3.888   1.962  0.00  0.00    +0.017 A 
ATOM     24  C   UNL     1      10.235   4.583   1.247  0.00  0.00    +0.124 A 
ATOM     25  C   UNL     1      12.705   3.593   0.639  0.00  0.00    +0.047 A 
ATOM     26  C   UNL     1      11.731   3.819  -0.321  0.00  0.00    +0.139 A 
BRANCH  26   6
ATOM      6  N   UNL     1      12.034   3.527  -1.642  0.00  0.00    -0.290 N 
ATOM      7  N   UNL     1      12.466   2.331  -3.462  0.00  0.00    -0.244 NA
ATOM     28  C   UNL     1      12.249   4.433  -2.642  0.00  0.00    +0.114 A 
ATOM     29  C   UNL     1      12.175   2.279  -2.182  0.00  0.00    +0.205 A 
ATOM     30  C   UNL     1      12.512   3.671  -3.756  0.00  0.00    +0.130 A 
ENDBRANCH  26   6
ENDBRANCH  18  21
BRANCH  14   9
ATOM      2  N   UNL     1       9.374   7.750   6.367  0.00  0.00    -0.287 NA
ATOM      9  C   UNL     1      10.484   6.789   6.517  0.00  0.00    +0.146 C 
ATOM     10  C   UNL     1      10.239   6.121   7.883  0.00  0.00    +0.030 C 
ATOM     11  C   UNL     1       9.008   6.813   8.449  0.00  0.00    +0.017 C 
ATOM     12  C   UNL     1       8.976   8.140   7.719  0.00  0.00    +0.085 C 
BRANCH   2  13
ATOM     13  C   UNL     1       9.718   8.902   5.542  0.00  0.00    +0.120 C 
BRANCH  13  15
ATOM     15  C   UNL     1       8.749   9.089   4.406  0.00  0.00    -0.033 A 
ATOM     16  C   UNL     1       9.076   8.635   3.128  0.00  0.00    +0.006 A 
ATOM     17  C   UNL     1       7.523   9.715   4.631  0.00  0.00    +0.006 A 
ATOM     19  C   UNL     1       8.177   8.808   2.075  0.00  0.00    +0.019 A 
ATOM     20  C   UNL     1       6.624   9.889   3.578  0.00  0.00    +0.019 A 
ATOM     22  C   UNL     1       6.952   9.436   2.301  0.00  0.00    +0.052 A 
BRANCH  22  27
ATOM      8  N   UNL     1       5.284   9.757   0.347  0.00  0.00    -0.191 NA
ATOM     27  C   UNL     1       6.031   9.613   1.222  0.00  0.00    +0.099 C 
ENDBRANCH  22  27
ENDBRANCH  13  15
ENDBRANCH   2  13
ENDBRANCH  14   9
TORSDOF 6
ENDMDL
MODEL 10
REMARK VINA RESULT:      -6.4      3.054     10.544
REMARK  Name = 45783657
REMARK  6 active torsions:
REMARK  status: ('A' for Active; 'I' for Inactive)
REMARK    1  A    between atoms: N_2  and  C_13
REMARK    2  A    between atoms: N_6  and  C_26
REMARK    3  A    between atoms: C_9  and  C_14
REMARK    4  A    between atoms: C_13  and  C_15
REMARK    5  A    between atoms: C_18  and  C_21
REMARK    6  A    between atoms: C_22  and  C_27
REMARK                            x       y       z     vdW  Elec       q    Type
REMARK                         _______ _______ _______ _____ _____    ______ ____
ROOT
ATOM      1  O   UNL     1      21.522   5.111  20.591  0.00  0.00    -0.336 OA
ATOM      3  N   UNL     1      20.408   7.009  21.007  0.00  0.00    -0.190 NA
ATOM      4  N   UNL     1      20.178   4.848  20.292  0.00  0.00    -0.056 NA
ATOM     14  C   UNL     1      21.568   6.404  21.005  0.00  0.00    +0.245 A 
ATOM     18  C   UNL     1      19.586   6.014  20.563  0.00  0.00    +0.204 A 
ENDROOT
BRANCH  18  21
ATOM      5  N   UNL     1      16.053   6.837  21.381  0.00  0.00    -0.237 NA
ATOM     21  C   UNL     1      18.175   6.219  20.402  0.00  0.00    +0.041 A 
ATOM     23  C   UNL     1      17.557   6.012  19.173  0.00  0.00    +0.017 A 
ATOM     24  C   UNL     1      17.386   6.627  21.465  0.00  0.00    +0.124 A 
ATOM     25  C   UNL     1      16.187   6.217  19.047  0.00  0.00    +0.047 A 
ATOM     26  C   UNL     1      15.486   6.625  20.171  0.00  0.00    +0.139 A 
BRANCH  26   6
ATOM      6  N   UNL     1      14.121   6.832  20.052  0.00  0.00    -0.290 N 
ATOM      7  N   UNL     1      12.142   7.161  19.100  0.00  0.00    -0.244 NA
ATOM     28  C   UNL     1      13.224   6.927  21.078  0.00  0.00    +0.114 A 
ATOM     29  C   UNL     1      13.425   6.978  18.884  0.00  0.00    +0.205 A 
ATOM     30  C   UNL     1      12.009   7.130  20.466  0.00  0.00    +0.130 A 
ENDBRANCH  26   6
ENDBRANCH  18  21
BRANCH  14   9
ATOM      2  N   UNL     1      23.776   5.921  22.048  0.00  0.00    -0.287 NA
ATOM      9  C   UNL     1      22.931   6.939  21.391  0.00  0.00    +0.146 C 
ATOM     10  C   UNL     1      23.755   7.404  20.176  0.00  0.00    +0.030 C 
ATOM     11  C   UNL     1      25.067   6.639  20.268  0.00  0.00    +0.017 C 
ATOM     12  C   UNL     1      25.162   6.267  21.733  0.00  0.00    +0.085 C 
BRANCH   2  13
ATOM     13  C   UNL     1      23.547   5.824  23.484  0.00  0.00    +0.120 C 
BRANCH  13  15
ATOM     15  C   UNL     1      23.300   4.404  23.919  0.00  0.00    -0.033 A 
ATOM     16  C   UNL     1      22.985   4.126  25.249  0.00  0.00    +0.006 A 
ATOM     17  C   UNL     1      23.383   3.367  22.991  0.00  0.00    +0.006 A 
ATOM     19  C   UNL     1      22.755   2.810  25.651  0.00  0.00    +0.019 A 
ATOM     20  C   UNL     1      23.154   2.050  23.393  0.00  0.00    +0.019 A 
ATOM     22  C   UNL     1      22.840   1.773  24.723  0.00  0.00    +0.052 A 
BRANCH  22  27
ATOM      8  N   UNL     1      22.413  -0.669  25.469  0.00  0.00    -0.191 NA
ATOM     27  C   UNL     1      22.605   0.425  25.135  0.00  0.00    +0.099 C 
ENDBRANCH  22  27
ENDBRANCH  13  15
ENDBRANCH   2  13
ENDBRANCH  14   9
TORSDOF 6
ENDMDL
