MODEL 1
REMARK VINA RESULT:      -6.0      0.000      0.000
REMARK  Name = 26743116
REMARK  7 active torsions:
REMARK  status: ('A' for Active; 'I' for Inactive)
REMARK    1  A    between atoms: S_1  and  C_23
REMARK    2  A    between atoms: S_1  and  C_24
REMARK    3  A    between atoms: C_7  and  C_11
REMARK    4  A    between atoms: C_8  and  C_13
REMARK    5  A    between atoms: C_11  and  C_14
REMARK    6  A    between atoms: C_13  and  C_17
REMARK    7  A    between atoms: C_22  and  C_23
REMARK                            x       y       z     vdW  Elec       q    Type
REMARK                         _______ _______ _______ _____ _____    ______ ____
ROOT
ATOM      4  N   UNL     1      -7.110 -11.652  20.068  0.00  0.00    -0.316 NA
ATOM      7  C   UNL     1      -6.965 -11.193  17.157  0.00  0.00    +0.004 C 
ATOM      8  C   UNL     1      -5.706 -11.352  18.042  0.00  0.00    +0.012 C 
ATOM      9  C   UNL     1      -8.151 -11.893  17.841  0.00  0.00    +0.019 C 
ATOM     10  C   UNL     1      -5.976 -10.926  19.495  0.00  0.00    +0.085 C 
ATOM     12  C   UNL     1      -8.332 -11.450  19.292  0.00  0.00    +0.081 C 
ATOM     30  H   UNL     1      -7.263 -11.338  21.026  0.00  0.00    +0.122 HD
ENDROOT
BRANCH   7  11
ATOM     11  C   UNL     1      -7.310  -9.737  16.820  0.00  0.00    +0.100 C 
BRANCH  11  14
ATOM      2  O   UNL     1      -9.515  -9.562  15.969  0.00  0.00    -0.276 OA
ATOM      5  N   UNL     1      -7.815  -9.802  14.402  0.00  0.00    -0.301 N 
ATOM     14  C   UNL     1      -8.318  -9.691  15.699  0.00  0.00    +0.216 C 
ATOM     15  C   UNL     1      -8.732  -9.769  13.261  0.00  0.00    +0.108 C 
ATOM     16  C   UNL     1      -6.395  -9.912  14.049  0.00  0.00    +0.108 C 
ATOM     18  C   UNL     1      -8.531 -10.988  12.364  0.00  0.00    +0.019 C 
ATOM     19  C   UNL     1      -6.149 -11.134  13.166  0.00  0.00    +0.019 C 
ATOM     20  C   UNL     1      -7.069 -11.132  11.946  0.00  0.00    +0.003 C 
ENDBRANCH  11  14
ENDBRANCH   7  11
BRANCH   8  13
ATOM     13  C   UNL     1      -4.486 -10.618  17.486  0.00  0.00    +0.064 C 
BRANCH  13  17
ATOM      3  O   UNL     1      -3.519 -12.978  14.944  0.00  0.00    -0.359 OA
ATOM      6  N   UNL     1      -4.225 -12.621  16.088  0.00  0.00    -0.083 NA
ATOM     17  C   UNL     1      -3.898 -11.346  16.311  0.00  0.00    +0.084 A 
ATOM     21  C   UNL     1      -2.999 -10.849  15.352  0.00  0.00    +0.071 A 
ATOM     22  C   UNL     1      -2.794 -11.914  14.516  0.00  0.00    +0.148 A 
BRANCH  22  23
ATOM     23  C   UNL     1      -1.983 -12.118  13.310  0.00  0.00    +0.151 C 
BRANCH  23   1
ATOM      1  S   UNL     1      -2.886 -12.972  11.969  0.00  0.00    -0.117 S 
BRANCH   1  24
ATOM     24  C   UNL     1      -3.311 -11.596  10.912  0.00  0.00    +0.008 A 
ATOM     25  C   UNL     1      -2.854 -10.314  11.220  0.00  0.00    +0.015 A 
ATOM     26  C   UNL     1      -4.100 -11.802   9.781  0.00  0.00    +0.015 A 
ATOM     27  C   UNL     1      -3.186  -9.239  10.395  0.00  0.00    +0.001 A 
ATOM     28  C   UNL     1      -4.433 -10.728   8.957  0.00  0.00    +0.001 A 
ATOM     29  C   UNL     1      -3.976  -9.446   9.264  0.00  0.00    +0.000 A 
ENDBRANCH   1  24
ENDBRANCH  23   1
ENDBRANCH  22  23
ENDBRANCH  13  17
ENDBRANCH   8  13
TORSDOF 7
ENDMDL
MODEL 2
REMARK VINA RESULT:      -6.0      1.709      2.536
REMARK  Name = 26743116
REMARK  7 active torsions:
REMARK  status: ('A' for Active; 'I' for Inactive)
REMARK    1  A    between atoms: S_1  and  C_23
REMARK    2  A    between atoms: S_1  and  C_24
REMARK    3  A    between atoms: C_7  and  C_11
REMARK    4  A    between atoms: C_8  and  C_13
REMARK    5  A    between atoms: C_11  and  C_14
REMARK    6  A    between atoms: C_13  and  C_17
REMARK    7  A    between atoms: C_22  and  C_23
REMARK                            x       y       z     vdW  Elec       q    Type
REMARK                         _______ _______ _______ _____ _____    ______ ____
ROOT
ATOM      4  N   UNL     1      -6.037 -12.014  19.693  0.00  0.00    -0.316 NA
ATOM      7  C   UNL     1      -6.520 -11.223  16.892  0.00  0.00    +0.004 C 
ATOM      8  C   UNL     1      -5.119 -11.171  17.545  0.00  0.00    +0.012 C 
ATOM      9  C   UNL     1      -7.383 -12.256  17.636  0.00  0.00    +0.019 C 
ATOM     10  C   UNL     1      -5.209 -10.981  19.069  0.00  0.00    +0.085 C 
ATOM     12  C   UNL     1      -7.392 -12.027  19.147  0.00  0.00    +0.081 C 
ATOM     30  H   UNL     1      -6.079 -11.851  20.698  0.00  0.00    +0.122 HD
ENDROOT
BRANCH   7  11
ATOM     11  C   UNL     1      -7.229  -9.864  16.827  0.00  0.00    +0.100 C 
BRANCH  11  14
ATOM      2  O   UNL     1      -7.814 -10.220  14.558  0.00  0.00    -0.276 OA
ATOM      5  N   UNL     1      -9.482  -9.376  15.939  0.00  0.00    -0.301 N 
ATOM     14  C   UNL     1      -8.195  -9.840  15.669  0.00  0.00    +0.216 C 
ATOM     15  C   UNL     1     -10.477  -9.320  14.865  0.00  0.00    +0.108 C 
ATOM     16  C   UNL     1      -9.976  -8.959  17.257  0.00  0.00    +0.108 C 
ATOM     18  C   UNL     1     -11.082  -7.922  14.756  0.00  0.00    +0.019 C 
ATOM     19  C   UNL     1     -10.573  -7.554  17.193  0.00  0.00    +0.019 C 
ATOM     20  C   UNL     1     -11.635  -7.452  16.099  0.00  0.00    +0.003 C 
ENDBRANCH  11  14
ENDBRANCH   7  11
BRANCH   8  13
ATOM     13  C   UNL     1      -4.208 -10.111  16.925  0.00  0.00    +0.064 C 
BRANCH  13  17
ATOM      3  O   UNL     1      -1.315 -11.435  15.238  0.00  0.00    -0.359 OA
ATOM      6  N   UNL     1      -1.936 -10.830  16.326  0.00  0.00    -0.083 NA
ATOM     17  C   UNL     1      -3.221 -10.726  15.975  0.00  0.00    +0.084 A 
ATOM     21  C   UNL     1      -3.467 -11.243  14.691  0.00  0.00    +0.071 A 
ATOM     22  C   UNL     1      -2.238 -11.675  14.273  0.00  0.00    +0.148 A 
BRANCH  22  23
ATOM     23  C   UNL     1      -1.749 -12.314  13.045  0.00  0.00    +0.151 C 
BRANCH  23   1
ATOM      1  S   UNL     1      -3.092 -12.958  11.984  0.00  0.00    -0.117 S 
BRANCH   1  24
ATOM     24  C   UNL     1      -3.396 -11.551  10.926  0.00  0.00    +0.008 A 
ATOM     25  C   UNL     1      -2.769 -10.333  11.189  0.00  0.00    +0.015 A 
ATOM     26  C   UNL     1      -4.260 -11.670   9.837  0.00  0.00    +0.015 A 
ATOM     27  C   UNL     1      -3.007  -9.234  10.364  0.00  0.00    +0.001 A 
ATOM     28  C   UNL     1      -4.498 -10.572   9.012  0.00  0.00    +0.001 A 
ATOM     29  C   UNL     1      -3.871  -9.354   9.275  0.00  0.00    +0.000 A 
ENDBRANCH   1  24
ENDBRANCH  23   1
ENDBRANCH  22  23
ENDBRANCH  13  17
ENDBRANCH   8  13
TORSDOF 7
ENDMDL
MODEL 3
REMARK VINA RESULT:      -5.9     23.756     27.669
REMARK  Name = 26743116
REMARK  7 active torsions:
REMARK  status: ('A' for Active; 'I' for Inactive)
REMARK    1  A    between atoms: S_1  and  C_23
REMARK    2  A    between atoms: S_1  and  C_24
REMARK    3  A    between atoms: C_7  and  C_11
REMARK    4  A    between atoms: C_8  and  C_13
REMARK    5  A    between atoms: C_11  and  C_14
REMARK    6  A    between atoms: C_13  and  C_17
REMARK    7  A    between atoms: C_22  and  C_23
REMARK                            x       y       z     vdW  Elec       q    Type
REMARK                         _______ _______ _______ _____ _____    ______ ____
ROOT
ATOM      4  N   UNL     1      16.018   4.229   0.667  0.00  0.00    -0.316 NA
ATOM      7  C   UNL     1      13.335   4.552  -0.516  0.00  0.00    +0.004 C 
ATOM      8  C   UNL     1      13.560   4.349   1.001  0.00  0.00    +0.012 C 
ATOM      9  C   UNL     1      14.607   5.153  -1.137  0.00  0.00    +0.019 C 
ATOM     10  C   UNL     1      14.861   3.578   1.283  0.00  0.00    +0.085 C 
ATOM     12  C   UNL     1      15.862   4.358  -0.780  0.00  0.00    +0.081 C 
ATOM     30  H   UNL     1      16.857   3.687   0.869  0.00  0.00    +0.122 HD
ENDROOT
BRANCH   7  11
ATOM     11  C   UNL     1      12.914   3.278  -1.261  0.00  0.00    +0.100 C 
BRANCH  11  14
ATOM      2  O   UNL     1      10.550   3.446  -1.289  0.00  0.00    -0.276 OA
ATOM      5  N   UNL     1      11.635   3.744  -3.322  0.00  0.00    -0.301 N 
ATOM     14  C   UNL     1      11.591   3.496  -1.950  0.00  0.00    +0.216 C 
ATOM     15  C   UNL     1      10.390   3.963  -4.063  0.00  0.00    +0.108 C 
ATOM     16  C   UNL     1      12.857   3.854  -4.127  0.00  0.00    +0.108 C 
ATOM     18  C   UNL     1      10.293   3.016  -5.257  0.00  0.00    +0.019 C 
ATOM     19  C   UNL     1      12.807   2.904  -5.323  0.00  0.00    +0.019 C 
ATOM     20  C   UNL     1      11.533   3.111  -6.142  0.00  0.00    +0.003 C 
ENDBRANCH  11  14
ENDBRANCH   7  11
BRANCH   8  13
ATOM     13  C   UNL     1      12.377   3.677   1.698  0.00  0.00    +0.064 C 
BRANCH  13  17
ATOM      3  O   UNL     1      10.249   6.497   2.397  0.00  0.00    -0.359 OA
ATOM      6  N   UNL     1      11.124   5.788   1.582  0.00  0.00    -0.083 NA
ATOM     17  C   UNL     1      11.437   4.693   2.280  0.00  0.00    +0.084 A 
ATOM     21  C   UNL     1      10.796   4.657   3.531  0.00  0.00    +0.071 A 
ATOM     22  C   UNL     1      10.062   5.813   3.554  0.00  0.00    +0.148 A 
BRANCH  22  23
ATOM     23  C   UNL     1       9.159   6.424   4.537  0.00  0.00    +0.151 C 
BRANCH  23   1
ATOM      1  S   UNL     1      10.041   7.272   5.896  0.00  0.00    -0.117 S 
BRANCH   1  24
ATOM     24  C   UNL     1       9.745   6.144   7.251  0.00  0.00    +0.008 A 
ATOM     25  C   UNL     1      10.008   4.783   7.094  0.00  0.00    +0.015 A 
ATOM     26  C   UNL     1       9.250   6.625   8.463  0.00  0.00    +0.015 A 
ATOM     27  C   UNL     1       9.776   3.903   8.151  0.00  0.00    +0.001 A 
ATOM     28  C   UNL     1       9.018   5.745   9.519  0.00  0.00    +0.001 A 
ATOM     29  C   UNL     1       9.281   4.384   9.364  0.00  0.00    +0.000 A 
ENDBRANCH   1  24
ENDBRANCH  23   1
ENDBRANCH  22  23
ENDBRANCH  13  17
ENDBRANCH   8  13
TORSDOF 7
ENDMDL
MODEL 4
REMARK VINA RESULT:      -5.8     19.977     21.769
REMARK  Name = 26743116
REMARK  7 active torsions:
REMARK  status: ('A' for Active; 'I' for Inactive)
REMARK    1  A    between atoms: S_1  and  C_23
REMARK    2  A    between atoms: S_1  and  C_24
REMARK    3  A    between atoms: C_7  and  C_11
REMARK    4  A    between atoms: C_8  and  C_13
REMARK    5  A    between atoms: C_11  and  C_14
REMARK    6  A    between atoms: C_13  and  C_17
REMARK    7  A    between atoms: C_22  and  C_23
REMARK                            x       y       z     vdW  Elec       q    Type
REMARK                         _______ _______ _______ _____ _____    ______ ____
ROOT
ATOM      4  N   UNL     1     -18.534   0.217  26.011  0.00  0.00    -0.316 NA
ATOM      7  C   UNL     1     -17.285   2.643  27.136  0.00  0.00    +0.004 C 
ATOM      8  C   UNL     1     -17.056   2.185  25.676  0.00  0.00    +0.012 C 
ATOM      9  C   UNL     1     -18.624   2.076  27.636  0.00  0.00    +0.019 C 
ATOM     10  C   UNL     1     -17.229   0.664  25.524  0.00  0.00    +0.085 C 
ATOM     12  C   UNL     1     -18.739   0.569  27.415  0.00  0.00    +0.081 C 
ATOM     30  H   UNL     1     -18.608  -0.793  25.902  0.00  0.00    +0.122 HD
ENDROOT
BRANCH   7  11
ATOM     11  C   UNL     1     -16.144   2.271  28.092  0.00  0.00    +0.100 C 
BRANCH  11  14
ATOM      2  O   UNL     1     -16.111   4.557  28.717  0.00  0.00    -0.276 OA
ATOM      5  N   UNL     1     -15.455   3.028  30.340  0.00  0.00    -0.301 N 
ATOM     14  C   UNL     1     -15.905   3.392  29.071  0.00  0.00    +0.216 C 
ATOM     15  C   UNL     1     -15.197   4.061  31.346  0.00  0.00    +0.108 C 
ATOM     16  C   UNL     1     -15.244   1.652  30.804  0.00  0.00    +0.108 C 
ATOM     18  C   UNL     1     -13.784   3.933  31.910  0.00  0.00    +0.019 C 
ATOM     19  C   UNL     1     -13.832   1.477  31.359  0.00  0.00    +0.019 C 
ATOM     20  C   UNL     1     -13.523   2.521  32.431  0.00  0.00    +0.003 C 
ENDBRANCH  11  14
ENDBRANCH   7  11
BRANCH   8  13
ATOM     13  C   UNL     1     -15.707   2.631  25.113  0.00  0.00    +0.064 C 
BRANCH  13  17
ATOM      3  O   UNL     1     -16.328   4.364  22.018  0.00  0.00    -0.359 OA
ATOM      6  N   UNL     1     -16.266   3.210  22.791  0.00  0.00    -0.083 NA
ATOM     17  C   UNL     1     -15.880   3.625  24.001  0.00  0.00    +0.084 A 
ATOM     21  C   UNL     1     -15.685   5.016  24.051  0.00  0.00    +0.071 A 
ATOM     22  C   UNL     1     -15.980   5.432  22.780  0.00  0.00    +0.148 A 
BRANCH  22  23
ATOM     23  C   UNL     1     -15.991   6.741  22.116  0.00  0.00    +0.151 C 
BRANCH  23   1
ATOM      1  S   UNL     1     -15.683   6.640  20.317  0.00  0.00    -0.117 S 
BRANCH   1  24
ATOM     24  C   UNL     1     -13.997   7.226  20.226  0.00  0.00    +0.008 A 
ATOM     25  C   UNL     1     -12.986   6.546  20.905  0.00  0.00    +0.015 A 
ATOM     26  C   UNL     1     -13.693   8.363  19.479  0.00  0.00    +0.015 A 
ATOM     27  C   UNL     1     -11.669   7.003  20.835  0.00  0.00    +0.001 A 
ATOM     28  C   UNL     1     -12.377   8.822  19.410  0.00  0.00    +0.001 A 
ATOM     29  C   UNL     1     -11.366   8.141  20.087  0.00  0.00    +0.000 A 
ENDBRANCH   1  24
ENDBRANCH  23   1
ENDBRANCH  22  23
ENDBRANCH  13  17
ENDBRANCH   8  13
TORSDOF 7
ENDMDL
MODEL 5
REMARK VINA RESULT:      -5.7      2.104      3.089
REMARK  Name = 26743116
REMARK  7 active torsions:
REMARK  status: ('A' for Active; 'I' for Inactive)
REMARK    1  A    between atoms: S_1  and  C_23
REMARK    2  A    between atoms: S_1  and  C_24
REMARK    3  A    between atoms: C_7  and  C_11
REMARK    4  A    between atoms: C_8  and  C_13
REMARK    5  A    between atoms: C_11  and  C_14
REMARK    6  A    between atoms: C_13  and  C_17
REMARK    7  A    between atoms: C_22  and  C_23
REMARK                            x       y       z     vdW  Elec       q    Type
REMARK                         _______ _______ _______ _____ _____    ______ ____
ROOT
ATOM      4  N   UNL     1      -8.234 -13.598  19.990  0.00  0.00    -0.316 NA
ATOM      7  C   UNL     1      -8.260 -11.668  17.758  0.00  0.00    +0.004 C 
ATOM      8  C   UNL     1      -6.960 -12.088  18.485  0.00  0.00    +0.012 C 
ATOM      9  C   UNL     1      -9.309 -12.780  17.922  0.00  0.00    +0.019 C 
ATOM     10  C   UNL     1      -7.236 -12.529  19.932  0.00  0.00    +0.085 C 
ATOM     12  C   UNL     1      -9.499 -13.193  19.381  0.00  0.00    +0.081 C 
ATOM     30  H   UNL     1      -8.395 -13.856  20.962  0.00  0.00    +0.122 HD
ENDROOT
BRANCH   7  11
ATOM     11  C   UNL     1      -8.821 -10.316  18.217  0.00  0.00    +0.100 C 
BRANCH  11  14
ATOM      2  O   UNL     1      -7.737  -8.814  16.740  0.00  0.00    -0.276 OA
ATOM      5  N   UNL     1     -10.029  -9.073  16.456  0.00  0.00    -0.301 N 
ATOM     14  C   UNL     1      -8.805  -9.334  17.073  0.00  0.00    +0.216 C 
ATOM     15  C   UNL     1     -10.095  -8.129  15.338  0.00  0.00    +0.108 C 
ATOM     16  C   UNL     1     -11.306  -9.709  16.801  0.00  0.00    +0.108 C 
ATOM     18  C   UNL     1     -11.139  -7.046  15.601  0.00  0.00    +0.019 C 
ATOM     19  C   UNL     1     -12.375  -8.656  17.090  0.00  0.00    +0.019 C 
ATOM     20  C   UNL     1     -12.496  -7.658  15.940  0.00  0.00    +0.003 C 
ENDBRANCH  11  14
ENDBRANCH   7  11
BRANCH   8  13
ATOM     13  C   UNL     1      -5.878 -11.008  18.450  0.00  0.00    +0.064 C 
BRANCH  13  17
ATOM      3  O   UNL     1      -3.845 -12.307  15.776  0.00  0.00    -0.359 OA
ATOM      6  N   UNL     1      -4.796 -12.450  16.780  0.00  0.00    -0.083 NA
ATOM     17  C   UNL     1      -4.918 -11.233  17.317  0.00  0.00    +0.084 A 
ATOM     21  C   UNL     1      -4.078 -10.291  16.700  0.00  0.00    +0.071 A 
ATOM     22  C   UNL     1      -3.426 -11.016  15.739  0.00  0.00    +0.148 A 
BRANCH  22  23
ATOM     23  C   UNL     1      -2.413 -10.686  14.729  0.00  0.00    +0.151 C 
BRANCH  23   1
ATOM      1  S   UNL     1      -2.550 -11.698  13.212  0.00  0.00    -0.117 S 
BRANCH   1  24
ATOM     24  C   UNL     1      -3.358 -10.551  12.107  0.00  0.00    +0.008 A 
ATOM     25  C   UNL     1      -2.663 -10.025  11.018  0.00  0.00    +0.015 A 
ATOM     26  C   UNL     1      -4.683 -10.180  12.333  0.00  0.00    +0.015 A 
ATOM     27  C   UNL     1      -3.293  -9.128  10.155  0.00  0.00    +0.001 A 
ATOM     28  C   UNL     1      -5.314  -9.282  11.471  0.00  0.00    +0.001 A 
ATOM     29  C   UNL     1      -4.618  -8.757  10.382  0.00  0.00    +0.000 A 
ENDBRANCH   1  24
ENDBRANCH  23   1
ENDBRANCH  22  23
ENDBRANCH  13  17
ENDBRANCH   8  13
TORSDOF 7
ENDMDL
MODEL 6
REMARK VINA RESULT:      -5.6     19.777     21.591
REMARK  Name = 26743116
REMARK  7 active torsions:
REMARK  status: ('A' for Active; 'I' for Inactive)
REMARK    1  A    between atoms: S_1  and  C_23
REMARK    2  A    between atoms: S_1  and  C_24
REMARK    3  A    between atoms: C_7  and  C_11
REMARK    4  A    between atoms: C_8  and  C_13
REMARK    5  A    between atoms: C_11  and  C_14
REMARK    6  A    between atoms: C_13  and  C_17
REMARK    7  A    between atoms: C_22  and  C_23
REMARK                            x       y       z     vdW  Elec       q    Type
REMARK                         _______ _______ _______ _____ _____    ______ ____
ROOT
ATOM      4  N   UNL     1     -13.849   4.646  21.851  0.00  0.00    -0.316 NA
ATOM      7  C   UNL     1     -14.140   7.360  20.730  0.00  0.00    +0.004 C 
ATOM      8  C   UNL     1     -12.774   6.642  20.836  0.00  0.00    +0.012 C 
ATOM      9  C   UNL     1     -15.259   6.307  20.687  0.00  0.00    +0.019 C 
ATOM     10  C   UNL     1     -12.760   5.615  21.982  0.00  0.00    +0.085 C 
ATOM     12  C   UNL     1     -15.157   5.299  21.831  0.00  0.00    +0.081 C 
ATOM     30  H   UNL     1     -13.811   3.990  22.630  0.00  0.00    +0.122 HD
ENDROOT
BRANCH   7  11
ATOM     11  C   UNL     1     -14.396   8.382  21.845  0.00  0.00    +0.100 C 
BRANCH  11  14
ATOM      2  O   UNL     1     -16.625   9.183  21.772  0.00  0.00    -0.276 OA
ATOM      5  N   UNL     1     -15.038  10.429  20.620  0.00  0.00    -0.301 N 
ATOM     14  C   UNL     1     -15.457   9.362  21.415  0.00  0.00    +0.216 C 
ATOM     15  C   UNL     1     -16.011  11.422  20.159  0.00  0.00    +0.108 C 
ATOM     16  C   UNL     1     -13.652  10.693  20.216  0.00  0.00    +0.108 C 
ATOM     18  C   UNL     1     -15.953  11.579  18.642  0.00  0.00    +0.019 C 
ATOM     19  C   UNL     1     -13.548  10.838  18.698  0.00  0.00    +0.019 C 
ATOM     20  C   UNL     1     -14.532  11.882  18.172  0.00  0.00    +0.003 C 
ENDBRANCH  11  14
ENDBRANCH   7  11
BRANCH   8  13
ATOM     13  C   UNL     1     -11.597   7.609  20.969  0.00  0.00    +0.064 C 
BRANCH  13  17
ATOM      3  O   UNL     1     -10.106   9.317  18.172  0.00  0.00    -0.359 OA
ATOM      6  N   UNL     1     -10.372   9.179  19.529  0.00  0.00    -0.083 NA
ATOM     17  C   UNL     1     -11.118   8.075  19.624  0.00  0.00    +0.084 A 
ATOM     21  C   UNL     1     -11.353   7.480  18.372  0.00  0.00    +0.071 A 
ATOM     22  C   UNL     1     -10.695   8.300  17.494  0.00  0.00    +0.148 A 
BRANCH  22  23
ATOM     23  C   UNL     1     -10.514   8.291  16.038  0.00  0.00    +0.151 C 
BRANCH  23   1
ATOM      1  S   UNL     1     -11.575   9.502  15.172  0.00  0.00    -0.117 S 
BRANCH   1  24
ATOM     24  C   UNL     1     -13.054   8.534  14.908  0.00  0.00    +0.008 A 
ATOM     25  C   UNL     1     -14.038   8.482  15.895  0.00  0.00    +0.015 A 
ATOM     26  C   UNL     1     -13.223   7.830  13.716  0.00  0.00    +0.015 A 
ATOM     27  C   UNL     1     -15.192   7.725  15.690  0.00  0.00    +0.001 A 
ATOM     28  C   UNL     1     -14.376   7.072  13.511  0.00  0.00    +0.001 A 
ATOM     29  C   UNL     1     -15.360   7.021  14.497  0.00  0.00    +0.000 A 
ENDBRANCH   1  24
ENDBRANCH  23   1
ENDBRANCH  22  23
ENDBRANCH  13  17
ENDBRANCH   8  13
TORSDOF 7
ENDMDL
MODEL 7
REMARK VINA RESULT:      -5.6      2.636      6.830
REMARK  Name = 26743116
REMARK  7 active torsions:
REMARK  status: ('A' for Active; 'I' for Inactive)
REMARK    1  A    between atoms: S_1  and  C_23
REMARK    2  A    between atoms: S_1  and  C_24
REMARK    3  A    between atoms: C_7  and  C_11
REMARK    4  A    between atoms: C_8  and  C_13
REMARK    5  A    between atoms: C_11  and  C_14
REMARK    6  A    between atoms: C_13  and  C_17
REMARK    7  A    between atoms: C_22  and  C_23
REMARK                            x       y       z     vdW  Elec       q    Type
REMARK                         _______ _______ _______ _____ _____    ______ ____
ROOT
ATOM      4  N   UNL     1      -3.173 -13.874  14.899  0.00  0.00    -0.316 NA
ATOM      7  C   UNL     1      -2.551 -11.486  13.280  0.00  0.00    +0.004 C 
ATOM      8  C   UNL     1      -3.792 -11.573  14.199  0.00  0.00    +0.012 C 
ATOM      9  C   UNL     1      -1.476 -12.458  13.796  0.00  0.00    +0.019 C 
ATOM     10  C   UNL     1      -4.254 -13.027  14.394  0.00  0.00    +0.085 C 
ATOM     12  C   UNL     1      -2.018 -13.871  14.003  0.00  0.00    +0.081 C 
ATOM     30  H   UNL     1      -3.514 -14.828  15.007  0.00  0.00    +0.122 HD
ENDROOT
BRANCH   7  11
ATOM     11  C   UNL     1      -2.852 -11.743  11.798  0.00  0.00    +0.100 C 
BRANCH  11  14
ATOM      2  O   UNL     1      -1.876  -9.676  11.171  0.00  0.00    -0.276 OA
ATOM      5  N   UNL     1      -3.929 -10.188  10.208  0.00  0.00    -0.301 N 
ATOM     14  C   UNL     1      -2.834 -10.443  11.035  0.00  0.00    +0.216 C 
ATOM     15  C   UNL     1      -3.985  -8.945   9.436  0.00  0.00    +0.108 C 
ATOM     16  C   UNL     1      -5.059 -11.099   9.992  0.00  0.00    +0.108 C 
ATOM     18  C   UNL     1      -5.290  -8.197   9.702  0.00  0.00    +0.019 C 
ATOM     19  C   UNL     1      -6.385 -10.392  10.267  0.00  0.00    +0.019 C 
ATOM     20  C   UNL     1      -6.501  -9.097   9.465  0.00  0.00    +0.003 C 
ENDBRANCH  11  14
ENDBRANCH   7  11
BRANCH   8  13
ATOM     13  C   UNL     1      -4.953 -10.701  13.721  0.00  0.00    +0.064 C 
BRANCH  13  17
ATOM      3  O   UNL     1      -6.773  -9.574  16.617  0.00  0.00    -0.359 OA
ATOM      6  N   UNL     1      -5.668  -9.554  15.773  0.00  0.00    -0.083 NA
ATOM     17  C   UNL     1      -5.942 -10.453  14.824  0.00  0.00    +0.084 A 
ATOM     21  C   UNL     1      -7.192 -11.067  15.014  0.00  0.00    +0.071 A 
ATOM     22  C   UNL     1      -7.673 -10.479  16.153  0.00  0.00    +0.148 A 
BRANCH  22  23
ATOM     23  C   UNL     1      -8.909 -10.630  16.931  0.00  0.00    +0.151 C 
BRANCH  23   1
ATOM      1  S   UNL     1      -8.862 -12.041  18.093  0.00  0.00    -0.117 S 
BRANCH   1  24
ATOM     24  C   UNL     1      -7.130 -12.063  18.533  0.00  0.00    +0.008 A 
ATOM     25  C   UNL     1      -6.659 -11.232  19.550  0.00  0.00    +0.015 A 
ATOM     26  C   UNL     1      -6.250 -12.909  17.860  0.00  0.00    +0.015 A 
ATOM     27  C   UNL     1      -5.307 -11.248  19.894  0.00  0.00    +0.001 A 
ATOM     28  C   UNL     1      -4.898 -12.925  18.202  0.00  0.00    +0.001 A 
ATOM     29  C   UNL     1      -4.427 -12.095  19.219  0.00  0.00    +0.000 A 
ENDBRANCH   1  24
ENDBRANCH  23   1
ENDBRANCH  22  23
ENDBRANCH  13  17
ENDBRANCH   8  13
TORSDOF 7
ENDMDL
MODEL 8
REMARK VINA RESULT:      -5.6      3.333      7.210
REMARK  Name = 26743116
REMARK  7 active torsions:
REMARK  status: ('A' for Active; 'I' for Inactive)
REMARK    1  A    between atoms: S_1  and  C_23
REMARK    2  A    between atoms: S_1  and  C_24
REMARK    3  A    between atoms: C_7  and  C_11
REMARK    4  A    between atoms: C_8  and  C_13
REMARK    5  A    between atoms: C_11  and  C_14
REMARK    6  A    between atoms: C_13  and  C_17
REMARK    7  A    between atoms: C_22  and  C_23
REMARK                            x       y       z     vdW  Elec       q    Type
REMARK                         _______ _______ _______ _____ _____    ______ ____
ROOT
ATOM      4  N   UNL     1      -6.267 -13.702  15.720  0.00  0.00    -0.316 NA
ATOM      7  C   UNL     1      -3.978 -11.898  16.182  0.00  0.00    +0.004 C 
ATOM      8  C   UNL     1      -5.177 -11.994  17.156  0.00  0.00    +0.012 C 
ATOM      9  C   UNL     1      -3.869 -13.212  15.390  0.00  0.00    +0.019 C 
ATOM     10  C   UNL     1      -6.460 -12.439  16.433  0.00  0.00    +0.085 C 
ATOM     12  C   UNL     1      -5.191 -13.610  14.736  0.00  0.00    +0.081 C 
ATOM     30  H   UNL     1      -7.134 -13.960  15.249  0.00  0.00    +0.122 HD
ENDROOT
BRANCH   7  11
ATOM     11  C   UNL     1      -4.038 -10.693  15.235  0.00  0.00    +0.100 C 
BRANCH  11  14
ATOM      2  O   UNL     1      -1.691 -10.591  14.923  0.00  0.00    -0.276 OA
ATOM      5  N   UNL     1      -2.991 -10.669  12.997  0.00  0.00    -0.301 N 
ATOM     14  C   UNL     1      -2.798 -10.647  14.379  0.00  0.00    +0.216 C 
ATOM     15  C   UNL     1      -1.835 -10.624  12.099  0.00  0.00    +0.108 C 
ATOM     16  C   UNL     1      -4.290 -10.779  12.324  0.00  0.00    +0.108 C 
ATOM     18  C   UNL     1      -1.974  -9.488  11.088  0.00  0.00    +0.019 C 
ATOM     19  C   UNL     1      -4.476  -9.646  11.315  0.00  0.00    +0.019 C 
ATOM     20  C   UNL     1      -3.302  -9.573  10.340  0.00  0.00    +0.003 C 
ENDBRANCH  11  14
ENDBRANCH   7  11
BRANCH   8  13
ATOM     13  C   UNL     1      -5.421 -10.701  17.934  0.00  0.00    +0.064 C 
BRANCH  13  17
ATOM      3  O   UNL     1      -8.419 -11.038  19.901  0.00  0.00    -0.359 OA
ATOM      6  N   UNL     1      -7.067 -11.268  19.668  0.00  0.00    -0.083 NA
ATOM     17  C   UNL     1      -6.809 -10.661  18.506  0.00  0.00    +0.084 A 
ATOM     21  C   UNL     1      -7.947 -10.038  17.965  0.00  0.00    +0.071 A 
ATOM     22  C   UNL     1      -8.930 -10.304  18.880  0.00  0.00    +0.148 A 
BRANCH  22  23
ATOM     23  C   UNL     1     -10.356  -9.968  18.966  0.00  0.00    +0.151 C 
BRANCH  23   1
ATOM      1  S   UNL     1     -11.284 -10.365  17.441  0.00  0.00    -0.117 S 
BRANCH   1  24
ATOM     24  C   UNL     1     -11.684  -8.727  16.849  0.00  0.00    +0.008 A 
ATOM     25  C   UNL     1     -12.981  -8.438  16.425  0.00  0.00    +0.015 A 
ATOM     26  C   UNL     1     -10.701  -7.739  16.810  0.00  0.00    +0.015 A 
ATOM     27  C   UNL     1     -13.294  -7.159  15.962  0.00  0.00    +0.001 A 
ATOM     28  C   UNL     1     -11.013  -6.462  16.346  0.00  0.00    +0.001 A 
ATOM     29  C   UNL     1     -12.310  -6.172  15.923  0.00  0.00    +0.000 A 
ENDBRANCH   1  24
ENDBRANCH  23   1
ENDBRANCH  22  23
ENDBRANCH  13  17
ENDBRANCH   8  13
TORSDOF 7
ENDMDL
MODEL 9
REMARK VINA RESULT:      -5.5      2.394      3.419
REMARK  Name = 26743116
REMARK  7 active torsions:
REMARK  status: ('A' for Active; 'I' for Inactive)
REMARK    1  A    between atoms: S_1  and  C_23
REMARK    2  A    between atoms: S_1  and  C_24
REMARK    3  A    between atoms: C_7  and  C_11
REMARK    4  A    between atoms: C_8  and  C_13
REMARK    5  A    between atoms: C_11  and  C_14
REMARK    6  A    between atoms: C_13  and  C_17
REMARK    7  A    between atoms: C_22  and  C_23
REMARK                            x       y       z     vdW  Elec       q    Type
REMARK                         _______ _______ _______ _____ _____    ______ ____
ROOT
ATOM      4  N   UNL     1      -8.252 -13.707  19.878  0.00  0.00    -0.316 NA
ATOM      7  C   UNL     1      -9.193 -11.383  18.322  0.00  0.00    +0.004 C 
ATOM      8  C   UNL     1      -7.695 -11.655  18.594  0.00  0.00    +0.012 C 
ATOM      9  C   UNL     1      -9.968 -12.709  18.408  0.00  0.00    +0.019 C 
ATOM     10  C   UNL     1      -7.490 -12.458  19.891  0.00  0.00    +0.085 C 
ATOM     12  C   UNL     1      -9.683 -13.468  19.703  0.00  0.00    +0.081 C 
ATOM     30  H   UNL     1      -8.097 -14.205  20.753  0.00  0.00    +0.122 HD
ENDROOT
BRANCH   7  11
ATOM     11  C   UNL     1      -9.814 -10.328  19.246  0.00  0.00    +0.100 C 
BRANCH  11  14
ATOM      2  O   UNL     1     -12.179 -10.266  19.109  0.00  0.00    -0.276 OA
ATOM      5  N   UNL     1     -11.019  -8.893  17.636  0.00  0.00    -0.301 N 
ATOM     14  C   UNL     1     -11.113  -9.831  18.664  0.00  0.00    +0.216 C 
ATOM     15  C   UNL     1     -12.237  -8.365  17.018  0.00  0.00    +0.108 C 
ATOM     16  C   UNL     1      -9.769  -8.325  17.117  0.00  0.00    +0.108 C 
ATOM     18  C   UNL     1     -12.199  -8.539  15.502  0.00  0.00    +0.019 C 
ATOM     19  C   UNL     1      -9.684  -8.498  15.601  0.00  0.00    +0.019 C 
ATOM     20  C   UNL     1     -10.926  -7.940  14.908  0.00  0.00    +0.003 C 
ENDBRANCH  11  14
ENDBRANCH   7  11
BRANCH   8  13
ATOM     13  C   UNL     1      -6.849 -10.382  18.612  0.00  0.00    +0.064 C 
BRANCH  13  17
ATOM      3  O   UNL     1      -5.186  -9.921  15.451  0.00  0.00    -0.359 OA
ATOM      6  N   UNL     1      -6.287  -9.799  16.293  0.00  0.00    -0.083 NA
ATOM     17  C   UNL     1      -5.898 -10.341  17.450  0.00  0.00    +0.084 A 
ATOM     21  C   UNL     1      -4.577 -10.816  17.400  0.00  0.00    +0.071 A 
ATOM     22  C   UNL     1      -4.175 -10.528  16.123  0.00  0.00    +0.148 A 
BRANCH  22  23
ATOM     23  C   UNL     1      -2.927 -10.738  15.379  0.00  0.00    +0.151 C 
BRANCH  23   1
ATOM      1  S   UNL     1      -3.096 -11.943  14.015  0.00  0.00    -0.117 S 
BRANCH   1  24
ATOM     24  C   UNL     1      -3.042 -10.861  12.594  0.00  0.00    +0.008 A 
ATOM     25  C   UNL     1      -4.211 -10.581  11.886  0.00  0.00    +0.015 A 
ATOM     26  C   UNL     1      -1.832 -10.297  12.192  0.00  0.00    +0.015 A 
ATOM     27  C   UNL     1      -4.169  -9.737  10.777  0.00  0.00    +0.001 A 
ATOM     28  C   UNL     1      -1.789  -9.454  11.082  0.00  0.00    +0.001 A 
ATOM     29  C   UNL     1      -2.958  -9.173  10.375  0.00  0.00    +0.000 A 
ENDBRANCH   1  24
ENDBRANCH  23   1
ENDBRANCH  22  23
ENDBRANCH  13  17
ENDBRANCH   8  13
TORSDOF 7
ENDMDL
MODEL 10
REMARK VINA RESULT:      -5.5      5.505      8.700
REMARK  Name = 26743116
REMARK  7 active torsions:
REMARK  status: ('A' for Active; 'I' for Inactive)
REMARK    1  A    between atoms: S_1  and  C_23
REMARK    2  A    between atoms: S_1  and  C_24
REMARK    3  A    between atoms: C_7  and  C_11
REMARK    4  A    between atoms: C_8  and  C_13
REMARK    5  A    between atoms: C_11  and  C_14
REMARK    6  A    between atoms: C_13  and  C_17
REMARK    7  A    between atoms: C_22  and  C_23
REMARK                            x       y       z     vdW  Elec       q    Type
REMARK                         _______ _______ _______ _____ _____    ______ ____
ROOT
ATOM      4  N   UNL     1     -10.543 -10.876  14.683  0.00  0.00    -0.316 NA
ATOM      7  C   UNL     1     -10.269 -10.173  17.536  0.00  0.00    +0.004 C 
ATOM      8  C   UNL     1     -11.042  -9.289  16.528  0.00  0.00    +0.012 C 
ATOM      9  C   UNL     1     -10.246 -11.621  17.019  0.00  0.00    +0.019 C 
ATOM     10  C   UNL     1     -10.515  -9.472  15.093  0.00  0.00    +0.085 C 
ATOM     12  C   UNL     1      -9.751 -11.719  15.577  0.00  0.00    +0.081 C 
ATOM     30  H   UNL     1     -10.181 -10.957  13.734  0.00  0.00    +0.122 HD
ENDROOT
BRANCH   7  11
ATOM     11  C   UNL     1      -8.849  -9.679  17.838  0.00  0.00    +0.100 C 
BRANCH  11  14
ATOM      2  O   UNL     1      -8.615 -10.968  19.812  0.00  0.00    -0.276 OA
ATOM      5  N   UNL     1      -6.940 -11.201  18.217  0.00  0.00    -0.301 N 
ATOM     14  C   UNL     1      -8.131 -10.673  18.716  0.00  0.00    +0.216 C 
ATOM     15  C   UNL     1      -6.185 -12.171  19.013  0.00  0.00    +0.108 C 
ATOM     16  C   UNL     1      -6.364 -10.903  16.901  0.00  0.00    +0.108 C 
ATOM     18  C   UNL     1      -4.736 -11.721  19.190  0.00  0.00    +0.019 C 
ATOM     19  C   UNL     1      -4.918 -10.429  17.037  0.00  0.00    +0.019 C 
ATOM     20  C   UNL     1      -4.082 -11.422  17.843  0.00  0.00    +0.003 C 
ENDBRANCH  11  14
ENDBRANCH   7  11
BRANCH   8  13
ATOM     13  C   UNL     1     -11.050  -7.810  16.911  0.00  0.00    +0.064 C 
BRANCH  13  17
ATOM      3  O   UNL     1     -11.892  -5.337  14.433  0.00  0.00    -0.359 OA
ATOM      6  N   UNL     1     -11.059  -5.861  15.416  0.00  0.00    -0.083 NA
ATOM     17  C   UNL     1     -11.675  -6.969  15.835  0.00  0.00    +0.084 A 
ATOM     21  C   UNL     1     -12.887  -7.194  15.160  0.00  0.00    +0.071 A 
ATOM     22  C   UNL     1     -12.976  -6.141  14.291  0.00  0.00    +0.148 A 
BRANCH  22  23
ATOM     23  C   UNL     1     -13.966  -5.733  13.286  0.00  0.00    +0.151 C 
BRANCH  23   1
ATOM      1  S   UNL     1     -14.099  -3.919  13.100  0.00  0.00    -0.117 S 
BRANCH   1  24
ATOM     24  C   UNL     1     -13.452  -3.696  11.450  0.00  0.00    +0.008 A 
ATOM     25  C   UNL     1     -12.089  -3.871  11.207  0.00  0.00    +0.015 A 
ATOM     26  C   UNL     1     -14.308  -3.347  10.406  0.00  0.00    +0.015 A 
ATOM     27  C   UNL     1     -11.583  -3.697   9.918  0.00  0.00    +0.001 A 
ATOM     28  C   UNL     1     -13.802  -3.172   9.118  0.00  0.00    +0.001 A 
ATOM     29  C   UNL     1     -12.440  -3.347   8.874  0.00  0.00    +0.000 A 
ENDBRANCH   1  24
ENDBRANCH  23   1
ENDBRANCH  22  23
ENDBRANCH  13  17
ENDBRANCH   8  13
TORSDOF 7
ENDMDL
