MODEL 1
REMARK VINA RESULT:      -6.9      0.000      0.000
REMARK  Name = 25388474
REMARK  4 active torsions:
REMARK  status: ('A' for Active; 'I' for Inactive)
REMARK    1  A    between atoms: S_1  and  C_29
REMARK    2  A    between atoms: S_1  and  C_30
REMARK    3  A    between atoms: C_13  and  C_14
REMARK    4  A    between atoms: C_22  and  C_24
REMARK                            x       y       z     vdW  Elec       q    Type
REMARK                         _______ _______ _______ _____ _____    ______ ____
ROOT
ATOM      2  O   UNL     1      13.206   5.929  -2.473  0.00  0.00    -0.275 OA
ATOM      3  O   UNL     1      12.153   7.849   2.408  0.00  0.00    -0.267 OA
ATOM      4  N   UNL     1      13.552   4.297  -0.855  0.00  0.00    -0.300 N 
ATOM      5  N   UNL     1      12.701   5.636   1.918  0.00  0.00    -0.311 N 
ATOM      6  C   UNL     1      15.015   4.947   1.063  0.00  0.00    +0.027 C 
ATOM      7  C   UNL     1      13.272   3.242   1.380  0.00  0.00    +0.054 C 
ATOM      8  C   UNL     1      14.711   3.612   1.732  0.00  0.00    +0.018 C 
ATOM      9  C   UNL     1      14.858   4.833  -0.464  0.00  0.00    +0.113 C 
ATOM     10  C   UNL     1      13.139   3.077  -0.146  0.00  0.00    +0.117 C 
ATOM     11  C   UNL     1      14.096   6.020   1.658  0.00  0.00    +0.130 C 
ATOM     12  C   UNL     1      12.300   4.298   1.871  0.00  0.00    +0.027 A 
ATOM     14  C   UNL     1      12.841   4.904  -1.891  0.00  0.00    +0.219 C 
ATOM     17  C   UNL     1      11.053   3.957   2.229  0.00  0.00    +0.022 A 
ATOM     20  C   UNL     1      11.826   6.664   2.321  0.00  0.00    +0.259 A 
ATOM     22  C   UNL     1      10.424   6.253   2.681  0.00  0.00    +0.047 A 
ATOM     23  C   UNL     1      10.102   4.952   2.635  0.00  0.00    +0.015 A 
ENDROOT
BRANCH  14  13
ATOM     13  C   UNL     1      11.556   4.250  -2.296  0.00  0.00    +0.075 C 
ATOM     15  C   UNL     1      10.468   5.310  -2.478  0.00  0.00    +0.013 C 
ATOM     16  C   UNL     1      11.779   3.450  -3.580  0.00  0.00    +0.013 C 
ATOM     18  C   UNL     1       9.168   4.696  -2.991  0.00  0.00    +0.001 C 
ATOM     19  C   UNL     1      10.478   2.840  -4.094  0.00  0.00    +0.001 C 
ATOM     21  C   UNL     1       9.392   3.897  -4.272  0.00  0.00    +0.000 C 
ENDBRANCH  14  13
BRANCH  22  24
ATOM     24  C   UNL     1       9.414   7.253   3.072  0.00  0.00    -0.013 A 
ATOM     25  C   UNL     1       9.053   7.391   4.413  0.00  0.00    +0.010 A 
ATOM     26  C   UNL     1       8.819   8.061   2.103  0.00  0.00    +0.010 A 
ATOM     27  C   UNL     1       8.098   8.337   4.783  0.00  0.00    +0.015 A 
ATOM     28  C   UNL     1       7.865   9.007   2.474  0.00  0.00    +0.015 A 
ATOM     29  C   UNL     1       7.504   9.146   3.814  0.00  0.00    +0.008 A 
BRANCH  29   1
ATOM      1  S   UNL     1       6.283  10.354   4.287  0.00  0.00    -0.129 S 
ATOM     30  C   UNL     1       5.104  10.246   2.911  0.00  0.00    +0.090 C 
ENDBRANCH  29   1
ENDBRANCH  22  24
TORSDOF 3
ENDMDL
MODEL 2
REMARK VINA RESULT:      -6.8     13.750     17.085
REMARK  Name = 25388474
REMARK  4 active torsions:
REMARK  status: ('A' for Active; 'I' for Inactive)
REMARK    1  A    between atoms: S_1  and  C_29
REMARK    2  A    between atoms: S_1  and  C_30
REMARK    3  A    between atoms: C_13  and  C_14
REMARK    4  A    between atoms: C_22  and  C_24
REMARK                            x       y       z     vdW  Elec       q    Type
REMARK                         _______ _______ _______ _____ _____    ______ ____
ROOT
ATOM      2  O   UNL     1      -3.184  12.187   2.740  0.00  0.00    -0.275 OA
ATOM      3  O   UNL     1      -6.788   9.655   5.777  0.00  0.00    -0.267 OA
ATOM      4  N   UNL     1      -2.134  10.778   4.260  0.00  0.00    -0.300 N 
ATOM      5  N   UNL     1      -4.487   9.279   5.817  0.00  0.00    -0.311 N 
ATOM      6  C   UNL     1      -2.818  11.035   6.649  0.00  0.00    +0.027 C 
ATOM      7  C   UNL     1      -2.003   8.861   5.840  0.00  0.00    +0.054 C 
ATOM      8  C   UNL     1      -1.952   9.836   7.014  0.00  0.00    +0.018 C 
ATOM      9  C   UNL     1      -2.288  11.716   5.375  0.00  0.00    +0.113 C 
ATOM     10  C   UNL     1      -1.419   9.534   4.584  0.00  0.00    +0.117 C 
ATOM     11  C   UNL     1      -4.270  10.568   6.490  0.00  0.00    +0.130 C 
ATOM     12  C   UNL     1      -3.425   8.407   5.568  0.00  0.00    +0.027 A 
ATOM     14  C   UNL     1      -2.586  11.138   2.990  0.00  0.00    +0.219 C 
ATOM     17  C   UNL     1      -3.661   7.186   5.063  0.00  0.00    +0.022 A 
ATOM     20  C   UNL     1      -5.823   8.928   5.540  0.00  0.00    +0.259 A 
ATOM     22  C   UNL     1      -6.051   7.566   4.940  0.00  0.00    +0.047 A 
ATOM     23  C   UNL     1      -4.994   6.765   4.741  0.00  0.00    +0.015 A 
ENDROOT
BRANCH  14  13
ATOM     13  C   UNL     1      -2.316  10.167   1.882  0.00  0.00    +0.075 C 
ATOM     15  C   UNL     1      -3.442  10.232   0.848  0.00  0.00    +0.013 C 
ATOM     16  C   UNL     1      -0.959  10.483   1.253  0.00  0.00    +0.013 C 
ATOM     18  C   UNL     1      -3.154   9.332  -0.350  0.00  0.00    +0.001 C 
ATOM     19  C   UNL     1      -0.674   9.585   0.052  0.00  0.00    +0.001 C 
ATOM     21  C   UNL     1      -1.799   9.648  -0.977  0.00  0.00    +0.000 C 
ENDBRANCH  14  13
BRANCH  22  24
ATOM     24  C   UNL     1      -7.404   7.114   4.568  0.00  0.00    -0.013 A 
ATOM     25  C   UNL     1      -8.075   6.191   5.371  0.00  0.00    +0.010 A 
ATOM     26  C   UNL     1      -8.014   7.609   3.416  0.00  0.00    +0.010 A 
ATOM     27  C   UNL     1      -9.355   5.763   5.020  0.00  0.00    +0.015 A 
ATOM     28  C   UNL     1      -9.293   7.182   3.066  0.00  0.00    +0.015 A 
ATOM     29  C   UNL     1      -9.965   6.259   3.868  0.00  0.00    +0.008 A 
BRANCH  29   1
ATOM      1  S   UNL     1     -11.600   5.712   3.419  0.00  0.00    -0.129 S 
ATOM     30  C   UNL     1     -12.238   5.113   5.009  0.00  0.00    +0.090 C 
ENDBRANCH  29   1
ENDBRANCH  22  24
TORSDOF 3
ENDMDL
MODEL 3
REMARK VINA RESULT:      -6.7     26.709     28.349
REMARK  Name = 25388474
REMARK  4 active torsions:
REMARK  status: ('A' for Active; 'I' for Inactive)
REMARK    1  A    between atoms: S_1  and  C_29
REMARK    2  A    between atoms: S_1  and  C_30
REMARK    3  A    between atoms: C_13  and  C_14
REMARK    4  A    between atoms: C_22  and  C_24
REMARK                            x       y       z     vdW  Elec       q    Type
REMARK                         _______ _______ _______ _____ _____    ______ ____
ROOT
ATOM      2  O   UNL     1      -4.072 -14.689  12.551  0.00  0.00    -0.275 OA
ATOM      3  O   UNL     1      -6.715 -10.294  14.075  0.00  0.00    -0.267 OA
ATOM      4  N   UNL     1      -2.589 -13.001  13.142  0.00  0.00    -0.300 N 
ATOM      5  N   UNL     1      -4.401 -10.575  14.160  0.00  0.00    -0.311 N 
ATOM      6  C   UNL     1      -2.960 -10.784  12.053  0.00  0.00    +0.027 C 
ATOM      7  C   UNL     1      -1.905 -10.892  14.272  0.00  0.00    +0.054 C 
ATOM      8  C   UNL     1      -1.857 -10.187  12.918  0.00  0.00    +0.018 C 
ATOM      9  C   UNL     1      -2.742 -12.295  11.868  0.00  0.00    +0.113 C 
ATOM     10  C   UNL     1      -1.630 -12.396  14.080  0.00  0.00    +0.117 C 
ATOM     11  C   UNL     1      -4.317 -10.472  12.697  0.00  0.00    +0.130 C 
ATOM     12  C   UNL     1      -3.250 -10.695  14.943  0.00  0.00    +0.027 A 
ATOM     14  C   UNL     1      -3.271 -14.199  13.352  0.00  0.00    +0.219 C 
ATOM     17  C   UNL     1      -3.341 -10.666  16.282  0.00  0.00    +0.022 A 
ATOM     20  C   UNL     1      -5.682 -10.437  14.731  0.00  0.00    +0.259 A 
ATOM     22  C   UNL     1      -5.754 -10.444  16.234  0.00  0.00    +0.047 A 
ATOM     23  C   UNL     1      -4.614 -10.544  16.933  0.00  0.00    +0.015 A 
ENDROOT
BRANCH  14  13
ATOM     13  C   UNL     1      -2.998 -14.910  14.642  0.00  0.00    +0.075 C 
ATOM     15  C   UNL     1      -4.318 -15.306  15.307  0.00  0.00    +0.013 C 
ATOM     16  C   UNL     1      -2.118 -16.130  14.370  0.00  0.00    +0.013 C 
ATOM     18  C   UNL     1      -4.083 -16.124  16.574  0.00  0.00    +0.001 C 
ATOM     19  C   UNL     1      -1.888 -16.949  15.637  0.00  0.00    +0.001 C 
ATOM     21  C   UNL     1      -3.205 -17.342  16.301  0.00  0.00    +0.000 C 
ENDBRANCH  14  13
BRANCH  22  24
ATOM     24  C   UNL     1      -7.047 -10.352  16.936  0.00  0.00    -0.013 A 
ATOM     25  C   UNL     1      -7.760  -9.153  16.929  0.00  0.00    +0.010 A 
ATOM     26  C   UNL     1      -7.559 -11.463  17.606  0.00  0.00    +0.010 A 
ATOM     27  C   UNL     1      -8.984  -9.065  17.592  0.00  0.00    +0.015 A 
ATOM     28  C   UNL     1      -8.783 -11.376  18.268  0.00  0.00    +0.015 A 
ATOM     29  C   UNL     1      -9.496 -10.177  18.261  0.00  0.00    +0.008 A 
BRANCH  29   1
ATOM      1  S   UNL     1     -11.059 -10.065  19.108  0.00  0.00    -0.129 S 
ATOM     30  C   UNL     1     -11.054 -11.589  20.095  0.00  0.00    +0.090 C 
ENDBRANCH  29   1
ENDBRANCH  22  24
TORSDOF 3
ENDMDL
MODEL 4
REMARK VINA RESULT:      -6.5      5.903     10.069
REMARK  Name = 25388474
REMARK  4 active torsions:
REMARK  status: ('A' for Active; 'I' for Inactive)
REMARK    1  A    between atoms: S_1  and  C_29
REMARK    2  A    between atoms: S_1  and  C_30
REMARK    3  A    between atoms: C_13  and  C_14
REMARK    4  A    between atoms: C_22  and  C_24
REMARK                            x       y       z     vdW  Elec       q    Type
REMARK                         _______ _______ _______ _____ _____    ______ ____
ROOT
ATOM      2  O   UNL     1       9.029  10.895   6.452  0.00  0.00    -0.275 OA
ATOM      3  O   UNL     1      12.763   8.177   3.751  0.00  0.00    -0.267 OA
ATOM      4  N   UNL     1       8.953   8.636   6.990  0.00  0.00    -0.300 N 
ATOM      5  N   UNL     1      11.364   7.284   5.388  0.00  0.00    -0.311 N 
ATOM      6  C   UNL     1       8.834   7.052   5.062  0.00  0.00    +0.027 C 
ATOM      7  C   UNL     1       9.865   6.328   7.173  0.00  0.00    +0.054 C 
ATOM      8  C   UNL     1       8.957   5.882   6.030  0.00  0.00    +0.018 C 
ATOM      9  C   UNL     1       8.227   8.276   5.770  0.00  0.00    +0.113 C 
ATOM     10  C   UNL     1       9.222   7.520   7.910  0.00  0.00    +0.117 C 
ATOM     11  C   UNL     1      10.217   7.355   4.472  0.00  0.00    +0.130 C 
ATOM     12  C   UNL     1      11.238   6.720   6.661  0.00  0.00    +0.027 A 
ATOM     14  C   UNL     1       9.264   9.973   7.238  0.00  0.00    +0.219 C 
ATOM     17  C   UNL     1      12.322   6.556   7.434  0.00  0.00    +0.022 A 
ATOM     20  C   UNL     1      12.607   7.708   4.879  0.00  0.00    +0.259 A 
ATOM     22  C   UNL     1      13.798   7.544   5.784  0.00  0.00    +0.047 A 
ATOM     23  C   UNL     1      13.619   6.979   6.988  0.00  0.00    +0.015 A 
ENDROOT
BRANCH  14  13
ATOM     13  C   UNL     1       9.928  10.276   8.546  0.00  0.00    +0.075 C 
ATOM     15  C   UNL     1      11.286  10.936   8.299  0.00  0.00    +0.013 C 
ATOM     16  C   UNL     1       9.013  11.173   9.381  0.00  0.00    +0.013 C 
ATOM     18  C   UNL     1      11.951  11.355   9.607  0.00  0.00    +0.001 C 
ATOM     19  C   UNL     1       9.681  11.595  10.686  0.00  0.00    +0.001 C 
ATOM     21  C   UNL     1      11.037  12.250  10.439  0.00  0.00    +0.000 C 
ENDBRANCH  14  13
BRANCH  22  24
ATOM     24  C   UNL     1      15.138   7.996   5.371  0.00  0.00    -0.013 A 
ATOM     25  C   UNL     1      15.764   9.038   6.056  0.00  0.00    +0.010 A 
ATOM     26  C   UNL     1      15.782   7.383   4.296  0.00  0.00    +0.010 A 
ATOM     27  C   UNL     1      17.033   9.466   5.666  0.00  0.00    +0.015 A 
ATOM     28  C   UNL     1      17.050   7.810   3.906  0.00  0.00    +0.015 A 
ATOM     29  C   UNL     1      17.676   8.852   4.591  0.00  0.00    +0.008 A 
BRANCH  29   1
ATOM      1  S   UNL     1      19.296   9.400   4.092  0.00  0.00    -0.129 S 
ATOM     30  C   UNL     1      20.129   9.597   5.693  0.00  0.00    +0.090 C 
ENDBRANCH  29   1
ENDBRANCH  22  24
TORSDOF 3
ENDMDL
MODEL 5
REMARK VINA RESULT:      -6.5     27.682     29.999
REMARK  Name = 25388474
REMARK  4 active torsions:
REMARK  status: ('A' for Active; 'I' for Inactive)
REMARK    1  A    between atoms: S_1  and  C_29
REMARK    2  A    between atoms: S_1  and  C_30
REMARK    3  A    between atoms: C_13  and  C_14
REMARK    4  A    between atoms: C_22  and  C_24
REMARK                            x       y       z     vdW  Elec       q    Type
REMARK                         _______ _______ _______ _____ _____    ______ ____
ROOT
ATOM      2  O   UNL     1     -12.264 -10.748  16.061  0.00  0.00    -0.275 OA
ATOM      3  O   UNL     1      -7.377 -12.556  14.847  0.00  0.00    -0.267 OA
ATOM      4  N   UNL     1     -10.910 -10.791  17.949  0.00  0.00    -0.300 N 
ATOM      5  N   UNL     1      -8.034 -11.738  16.930  0.00  0.00    -0.311 N 
ATOM      6  C   UNL     1      -9.738 -12.948  18.410  0.00  0.00    +0.027 C 
ATOM      7  C   UNL     1      -8.743 -10.832  19.171  0.00  0.00    +0.054 C 
ATOM      8  C   UNL     1      -8.997 -12.285  19.564  0.00  0.00    +0.018 C 
ATOM      9  C   UNL     1     -11.075 -12.233  18.146  0.00  0.00    +0.113 C 
ATOM     10  C   UNL     1     -10.089 -10.111  18.962  0.00  0.00    +0.117 C 
ATOM     11  C   UNL     1      -8.831 -12.948  17.174  0.00  0.00    +0.130 C 
ATOM     12  C   UNL     1      -7.911 -10.745  17.905  0.00  0.00    +0.027 A 
ATOM     14  C   UNL     1     -11.580 -10.158  16.901  0.00  0.00    +0.219 C 
ATOM     17  C   UNL     1      -7.084  -9.707  17.709  0.00  0.00    +0.022 A 
ATOM     20  C   UNL     1      -7.321 -11.684  15.716  0.00  0.00    +0.259 A 
ATOM     22  C   UNL     1      -6.429 -10.490  15.510  0.00  0.00    +0.047 A 
ATOM     23  C   UNL     1      -6.337  -9.578  16.490  0.00  0.00    +0.015 A 
ENDROOT
BRANCH  14  13
ATOM     13  C   UNL     1     -11.435  -8.670  16.813  0.00  0.00    +0.075 C 
ATOM     15  C   UNL     1     -10.218  -8.315  15.956  0.00  0.00    +0.013 C 
ATOM     16  C   UNL     1     -12.719  -8.071  16.239  0.00  0.00    +0.013 C 
ATOM     18  C   UNL     1     -10.095  -6.807  15.757  0.00  0.00    +0.001 C 
ATOM     19  C   UNL     1     -12.592  -6.563  16.036  0.00  0.00    +0.001 C 
ATOM     21  C   UNL     1     -11.377  -6.210  15.183  0.00  0.00    +0.000 C 
ENDBRANCH  14  13
BRANCH  22  24
ATOM     24  C   UNL     1      -5.672 -10.310  14.258  0.00  0.00    -0.013 A 
ATOM     25  C   UNL     1      -6.281  -9.707  13.157  0.00  0.00    +0.010 A 
ATOM     26  C   UNL     1      -4.349 -10.740  14.174  0.00  0.00    +0.010 A 
ATOM     27  C   UNL     1      -5.565  -9.535  11.972  0.00  0.00    +0.015 A 
ATOM     28  C   UNL     1      -3.633 -10.569  12.991  0.00  0.00    +0.015 A 
ATOM     29  C   UNL     1      -4.241  -9.966  11.889  0.00  0.00    +0.008 A 
BRANCH  29   1
ATOM      1  S   UNL     1      -3.327  -9.748  10.375  0.00  0.00    -0.129 S 
ATOM     30  C   UNL     1      -4.464  -8.722   9.402  0.00  0.00    +0.090 C 
ENDBRANCH  29   1
ENDBRANCH  22  24
TORSDOF 3
ENDMDL
MODEL 6
REMARK VINA RESULT:      -6.4     34.507     37.103
REMARK  Name = 25388474
REMARK  4 active torsions:
REMARK  status: ('A' for Active; 'I' for Inactive)
REMARK    1  A    between atoms: S_1  and  C_29
REMARK    2  A    between atoms: S_1  and  C_30
REMARK    3  A    between atoms: C_13  and  C_14
REMARK    4  A    between atoms: C_22  and  C_24
REMARK                            x       y       z     vdW  Elec       q    Type
REMARK                         _______ _______ _______ _____ _____    ______ ____
ROOT
ATOM      2  O   UNL     1       8.922  -7.679  37.690  0.00  0.00    -0.275 OA
ATOM      3  O   UNL     1       9.410  -9.429  32.657  0.00  0.00    -0.267 OA
ATOM      4  N   UNL     1       8.480  -5.971  36.178  0.00  0.00    -0.300 N 
ATOM      5  N   UNL     1       8.674  -7.306  33.283  0.00  0.00    -0.311 N 
ATOM      6  C   UNL     1      10.206  -5.594  34.413  0.00  0.00    +0.027 C 
ATOM      7  C   UNL     1       7.857  -5.023  33.964  0.00  0.00    +0.054 C 
ATOM      8  C   UNL     1       9.298  -4.559  33.761  0.00  0.00    +0.018 C 
ATOM      9  C   UNL     1       9.898  -5.713  35.915  0.00  0.00    +0.113 C 
ATOM     10  C   UNL     1       7.542  -5.085  35.471  0.00  0.00    +0.117 C 
ATOM     11  C   UNL     1      10.037  -6.931  33.682  0.00  0.00    +0.130 C 
ATOM     12  C   UNL     1       7.627  -6.382  33.332  0.00  0.00    +0.027 A 
ATOM     14  C   UNL     1       8.118  -6.947  37.107  0.00  0.00    +0.219 C 
ATOM     17  C   UNL     1       6.418  -6.709  32.850  0.00  0.00    +0.022 A 
ATOM     20  C   UNL     1       8.504  -8.600  32.750  0.00  0.00    +0.259 A 
ATOM     22  C   UNL     1       7.127  -8.948  32.251  0.00  0.00    +0.047 A 
ATOM     23  C   UNL     1       6.166  -8.013  32.307  0.00  0.00    +0.015 A 
ENDROOT
BRANCH  14  13
ATOM     13  C   UNL     1       6.655  -7.094  37.390  0.00  0.00    +0.075 C 
ATOM     15  C   UNL     1       6.091  -8.282  36.607  0.00  0.00    +0.013 C 
ATOM     16  C   UNL     1       6.446  -7.264  38.895  0.00  0.00    +0.013 C 
ATOM     18  C   UNL     1       4.624  -8.531  36.947  0.00  0.00    +0.001 C 
ATOM     19  C   UNL     1       4.979  -7.517  39.232  0.00  0.00    +0.001 C 
ATOM     21  C   UNL     1       4.417  -8.700  38.450  0.00  0.00    +0.000 C 
ENDBRANCH  14  13
BRANCH  22  24
ATOM     24  C   UNL     1       6.826 -10.288  31.716  0.00  0.00    -0.013 A 
ATOM     25  C   UNL     1       6.403 -11.302  32.574  0.00  0.00    +0.010 A 
ATOM     26  C   UNL     1       6.965 -10.542  30.351  0.00  0.00    +0.010 A 
ATOM     27  C   UNL     1       6.116 -12.570  32.068  0.00  0.00    +0.015 A 
ATOM     28  C   UNL     1       6.679 -11.809  29.845  0.00  0.00    +0.015 A 
ATOM     29  C   UNL     1       6.254 -12.823  30.703  0.00  0.00    +0.008 A 
BRANCH  29   1
ATOM      1  S   UNL     1       5.891 -14.443  30.057  0.00  0.00    -0.129 S 
ATOM     30  C   UNL     1       4.305 -14.160  29.221  0.00  0.00    +0.090 C 
ENDBRANCH  29   1
ENDBRANCH  22  24
TORSDOF 3
ENDMDL
MODEL 7
REMARK VINA RESULT:      -6.2     24.682     26.558
REMARK  Name = 25388474
REMARK  4 active torsions:
REMARK  status: ('A' for Active; 'I' for Inactive)
REMARK    1  A    between atoms: S_1  and  C_29
REMARK    2  A    between atoms: S_1  and  C_30
REMARK    3  A    between atoms: C_13  and  C_14
REMARK    4  A    between atoms: C_22  and  C_24
REMARK                            x       y       z     vdW  Elec       q    Type
REMARK                         _______ _______ _______ _____ _____    ______ ____
ROOT
ATOM      2  O   UNL     1      -5.600 -13.789  15.186  0.00  0.00    -0.275 OA
ATOM      3  O   UNL     1      -4.626 -13.017   9.982  0.00  0.00    -0.267 OA
ATOM      4  N   UNL     1      -3.372 -13.230  14.841  0.00  0.00    -0.300 N 
ATOM      5  N   UNL     1      -3.097 -12.666  11.708  0.00  0.00    -0.311 N 
ATOM      6  C   UNL     1      -2.155 -14.579  13.126  0.00  0.00    +0.027 C 
ATOM      7  C   UNL     1      -1.457 -12.265  13.578  0.00  0.00    +0.054 C 
ATOM      8  C   UNL     1      -0.941 -13.673  13.291  0.00  0.00    +0.018 C 
ATOM      9  C   UNL     1      -3.005 -14.581  14.409  0.00  0.00    +0.113 C 
ATOM     10  C   UNL     1      -2.260 -12.268  14.893  0.00  0.00    +0.117 C 
ATOM     11  C   UNL     1      -2.957 -14.116  11.904  0.00  0.00    +0.130 C 
ATOM     12  C   UNL     1      -2.328 -11.760  12.443  0.00  0.00    +0.027 A 
ATOM     14  C   UNL     1      -4.683 -12.966  15.238  0.00  0.00    +0.219 C 
ATOM     17  C   UNL     1      -2.383 -10.449  12.165  0.00  0.00    +0.022 A 
ATOM     20  C   UNL     1      -3.958 -12.247  10.675  0.00  0.00    +0.259 A 
ATOM     22  C   UNL     1      -4.026 -10.767  10.411  0.00  0.00    +0.047 A 
ATOM     23  C   UNL     1      -3.250  -9.948  11.136  0.00  0.00    +0.015 A 
ENDROOT
BRANCH  14  13
ATOM     13  C   UNL     1      -4.963 -11.587  15.751  0.00  0.00    +0.075 C 
ATOM     15  C   UNL     1      -6.079 -10.943  14.927  0.00  0.00    +0.013 C 
ATOM     16  C   UNL     1      -5.334 -11.665  17.233  0.00  0.00    +0.013 C 
ATOM     18  C   UNL     1      -6.468  -9.575  15.482  0.00  0.00    +0.001 C 
ATOM     19  C   UNL     1      -5.726 -10.297  17.785  0.00  0.00    +0.001 C 
ATOM     21  C   UNL     1      -6.837  -9.654  16.961  0.00  0.00    +0.000 C 
ENDBRANCH  14  13
BRANCH  22  24
ATOM     24  C   UNL     1      -4.928 -10.216   9.384  0.00  0.00    -0.013 A 
ATOM     25  C   UNL     1      -5.972  -9.370   9.755  0.00  0.00    +0.010 A 
ATOM     26  C   UNL     1      -4.736 -10.539   8.041  0.00  0.00    +0.010 A 
ATOM     27  C   UNL     1      -6.825  -8.847   8.784  0.00  0.00    +0.015 A 
ATOM     28  C   UNL     1      -5.589 -10.017   7.069  0.00  0.00    +0.015 A 
ATOM     29  C   UNL     1      -6.633  -9.170   7.440  0.00  0.00    +0.008 A 
BRANCH  29   1
ATOM      1  S   UNL     1      -7.724  -8.503   6.199  0.00  0.00    -0.129 S 
ATOM     30  C   UNL     1      -8.285  -6.967   6.987  0.00  0.00    +0.090 C 
ENDBRANCH  29   1
ENDBRANCH  22  24
TORSDOF 3
ENDMDL
MODEL 8
REMARK VINA RESULT:      -5.9     26.875     29.182
REMARK  Name = 25388474
REMARK  4 active torsions:
REMARK  status: ('A' for Active; 'I' for Inactive)
REMARK    1  A    between atoms: S_1  and  C_29
REMARK    2  A    between atoms: S_1  and  C_30
REMARK    3  A    between atoms: C_13  and  C_14
REMARK    4  A    between atoms: C_22  and  C_24
REMARK                            x       y       z     vdW  Elec       q    Type
REMARK                         _______ _______ _______ _____ _____    ______ ____
ROOT
ATOM      2  O   UNL     1      21.433  -7.270  25.353  0.00  0.00    -0.275 OA
ATOM      3  O   UNL     1      17.327  -5.119  28.024  0.00  0.00    -0.267 OA
ATOM      4  N   UNL     1      20.028  -6.114  23.909  0.00  0.00    -0.300 N 
ATOM      5  N   UNL     1      17.777  -4.802  25.758  0.00  0.00    -0.311 N 
ATOM      6  C   UNL     1      17.602  -6.693  24.040  0.00  0.00    +0.027 C 
ATOM      7  C   UNL     1      18.281  -4.444  23.316  0.00  0.00    +0.054 C 
ATOM      8  C   UNL     1      17.293  -5.577  23.050  0.00  0.00    +0.018 C 
ATOM      9  C   UNL     1      19.044  -7.197  23.853  0.00  0.00    +0.113 C 
ATOM     10  C   UNL     1      19.718  -4.944  23.072  0.00  0.00    +0.117 C 
ATOM     11  C   UNL     1      17.352  -6.177  25.462  0.00  0.00    +0.130 C 
ATOM     12  C   UNL     1      18.150  -3.926  24.735  0.00  0.00    +0.027 A 
ATOM     14  C   UNL     1      21.193  -6.280  24.658  0.00  0.00    +0.219 C 
ATOM     17  C   UNL     1      18.418  -2.641  25.015  0.00  0.00    +0.022 A 
ATOM     20  C   UNL     1      17.684  -4.386  27.101  0.00  0.00    +0.259 A 
ATOM     22  C   UNL     1      18.027  -2.949  27.387  0.00  0.00    +0.047 A 
ATOM     23  C   UNL     1      18.360  -2.150  26.362  0.00  0.00    +0.015 A 
ENDROOT
BRANCH  14  13
ATOM     13  C   UNL     1      22.194  -5.167  24.597  0.00  0.00    +0.075 C 
ATOM     15  C   UNL     1      22.014  -4.240  25.800  0.00  0.00    +0.013 C 
ATOM     16  C   UNL     1      23.604  -5.758  24.550  0.00  0.00    +0.013 C 
ATOM     18  C   UNL     1      23.081  -3.150  25.832  0.00  0.00    +0.001 C 
ATOM     19  C   UNL     1      24.670  -4.667  24.587  0.00  0.00    +0.001 C 
ATOM     21  C   UNL     1      24.488  -3.741  25.786  0.00  0.00    +0.000 C 
ENDBRANCH  14  13
BRANCH  22  24
ATOM     24  C   UNL     1      18.008  -2.419  28.762  0.00  0.00    -0.013 A 
ATOM     25  C   UNL     1      19.207  -2.164  29.427  0.00  0.00    +0.010 A 
ATOM     26  C   UNL     1      16.791  -2.173  29.399  0.00  0.00    +0.010 A 
ATOM     27  C   UNL     1      19.190  -1.661  30.728  0.00  0.00    +0.015 A 
ATOM     28  C   UNL     1      16.774  -1.671  30.699  0.00  0.00    +0.015 A 
ATOM     29  C   UNL     1      17.973  -1.415  31.364  0.00  0.00    +0.008 A 
BRANCH  29   1
ATOM      1  S   UNL     1      17.950  -0.775  33.027  0.00  0.00    -0.129 S 
ATOM     30  C   UNL     1      16.918   0.706  32.838  0.00  0.00    +0.090 C 
ENDBRANCH  29   1
ENDBRANCH  22  24
TORSDOF 3
ENDMDL
MODEL 9
REMARK VINA RESULT:      -5.8     27.202     28.819
REMARK  Name = 25388474
REMARK  4 active torsions:
REMARK  status: ('A' for Active; 'I' for Inactive)
REMARK    1  A    between atoms: S_1  and  C_29
REMARK    2  A    between atoms: S_1  and  C_30
REMARK    3  A    between atoms: C_13  and  C_14
REMARK    4  A    between atoms: C_22  and  C_24
REMARK                            x       y       z     vdW  Elec       q    Type
REMARK                         _______ _______ _______ _____ _____    ______ ____
ROOT
ATOM      2  O   UNL     1      -3.525 -10.297  14.361  0.00  0.00    -0.275 OA
ATOM      3  O   UNL     1      -7.668  -8.797  17.396  0.00  0.00    -0.267 OA
ATOM      4  N   UNL     1      -4.170 -12.018  15.782  0.00  0.00    -0.300 N 
ATOM      5  N   UNL     1      -6.736 -10.934  17.346  0.00  0.00    -0.311 N 
ATOM      6  C   UNL     1      -4.373 -11.427  18.201  0.00  0.00    +0.027 C 
ATOM      7  C   UNL     1      -5.741 -13.246  17.270  0.00  0.00    +0.054 C 
ATOM      8  C   UNL     1      -4.917 -12.821  18.484  0.00  0.00    +0.018 C 
ATOM      9  C   UNL     1      -3.488 -11.439  16.942  0.00  0.00    +0.113 C 
ATOM     10  C   UNL     1      -4.833 -13.308  16.026  0.00  0.00    +0.117 C 
ATOM     11  C   UNL     1      -5.550 -10.453  18.068  0.00  0.00    +0.130 C 
ATOM     12  C   UNL     1      -6.887 -12.285  17.024  0.00  0.00    +0.027 A 
ATOM     14  C   UNL     1      -4.087 -11.379  14.544  0.00  0.00    +0.219 C 
ATOM     17  C   UNL     1      -8.030 -12.722  16.472  0.00  0.00    +0.022 A 
ATOM     20  C   UNL     1      -7.751  -9.988  17.096  0.00  0.00    +0.259 A 
ATOM     22  C   UNL     1      -9.006 -10.503  16.444  0.00  0.00    +0.047 A 
ATOM     23  C   UNL     1      -9.101 -11.814  16.175  0.00  0.00    +0.015 A 
ENDROOT
BRANCH  14  13
ATOM     13  C   UNL     1      -4.734 -12.074  13.386  0.00  0.00    +0.075 C 
ATOM     15  C   UNL     1      -6.164 -11.561  13.205  0.00  0.00    +0.013 C 
ATOM     16  C   UNL     1      -3.894 -11.849  12.129  0.00  0.00    +0.013 C 
ATOM     18  C   UNL     1      -6.824 -12.169  11.971  0.00  0.00    +0.001 C 
ATOM     19  C   UNL     1      -4.558 -12.453  10.895  0.00  0.00    +0.001 C 
ATOM     21  C   UNL     1      -5.985 -11.944  10.716  0.00  0.00    +0.000 C 
ENDBRANCH  14  13
BRANCH  22  24
ATOM     24  C   UNL     1     -10.112  -9.593  16.096  0.00  0.00    -0.013 A 
ATOM     25  C   UNL     1     -11.093  -9.296  17.042  0.00  0.00    +0.010 A 
ATOM     26  C   UNL     1     -10.177  -9.029  14.822  0.00  0.00    +0.010 A 
ATOM     27  C   UNL     1     -12.140  -8.435  16.714  0.00  0.00    +0.015 A 
ATOM     28  C   UNL     1     -11.223  -8.167  14.494  0.00  0.00    +0.015 A 
ATOM     29  C   UNL     1     -12.205  -7.869  15.440  0.00  0.00    +0.008 A 
BRANCH  29   1
ATOM      1  S   UNL     1     -13.542  -6.770  15.020  0.00  0.00    -0.129 S 
ATOM     30  C   UNL     1     -12.664  -5.426  14.174  0.00  0.00    +0.090 C 
ENDBRANCH  29   1
ENDBRANCH  22  24
TORSDOF 3
ENDMDL
MODEL 10
REMARK VINA RESULT:      -5.8      2.932      5.299
REMARK  Name = 25388474
REMARK  4 active torsions:
REMARK  status: ('A' for Active; 'I' for Inactive)
REMARK    1  A    between atoms: S_1  and  C_29
REMARK    2  A    between atoms: S_1  and  C_30
REMARK    3  A    between atoms: C_13  and  C_14
REMARK    4  A    between atoms: C_22  and  C_24
REMARK                            x       y       z     vdW  Elec       q    Type
REMARK                         _______ _______ _______ _____ _____    ______ ____
ROOT
ATOM      2  O   UNL     1      13.518   7.774   2.292  0.00  0.00    -0.275 OA
ATOM      3  O   UNL     1       9.384  10.965   3.454  0.00  0.00    -0.267 OA
ATOM      4  N   UNL     1      12.826   7.456   4.487  0.00  0.00    -0.300 N 
ATOM      5  N   UNL     1      10.271   9.336   4.868  0.00  0.00    -0.311 N 
ATOM      6  C   UNL     1      12.616   9.519   5.880  0.00  0.00    +0.027 C 
ATOM      7  C   UNL     1      11.218   7.559   6.382  0.00  0.00    +0.054 C 
ATOM      8  C   UNL     1      12.040   8.680   7.014  0.00  0.00    +0.018 C 
ATOM      9  C   UNL     1      13.511   8.656   4.973  0.00  0.00    +0.113 C 
ATOM     10  C   UNL     1      12.134   6.670   5.519  0.00  0.00    +0.117 C 
ATOM     11  C   UNL     1      11.461  10.164   5.106  0.00  0.00    +0.130 C 
ATOM     12  C   UNL     1      10.093   8.119   5.532  0.00  0.00    +0.027 A 
ATOM     14  C   UNL     1      12.933   7.099   3.142  0.00  0.00    +0.219 C 
ATOM     17  C   UNL     1       8.946   7.437   5.392  0.00  0.00    +0.022 A 
ATOM     20  C   UNL     1       9.279   9.880   4.028  0.00  0.00    +0.259 A 
ATOM     22  C   UNL     1       8.018   9.074   3.864  0.00  0.00    +0.047 A 
ATOM     23  C   UNL     1       7.897   7.922   4.541  0.00  0.00    +0.015 A 
ENDROOT
BRANCH  14  13
ATOM     13  C   UNL     1      12.280   5.814   2.736  0.00  0.00    +0.075 C 
ATOM     15  C   UNL     1      10.929   6.101   2.078  0.00  0.00    +0.013 C 
ATOM     16  C   UNL     1      13.212   5.051   1.793  0.00  0.00    +0.013 C 
ATOM     18  C   UNL     1      10.278   4.824   1.555  0.00  0.00    +0.001 C 
ATOM     19  C   UNL     1      12.557   3.776   1.268  0.00  0.00    +0.001 C 
ATOM     21  C   UNL     1      11.208   4.063   0.615  0.00  0.00    +0.000 C 
ENDBRANCH  14  13
BRANCH  22  24
ATOM     24  C   UNL     1       6.934   9.527   2.974  0.00  0.00    -0.013 A 
ATOM     25  C   UNL     1       7.061   9.381   1.592  0.00  0.00    +0.010 A 
ATOM     26  C   UNL     1       5.782  10.100   3.512  0.00  0.00    +0.010 A 
ATOM     27  C   UNL     1       6.035   9.809   0.749  0.00  0.00    +0.015 A 
ATOM     28  C   UNL     1       4.757  10.527   2.670  0.00  0.00    +0.015 A 
ATOM     29  C   UNL     1       4.882  10.381   1.288  0.00  0.00    +0.008 A 
BRANCH  29   1
ATOM      1  S   UNL     1       3.573  10.928   0.212  0.00  0.00    -0.129 S 
ATOM     30  C   UNL     1       4.499  11.459  -1.256  0.00  0.00    +0.090 C 
ENDBRANCH  29   1
ENDBRANCH  22  24
TORSDOF 3
ENDMDL
