MODEL 1
REMARK VINA RESULT:      -7.6      0.000      0.000
REMARK  Name = 40777477
REMARK  7 active torsions:
REMARK  status: ('A' for Active; 'I' for Inactive)
REMARK    1  A    between atoms: N_4  and  C_18
REMARK    2  A    between atoms: C_7  and  C_13
REMARK    3  A    between atoms: C_8  and  C_12
REMARK    4  A    between atoms: C_12  and  C_14
REMARK    5  A    between atoms: C_13  and  C_15
REMARK    6  A    between atoms: C_17  and  C_20
REMARK    7  A    between atoms: C_18  and  C_19
REMARK                            x       y       z     vdW  Elec       q    Type
REMARK                         _______ _______ _______ _____ _____    ______ ____
ROOT
ATOM      3  N   UNL     1     -18.438   4.892  27.082  0.00  0.00    -0.316 NA
ATOM      7  C   UNL     1     -16.077   3.165  27.467  0.00  0.00    +0.004 C 
ATOM      8  C   UNL     1     -16.455   3.773  26.095  0.00  0.00    +0.012 C 
ATOM      9  C   UNL     1     -16.671   4.039  28.583  0.00  0.00    +0.019 C 
ATOM     10  C   UNL     1     -17.964   4.043  25.989  0.00  0.00    +0.085 C 
ATOM     11  C   UNL     1     -18.165   4.298  28.389  0.00  0.00    +0.081 C 
ATOM     30  H   UNL     1     -19.442   5.042  26.983  0.00  0.00    +0.122 HD
ENDROOT
BRANCH   8  12
ATOM     12  C   UNL     1     -15.976   2.928  24.913  0.00  0.00    +0.064 C 
BRANCH  12  14
ATOM      2  O   UNL     1     -15.670   4.704  21.796  0.00  0.00    -0.353 OA
ATOM      5  N   UNL     1     -16.323   3.825  22.651  0.00  0.00    -0.083 NA
ATOM     14  C   UNL     1     -15.568   3.790  23.753  0.00  0.00    +0.085 A 
ATOM     16  C   UNL     1     -14.438   4.619  23.652  0.00  0.00    +0.077 A 
ATOM     17  C   UNL     1     -14.548   5.170  22.403  0.00  0.00    +0.186 A 
BRANCH  17  20
ATOM      6  N   UNL     1     -14.483   7.035  20.982  0.00  0.00    -0.252 NA
ATOM     20  C   UNL     1     -13.765   6.094  21.635  0.00  0.00    +0.109 A 
ATOM     23  C   UNL     1     -12.383   6.002  21.589  0.00  0.00    +0.031 A 
ATOM     26  C   UNL     1     -11.694   6.936  20.824  0.00  0.00    +0.004 A 
ATOM     28  C   UNL     1     -13.778   7.926  20.248  0.00  0.00    +0.111 A 
ATOM     29  C   UNL     1     -12.398   7.919  20.137  0.00  0.00    +0.020 A 
ENDBRANCH  17  20
ENDBRANCH  12  14
ENDBRANCH   8  12
BRANCH   7  13
ATOM     13  C   UNL     1     -16.499   1.701  27.637  0.00  0.00    +0.099 C 
BRANCH  13  15
ATOM      1  O   UNL     1     -16.458   0.241  29.566  0.00  0.00    -0.276 OA
ATOM      4  N   UNL     1     -14.592   1.538  29.076  0.00  0.00    -0.311 N 
ATOM     15  C   UNL     1     -15.879   1.065  28.862  0.00  0.00    +0.214 C 
ATOM     31  H   UNL     1     -14.195   2.209  28.425  0.00  0.00    +0.149 HD
BRANCH   4  18
ATOM     18  C   UNL     1     -13.764   1.102  30.178  0.00  0.00    +0.139 C 
BRANCH  18  19
ATOM     19  C   UNL     1     -14.005   1.914  31.417  0.00  0.00    -0.030 A 
ATOM     21  C   UNL     1     -13.608   3.251  31.462  0.00  0.00    +0.005 A 
ATOM     22  C   UNL     1     -14.625   1.333  32.523  0.00  0.00    +0.005 A 
ATOM     24  C   UNL     1     -13.831   4.006  32.613  0.00  0.00    +0.000 A 
ATOM     25  C   UNL     1     -14.848   2.088  33.674  0.00  0.00    +0.000 A 
ATOM     27  C   UNL     1     -14.452   3.424  33.720  0.00  0.00    +0.000 A 
ENDBRANCH  18  19
ENDBRANCH   4  18
ENDBRANCH  13  15
ENDBRANCH   7  13
TORSDOF 7
ENDMDL
MODEL 2
REMARK VINA RESULT:      -7.4     27.976     32.319
REMARK  Name = 40777477
REMARK  7 active torsions:
REMARK  status: ('A' for Active; 'I' for Inactive)
REMARK    1  A    between atoms: N_4  and  C_18
REMARK    2  A    between atoms: C_7  and  C_13
REMARK    3  A    between atoms: C_8  and  C_12
REMARK    4  A    between atoms: C_12  and  C_14
REMARK    5  A    between atoms: C_13  and  C_15
REMARK    6  A    between atoms: C_17  and  C_20
REMARK    7  A    between atoms: C_18  and  C_19
REMARK                            x       y       z     vdW  Elec       q    Type
REMARK                         _______ _______ _______ _____ _____    ______ ____
ROOT
ATOM      3  N   UNL     1      12.060   8.980  22.814  0.00  0.00    -0.316 NA
ATOM      7  C   UNL     1      11.906   7.699  20.161  0.00  0.00    +0.004 C 
ATOM      8  C   UNL     1      13.242   8.166  20.787  0.00  0.00    +0.012 C 
ATOM      9  C   UNL     1      10.891   7.434  21.283  0.00  0.00    +0.019 C 
ATOM     10  C   UNL     1      13.031   9.326  21.775  0.00  0.00    +0.085 C 
ATOM     11  C   UNL     1      10.764   8.613  22.247  0.00  0.00    +0.081 C 
ATOM     30  H   UNL     1      11.941   9.775  23.442  0.00  0.00    +0.122 HD
ENDROOT
BRANCH   8  12
ATOM     12  C   UNL     1      14.298   8.534  19.744  0.00  0.00    +0.064 C 
BRANCH  12  14
ATOM      2  O   UNL     1      16.772   5.938  19.421  0.00  0.00    -0.353 OA
ATOM      5  N   UNL     1      15.554   6.523  19.097  0.00  0.00    -0.083 NA
ATOM     14  C   UNL     1      15.496   7.634  19.837  0.00  0.00    +0.085 A 
ATOM     16  C   UNL     1      16.638   7.802  20.638  0.00  0.00    +0.077 A 
ATOM     17  C   UNL     1      17.409   6.709  20.340  0.00  0.00    +0.186 A 
BRANCH  17  20
ATOM      6  N   UNL     1      19.227   5.270  19.986  0.00  0.00    -0.252 NA
ATOM     20  C   UNL     1      18.689   6.229  20.773  0.00  0.00    +0.109 A 
ATOM     23  C   UNL     1      19.298   6.730  21.912  0.00  0.00    +0.031 A 
ATOM     26  C   UNL     1      20.539   6.215  22.266  0.00  0.00    +0.004 A 
ATOM     28  C   UNL     1      20.435   4.793  20.363  0.00  0.00    +0.111 A 
ATOM     29  C   UNL     1      21.125   5.227  21.482  0.00  0.00    +0.020 A 
ENDBRANCH  17  20
ENDBRANCH  12  14
ENDBRANCH   8  12
BRANCH   7  13
ATOM     13  C   UNL     1      11.332   8.670  19.122  0.00  0.00    +0.099 C 
BRANCH  13  15
ATOM      1  O   UNL     1      11.938   7.336  17.197  0.00  0.00    -0.276 OA
ATOM      4  N   UNL     1      12.382   9.618  17.191  0.00  0.00    -0.311 N 
ATOM     15  C   UNL     1      11.905   8.437  17.742  0.00  0.00    +0.214 C 
ATOM     31  H   UNL     1      12.293  10.483  17.717  0.00  0.00    +0.149 HD
BRANCH   4  18
ATOM     18  C   UNL     1      12.986   9.690  15.880  0.00  0.00    +0.139 C 
BRANCH  18  19
ATOM     19  C   UNL     1      14.212  10.555  15.872  0.00  0.00    -0.030 A 
ATOM     21  C   UNL     1      14.514  11.345  16.980  0.00  0.00    +0.005 A 
ATOM     22  C   UNL     1      15.051  10.568  14.757  0.00  0.00    +0.005 A 
ATOM     24  C   UNL     1      15.654  12.150  16.974  0.00  0.00    +0.000 A 
ATOM     25  C   UNL     1      16.190  11.372  14.750  0.00  0.00    +0.000 A 
ATOM     27  C   UNL     1      16.492  12.162  15.858  0.00  0.00    +0.000 A 
ENDBRANCH  18  19
ENDBRANCH   4  18
ENDBRANCH  13  15
ENDBRANCH   7  13
TORSDOF 7
ENDMDL
MODEL 3
REMARK VINA RESULT:      -7.1      4.707      7.676
REMARK  Name = 40777477
REMARK  7 active torsions:
REMARK  status: ('A' for Active; 'I' for Inactive)
REMARK    1  A    between atoms: N_4  and  C_18
REMARK    2  A    between atoms: C_7  and  C_13
REMARK    3  A    between atoms: C_8  and  C_12
REMARK    4  A    between atoms: C_12  and  C_14
REMARK    5  A    between atoms: C_13  and  C_15
REMARK    6  A    between atoms: C_17  and  C_20
REMARK    7  A    between atoms: C_18  and  C_19
REMARK                            x       y       z     vdW  Elec       q    Type
REMARK                         _______ _______ _______ _____ _____    ______ ____
ROOT
ATOM      3  N   UNL     1     -13.354  10.317  31.627  0.00  0.00    -0.316 NA
ATOM      7  C   UNL     1     -13.753   7.549  32.567  0.00  0.00    +0.004 C 
ATOM      8  C   UNL     1     -14.824   8.320  31.758  0.00  0.00    +0.012 C 
ATOM      9  C   UNL     1     -12.369   8.142  32.261  0.00  0.00    +0.019 C 
ATOM     10  C   UNL     1     -14.698   9.840  31.954  0.00  0.00    +0.085 C 
ATOM     11  C   UNL     1     -12.331   9.659  32.438  0.00  0.00    +0.081 C 
ATOM     30  H   UNL     1     -13.307  11.325  31.778  0.00  0.00    +0.122 HD
ENDROOT
BRANCH   8  12
ATOM     12  C   UNL     1     -16.250   7.856  32.055  0.00  0.00    +0.064 C 
BRANCH  12  14
ATOM      2  O   UNL     1     -17.162   4.432  31.418  0.00  0.00    -0.353 OA
ATOM      5  N   UNL     1     -17.057   5.543  32.246  0.00  0.00    -0.083 NA
ATOM     14  C   UNL     1     -16.514   6.494  31.481  0.00  0.00    +0.085 A 
ATOM     16  C   UNL     1     -16.258   6.047  30.174  0.00  0.00    +0.077 A 
ATOM     17  C   UNL     1     -16.683   4.744  30.186  0.00  0.00    +0.186 A 
BRANCH  17  20
ATOM      6  N   UNL     1     -16.116   3.975  28.044  0.00  0.00    -0.252 NA
ATOM     20  C   UNL     1     -16.727   3.689  29.216  0.00  0.00    +0.109 A 
ATOM     23  C   UNL     1     -17.353   2.484  29.491  0.00  0.00    +0.031 A 
ATOM     26  C   UNL     1     -17.352   1.509  28.500  0.00  0.00    +0.004 A 
ATOM     28  C   UNL     1     -16.136   3.002  27.104  0.00  0.00    +0.111 A 
ATOM     29  C   UNL     1     -16.734   1.766  27.281  0.00  0.00    +0.020 A 
ENDBRANCH  17  20
ENDBRANCH  12  14
ENDBRANCH   8  12
BRANCH   7  13
ATOM     13  C   UNL     1     -14.014   7.522  34.077  0.00  0.00    +0.099 C 
BRANCH  13  15
ATOM      1  O   UNL     1     -13.570   5.863  35.781  0.00  0.00    -0.276 OA
ATOM      4  N   UNL     1     -14.386   5.185  33.713  0.00  0.00    -0.311 N 
ATOM     15  C   UNL     1     -13.956   6.119  34.644  0.00  0.00    +0.214 C 
ATOM     31  H   UNL     1     -14.702   5.501  32.801  0.00  0.00    +0.149 HD
BRANCH   4  18
ATOM     18  C   UNL     1     -14.434   3.766  33.984  0.00  0.00    +0.139 C 
BRANCH  18  19
ATOM     19  C   UNL     1     -14.273   2.950  32.735  0.00  0.00    -0.030 A 
ATOM     21  C   UNL     1     -14.830   1.674  32.659  0.00  0.00    +0.005 A 
ATOM     22  C   UNL     1     -13.565   3.467  31.649  0.00  0.00    +0.005 A 
ATOM     24  C   UNL     1     -14.680   0.914  31.499  0.00  0.00    +0.000 A 
ATOM     25  C   UNL     1     -13.415   2.708  30.489  0.00  0.00    +0.000 A 
ATOM     27  C   UNL     1     -13.973   1.432  30.413  0.00  0.00    +0.000 A 
ENDBRANCH  18  19
ENDBRANCH   4  18
ENDBRANCH  13  15
ENDBRANCH   7  13
TORSDOF 7
ENDMDL
MODEL 4
REMARK VINA RESULT:      -7.0     17.974     19.449
REMARK  Name = 40777477
REMARK  7 active torsions:
REMARK  status: ('A' for Active; 'I' for Inactive)
REMARK    1  A    between atoms: N_4  and  C_18
REMARK    2  A    between atoms: C_7  and  C_13
REMARK    3  A    between atoms: C_8  and  C_12
REMARK    4  A    between atoms: C_12  and  C_14
REMARK    5  A    between atoms: C_13  and  C_15
REMARK    6  A    between atoms: C_17  and  C_20
REMARK    7  A    between atoms: C_18  and  C_19
REMARK                            x       y       z     vdW  Elec       q    Type
REMARK                         _______ _______ _______ _____ _____    ______ ____
ROOT
ATOM      3  N   UNL     1     -11.396  -7.209  14.616  0.00  0.00    -0.316 NA
ATOM      7  C   UNL     1     -10.250  -8.670  16.909  0.00  0.00    +0.004 C 
ATOM      8  C   UNL     1      -9.689  -8.795  15.472  0.00  0.00    +0.012 C 
ATOM      9  C   UNL     1     -10.977  -7.324  17.048  0.00  0.00    +0.019 C 
ATOM     10  C   UNL     1     -10.768  -8.515  14.414  0.00  0.00    +0.085 C 
ATOM     11  C   UNL     1     -12.005  -7.098  15.940  0.00  0.00    +0.081 C 
ATOM     30  H   UNL     1     -12.110  -7.063  13.903  0.00  0.00    +0.122 HD
ENDROOT
BRANCH   8  12
ATOM     12  C   UNL     1      -9.014 -10.142  15.207  0.00  0.00    +0.064 C 
BRANCH  12  14
ATOM      2  O   UNL     1      -5.710  -9.520  16.497  0.00  0.00    -0.353 OA
ATOM      5  N   UNL     1      -7.090  -9.359  16.521  0.00  0.00    -0.083 NA
ATOM     14  C   UNL     1      -7.541 -10.081  15.491  0.00  0.00    +0.085 A 
ATOM     16  C   UNL     1      -6.502 -10.715  14.788  0.00  0.00    +0.077 A 
ATOM     17  C   UNL     1      -5.372 -10.329  15.460  0.00  0.00    +0.186 A 
BRANCH  17  20
ATOM      6  N   UNL     1      -3.594 -10.935  14.054  0.00  0.00    -0.252 NA
ATOM     20  C   UNL     1      -3.969 -10.589  15.306  0.00  0.00    +0.109 A 
ATOM     23  C   UNL     1      -3.096 -10.485  16.377  0.00  0.00    +0.031 A 
ATOM     26  C   UNL     1      -1.751 -10.751  16.148  0.00  0.00    +0.004 A 
ATOM     28  C   UNL     1      -2.278 -11.186  13.870  0.00  0.00    +0.111 A 
ATOM     29  C   UNL     1      -1.327 -11.109  14.873  0.00  0.00    +0.020 A 
ENDBRANCH  17  20
ENDBRANCH  12  14
ENDBRANCH   8  12
BRANCH   7  13
ATOM     13  C   UNL     1     -11.164  -9.830  17.323  0.00  0.00    +0.099 C 
BRANCH  13  15
ATOM      1  O   UNL     1     -11.308 -11.319  19.224  0.00  0.00    -0.276 OA
ATOM      4  N   UNL     1      -9.266 -10.347  18.688  0.00  0.00    -0.311 N 
ATOM     15  C   UNL     1     -10.621 -10.589  18.514  0.00  0.00    +0.214 C 
ATOM     31  H   UNL     1      -8.782  -9.738  18.034  0.00  0.00    +0.149 HD
BRANCH   4  18
ATOM     18  C   UNL     1      -8.488 -10.942  19.751  0.00  0.00    +0.139 C 
BRANCH  18  19
ATOM     19  C   UNL     1      -7.234 -11.586  19.236  0.00  0.00    -0.030 A 
ATOM     21  C   UNL     1      -7.308 -12.554  18.235  0.00  0.00    +0.005 A 
ATOM     22  C   UNL     1      -5.994 -11.217  19.759  0.00  0.00    +0.005 A 
ATOM     24  C   UNL     1      -6.143 -13.154  17.757  0.00  0.00    +0.000 A 
ATOM     25  C   UNL     1      -4.829 -11.816  19.281  0.00  0.00    +0.000 A 
ATOM     27  C   UNL     1      -4.903 -12.784  18.279  0.00  0.00    +0.000 A 
ENDBRANCH  18  19
ENDBRANCH   4  18
ENDBRANCH  13  15
ENDBRANCH   7  13
TORSDOF 7
ENDMDL
MODEL 5
REMARK VINA RESULT:      -6.9      2.238      4.090
REMARK  Name = 40777477
REMARK  7 active torsions:
REMARK  status: ('A' for Active; 'I' for Inactive)
REMARK    1  A    between atoms: N_4  and  C_18
REMARK    2  A    between atoms: C_7  and  C_13
REMARK    3  A    between atoms: C_8  and  C_12
REMARK    4  A    between atoms: C_12  and  C_14
REMARK    5  A    between atoms: C_13  and  C_15
REMARK    6  A    between atoms: C_17  and  C_20
REMARK    7  A    between atoms: C_18  and  C_19
REMARK                            x       y       z     vdW  Elec       q    Type
REMARK                         _______ _______ _______ _____ _____    ______ ____
ROOT
ATOM      3  N   UNL     1     -17.727   5.071  21.796  0.00  0.00    -0.316 NA
ATOM      7  C   UNL     1     -16.141   5.005  24.282  0.00  0.00    +0.004 C 
ATOM      8  C   UNL     1     -15.590   5.576  22.954  0.00  0.00    +0.012 C 
ATOM      9  C   UNL     1     -17.675   5.086  24.265  0.00  0.00    +0.019 C 
ATOM     10  C   UNL     1     -16.271   4.935  21.734  0.00  0.00    +0.085 C 
ATOM     11  C   UNL     1     -18.279   4.465  23.006  0.00  0.00    +0.081 C 
ATOM     30  H   UNL     1     -18.143   4.627  20.977  0.00  0.00    +0.122 HD
ENDROOT
BRANCH   8  12
ATOM     12  C   UNL     1     -14.069   5.466  22.839  0.00  0.00    +0.064 C 
BRANCH  12  14
ATOM      2  O   UNL     1     -13.273   8.486  21.047  0.00  0.00    -0.353 OA
ATOM      5  N   UNL     1     -14.004   7.770  21.988  0.00  0.00    -0.083 NA
ATOM     14  C   UNL     1     -13.509   6.531  21.941  0.00  0.00    +0.085 A 
ATOM     16  C   UNL     1     -12.472   6.405  20.999  0.00  0.00    +0.077 A 
ATOM     17  C   UNL     1     -12.364   7.662  20.465  0.00  0.00    +0.186 A 
BRANCH  17  20
ATOM      6  N   UNL     1     -11.377   7.528  18.342  0.00  0.00    -0.252 NA
ATOM     20  C   UNL     1     -11.530   8.264  19.465  0.00  0.00    +0.109 A 
ATOM     23  C   UNL     1     -10.944   9.503  19.668  0.00  0.00    +0.031 A 
ATOM     26  C   UNL     1     -10.150  10.021  18.651  0.00  0.00    +0.004 A 
ATOM     28  C   UNL     1     -10.598   8.065  17.375  0.00  0.00    +0.111 A 
ATOM     29  C   UNL     1      -9.968   9.294  17.480  0.00  0.00    +0.020 A 
ENDBRANCH  17  20
ENDBRANCH  12  14
ENDBRANCH   8  12
BRANCH   7  13
ATOM     13  C   UNL     1     -15.673   3.577  24.589  0.00  0.00    +0.099 C 
BRANCH  13  15
ATOM      1  O   UNL     1     -17.163   2.052  25.731  0.00  0.00    -0.276 OA
ATOM      4  N   UNL     1     -16.010   3.653  26.958  0.00  0.00    -0.311 N 
ATOM     15  C   UNL     1     -16.374   2.991  25.795  0.00  0.00    +0.214 C 
ATOM     31  H   UNL     1     -15.334   4.411  26.908  0.00  0.00    +0.149 HD
BRANCH   4  18
ATOM     18  C   UNL     1     -16.529   3.304  28.261  0.00  0.00    +0.139 C 
BRANCH  18  19
ATOM     19  C   UNL     1     -15.567   2.457  29.040  0.00  0.00    -0.030 A 
ATOM     21  C   UNL     1     -15.691   1.068  29.026  0.00  0.00    +0.005 A 
ATOM     22  C   UNL     1     -14.547   3.058  29.780  0.00  0.00    +0.005 A 
ATOM     24  C   UNL     1     -14.797   0.280  29.752  0.00  0.00    +0.000 A 
ATOM     25  C   UNL     1     -13.653   2.271  30.504  0.00  0.00    +0.000 A 
ATOM     27  C   UNL     1     -13.777   0.882  30.490  0.00  0.00    +0.000 A 
ENDBRANCH  18  19
ENDBRANCH   4  18
ENDBRANCH  13  15
ENDBRANCH   7  13
TORSDOF 7
ENDMDL
MODEL 6
REMARK VINA RESULT:      -6.9     27.876     31.585
REMARK  Name = 40777477
REMARK  7 active torsions:
REMARK  status: ('A' for Active; 'I' for Inactive)
REMARK    1  A    between atoms: N_4  and  C_18
REMARK    2  A    between atoms: C_7  and  C_13
REMARK    3  A    between atoms: C_8  and  C_12
REMARK    4  A    between atoms: C_12  and  C_14
REMARK    5  A    between atoms: C_13  and  C_15
REMARK    6  A    between atoms: C_17  and  C_20
REMARK    7  A    between atoms: C_18  and  C_19
REMARK                            x       y       z     vdW  Elec       q    Type
REMARK                         _______ _______ _______ _____ _____    ______ ____
ROOT
ATOM      3  N   UNL     1      14.076   7.469  17.684  0.00  0.00    -0.316 NA
ATOM      7  C   UNL     1      12.959   8.501  20.212  0.00  0.00    +0.004 C 
ATOM      8  C   UNL     1      14.450   8.124  20.049  0.00  0.00    +0.012 C 
ATOM      9  C   UNL     1      12.374   8.842  18.833  0.00  0.00    +0.019 C 
ATOM     10  C   UNL     1      14.651   7.054  18.964  0.00  0.00    +0.085 C 
ATOM     11  C   UNL     1      12.646   7.752  17.797  0.00  0.00    +0.081 C 
ATOM     30  H   UNL     1      14.220   6.732  16.994  0.00  0.00    +0.122 HD
ENDROOT
BRANCH   8  12
ATOM     12  C   UNL     1      15.106   7.689  21.361  0.00  0.00    +0.064 C 
BRANCH  12  14
ATOM      2  O   UNL     1      18.609   8.489  21.129  0.00  0.00    -0.353 OA
ATOM      5  N   UNL     1      17.270   8.846  21.237  0.00  0.00    -0.083 NA
ATOM     14  C   UNL     1      16.603   7.689  21.251  0.00  0.00    +0.085 A 
ATOM     16  C   UNL     1      17.459   6.578  21.158  0.00  0.00    +0.077 A 
ATOM     17  C   UNL     1      18.709   7.136  21.083  0.00  0.00    +0.186 A 
BRANCH  17  20
ATOM      6  N   UNL     1      21.016   7.486  21.312  0.00  0.00    -0.252 NA
ATOM     20  C   UNL     1      20.040   6.615  20.971  0.00  0.00    +0.109 A 
ATOM     23  C   UNL     1      20.273   5.317  20.544  0.00  0.00    +0.031 A 
ATOM     26  C   UNL     1      21.591   4.885  20.464  0.00  0.00    +0.004 A 
ATOM     28  C   UNL     1      22.286   7.030  21.220  0.00  0.00    +0.111 A 
ATOM     29  C   UNL     1      22.623   5.752  20.806  0.00  0.00    +0.020 A 
ENDBRANCH  17  20
ENDBRANCH  12  14
ENDBRANCH   8  12
BRANCH   7  13
ATOM     13  C   UNL     1      12.117   7.426  20.912  0.00  0.00    +0.099 C 
BRANCH  13  15
ATOM      1  O   UNL     1      10.166   7.520  22.339  0.00  0.00    -0.276 OA
ATOM      4  N   UNL     1      11.821   9.136  22.561  0.00  0.00    -0.311 N 
ATOM     15  C   UNL     1      11.244   8.004  22.005  0.00  0.00    +0.214 C 
ATOM     31  H   UNL     1      12.728   9.448  22.226  0.00  0.00    +0.149 HD
BRANCH   4  18
ATOM     18  C   UNL     1      11.204   9.894  23.627  0.00  0.00    +0.139 C 
BRANCH  18  19
ATOM     19  C   UNL     1      11.009  11.334  23.252  0.00  0.00    -0.030 A 
ATOM     21  C   UNL     1      11.293  11.761  21.955  0.00  0.00    +0.005 A 
ATOM     22  C   UNL     1      10.542  12.245  24.200  0.00  0.00    +0.005 A 
ATOM     24  C   UNL     1      11.112  13.100  21.606  0.00  0.00    +0.000 A 
ATOM     25  C   UNL     1      10.361  13.583  23.852  0.00  0.00    +0.000 A 
ATOM     27  C   UNL     1      10.645  14.011  22.555  0.00  0.00    +0.000 A 
ENDBRANCH  18  19
ENDBRANCH   4  18
ENDBRANCH  13  15
ENDBRANCH   7  13
TORSDOF 7
ENDMDL
MODEL 7
REMARK VINA RESULT:      -6.8     27.289     29.943
REMARK  Name = 40777477
REMARK  7 active torsions:
REMARK  status: ('A' for Active; 'I' for Inactive)
REMARK    1  A    between atoms: N_4  and  C_18
REMARK    2  A    between atoms: C_7  and  C_13
REMARK    3  A    between atoms: C_8  and  C_12
REMARK    4  A    between atoms: C_12  and  C_14
REMARK    5  A    between atoms: C_13  and  C_15
REMARK    6  A    between atoms: C_17  and  C_20
REMARK    7  A    between atoms: C_18  and  C_19
REMARK                            x       y       z     vdW  Elec       q    Type
REMARK                         _______ _______ _______ _____ _____    ______ ____
ROOT
ATOM      3  N   UNL     1      13.613   7.850  16.799  0.00  0.00    -0.316 NA
ATOM      7  C   UNL     1      12.612   8.567  19.480  0.00  0.00    +0.004 C 
ATOM      8  C   UNL     1      14.101   8.696  19.082  0.00  0.00    +0.012 C 
ATOM      9  C   UNL     1      11.745   8.634  18.212  0.00  0.00    +0.019 C 
ATOM     10  C   UNL     1      14.480   7.705  17.969  0.00  0.00    +0.085 C 
ATOM     11  C   UNL     1      12.205   7.651  17.137  0.00  0.00    +0.081 C 
ATOM     30  H   UNL     1      13.889   7.173  16.088  0.00  0.00    +0.122 HD
ENDROOT
BRANCH   8  12
ATOM     12  C   UNL     1      15.054   8.560  20.270  0.00  0.00    +0.064 C 
BRANCH  12  14
ATOM      2  O   UNL     1      15.389  11.888  21.602  0.00  0.00    -0.353 OA
ATOM      5  N   UNL     1      15.507  10.955  20.578  0.00  0.00    -0.083 NA
ATOM     14  C   UNL     1      15.071   9.807  21.105  0.00  0.00    +0.085 A 
ATOM     16  C   UNL     1      14.668   9.953  22.443  0.00  0.00    +0.077 A 
ATOM     17  C   UNL     1      14.888  11.279  22.707  0.00  0.00    +0.186 A 
BRANCH  17  20
ATOM      6  N   UNL     1      14.489  11.460  25.011  0.00  0.00    -0.252 NA
ATOM     20  C   UNL     1      14.710  12.122  23.854  0.00  0.00    +0.109 A 
ATOM     23  C   UNL     1      14.765  13.503  23.748  0.00  0.00    +0.031 A 
ATOM     26  C   UNL     1      14.584  14.251  24.905  0.00  0.00    +0.004 A 
ATOM     28  C   UNL     1      14.317  12.222  26.115  0.00  0.00    +0.111 A 
ATOM     29  C   UNL     1      14.354  13.606  26.115  0.00  0.00    +0.020 A 
ENDBRANCH  17  20
ENDBRANCH  12  14
ENDBRANCH   8  12
BRANCH   7  13
ATOM     13  C   UNL     1      12.292   7.307  20.293  0.00  0.00    +0.099 C 
BRANCH  13  15
ATOM      1  O   UNL     1      10.522   6.811  21.867  0.00  0.00    -0.276 OA
ATOM      4  N   UNL     1      11.628   8.851  21.998  0.00  0.00    -0.311 N 
ATOM     15  C   UNL     1      11.375   7.597  21.462  0.00  0.00    +0.214 C 
ATOM     31  H   UNL     1      12.370   9.421  21.601  0.00  0.00    +0.149 HD
BRANCH   4  18
ATOM     18  C   UNL     1      10.899   9.390  23.124  0.00  0.00    +0.139 C 
BRANCH  18  19
ATOM     19  C   UNL     1      11.001  10.886  23.195  0.00  0.00    -0.030 A 
ATOM     21  C   UNL     1      11.234  11.625  22.036  0.00  0.00    +0.005 A 
ATOM     22  C   UNL     1      10.862  11.537  24.422  0.00  0.00    +0.005 A 
ATOM     24  C   UNL     1      11.329  13.015  22.102  0.00  0.00    +0.000 A 
ATOM     25  C   UNL     1      10.957  12.927  24.488  0.00  0.00    +0.000 A 
ATOM     27  C   UNL     1      11.190  13.666  23.328  0.00  0.00    +0.000 A 
ENDBRANCH  18  19
ENDBRANCH   4  18
ENDBRANCH  13  15
ENDBRANCH   7  13
TORSDOF 7
ENDMDL
MODEL 8
REMARK VINA RESULT:      -6.5     20.103     22.143
REMARK  Name = 40777477
REMARK  7 active torsions:
REMARK  status: ('A' for Active; 'I' for Inactive)
REMARK    1  A    between atoms: N_4  and  C_18
REMARK    2  A    between atoms: C_7  and  C_13
REMARK    3  A    between atoms: C_8  and  C_12
REMARK    4  A    between atoms: C_12  and  C_14
REMARK    5  A    between atoms: C_13  and  C_15
REMARK    6  A    between atoms: C_17  and  C_20
REMARK    7  A    between atoms: C_18  and  C_19
REMARK                            x       y       z     vdW  Elec       q    Type
REMARK                         _______ _______ _______ _____ _____    ______ ____
ROOT
ATOM      3  N   UNL     1      -7.449 -12.192  20.075  0.00  0.00    -0.316 NA
ATOM      7  C   UNL     1      -5.937 -10.904  17.892  0.00  0.00    +0.004 C 
ATOM      8  C   UNL     1      -7.093 -11.901  17.635  0.00  0.00    +0.012 C 
ATOM      9  C   UNL     1      -6.125 -10.265  19.277  0.00  0.00    +0.019 C 
ATOM     10  C   UNL     1      -7.262 -12.888  18.801  0.00  0.00    +0.085 C 
ATOM     11  C   UNL     1      -6.328 -11.304  20.378  0.00  0.00    +0.081 C 
ATOM     30  H   UNL     1      -7.548 -12.878  20.823  0.00  0.00    +0.122 HD
ENDROOT
BRANCH   8  12
ATOM     12  C   UNL     1      -6.953 -12.653  16.310  0.00  0.00    +0.064 C 
BRANCH  12  14
ATOM      2  O   UNL     1      -7.283  -9.950  13.955  0.00  0.00    -0.353 OA
ATOM      5  N   UNL     1      -7.591 -10.580  15.154  0.00  0.00    -0.083 NA
ATOM     14  C   UNL     1      -6.871 -11.705  15.149  0.00  0.00    +0.085 A 
ATOM     16  C   UNL     1      -6.096 -11.838  13.983  0.00  0.00    +0.077 A 
ATOM     17  C   UNL     1      -6.392 -10.708  13.266  0.00  0.00    +0.186 A 
BRANCH  17  20
ATOM      6  N   UNL     1      -5.995 -11.076  10.984  0.00  0.00    -0.252 NA
ATOM     20  C   UNL     1      -5.978 -10.182  11.997  0.00  0.00    +0.109 A 
ATOM     23  C   UNL     1      -5.596  -8.858  11.857  0.00  0.00    +0.031 A 
ATOM     26  C   UNL     1      -5.209  -8.422  10.596  0.00  0.00    +0.004 A 
ATOM     28  C   UNL     1      -5.612 -10.616   9.771  0.00  0.00    +0.111 A 
ATOM     29  C   UNL     1      -5.213  -9.313   9.528  0.00  0.00    +0.020 A 
ENDBRANCH  17  20
ENDBRANCH  12  14
ENDBRANCH   8  12
BRANCH   7  13
ATOM     13  C   UNL     1      -4.541 -11.523  17.762  0.00  0.00    +0.099 C 
BRANCH  13  15
ATOM      1  O   UNL     1      -4.109  -9.890  16.029  0.00  0.00    -0.276 OA
ATOM      4  N   UNL     1      -2.453 -11.422  16.593  0.00  0.00    -0.311 N 
ATOM     15  C   UNL     1      -3.707 -10.838  16.701  0.00  0.00    +0.214 C 
ATOM     31  H   UNL     1      -2.210 -12.193  17.208  0.00  0.00    +0.149 HD
BRANCH   4  18
ATOM     18  C   UNL     1      -1.450 -10.969  15.657  0.00  0.00    +0.139 C 
BRANCH  18  19
ATOM     19  C   UNL     1      -1.846 -11.239  14.234  0.00  0.00    -0.030 A 
ATOM     21  C   UNL     1      -2.226 -12.525  13.849  0.00  0.00    +0.005 A 
ATOM     22  C   UNL     1      -1.834 -10.205  13.297  0.00  0.00    +0.005 A 
ATOM     24  C   UNL     1      -2.594 -12.777  12.527  0.00  0.00    +0.000 A 
ATOM     25  C   UNL     1      -2.202 -10.457  11.976  0.00  0.00    +0.000 A 
ATOM     27  C   UNL     1      -2.582 -11.742  11.591  0.00  0.00    +0.000 A 
ENDBRANCH  18  19
ENDBRANCH   4  18
ENDBRANCH  13  15
ENDBRANCH   7  13
TORSDOF 7
ENDMDL
MODEL 9
REMARK VINA RESULT:      -6.5     17.136     19.651
REMARK  Name = 40777477
REMARK  7 active torsions:
REMARK  status: ('A' for Active; 'I' for Inactive)
REMARK    1  A    between atoms: N_4  and  C_18
REMARK    2  A    between atoms: C_7  and  C_13
REMARK    3  A    between atoms: C_8  and  C_12
REMARK    4  A    between atoms: C_12  and  C_14
REMARK    5  A    between atoms: C_13  and  C_15
REMARK    6  A    between atoms: C_17  and  C_20
REMARK    7  A    between atoms: C_18  and  C_19
REMARK                            x       y       z     vdW  Elec       q    Type
REMARK                         _______ _______ _______ _____ _____    ______ ____
ROOT
ATOM      3  N   UNL     1      -3.466 -11.829  18.145  0.00  0.00    -0.316 NA
ATOM      7  C   UNL     1      -6.000 -11.010  16.876  0.00  0.00    +0.004 C 
ATOM      8  C   UNL     1      -5.948 -11.835  18.184  0.00  0.00    +0.012 C 
ATOM      9  C   UNL     1      -4.692 -10.217  16.730  0.00  0.00    +0.019 C 
ATOM     10  C   UNL     1      -4.658 -12.666  18.281  0.00  0.00    +0.085 C 
ATOM     11  C   UNL     1      -3.454 -11.101  16.877  0.00  0.00    +0.081 C 
ATOM     30  H   UNL     1      -2.633 -12.414  18.205  0.00  0.00    +0.122 HD
ENDROOT
BRANCH   8  12
ATOM     12  C   UNL     1      -7.176 -12.725  18.382  0.00  0.00    +0.064 C 
BRANCH  12  14
ATOM      2  O   UNL     1      -9.457 -10.574  20.152  0.00  0.00    -0.353 OA
ATOM      5  N   UNL     1      -8.205 -11.143  19.956  0.00  0.00    -0.083 NA
ATOM     14  C   UNL     1      -8.348 -11.936  18.891  0.00  0.00    +0.085 A 
ATOM     16  C   UNL     1      -9.656 -11.908  18.376  0.00  0.00    +0.077 A 
ATOM     17  C   UNL     1     -10.313 -11.038  19.205  0.00  0.00    +0.186 A 
BRANCH  17  20
ATOM      6  N   UNL     1     -12.104 -10.316  20.536  0.00  0.00    -0.252 NA
ATOM     20  C   UNL     1     -11.654 -10.535  19.280  0.00  0.00    +0.109 A 
ATOM     23  C   UNL     1     -12.401 -10.302  18.137  0.00  0.00    +0.031 A 
ATOM     26  C   UNL     1     -13.693  -9.813  18.292  0.00  0.00    +0.004 A 
ATOM     28  C   UNL     1     -13.365  -9.840  20.647  0.00  0.00    +0.111 A 
ATOM     29  C   UNL     1     -14.191  -9.576  19.567  0.00  0.00    +0.020 A 
ENDBRANCH  17  20
ENDBRANCH  12  14
ENDBRANCH   8  12
BRANCH   7  13
ATOM     13  C   UNL     1      -6.274 -11.848  15.622  0.00  0.00    +0.099 C 
BRANCH  13  15
ATOM      1  O   UNL     1      -6.935 -10.793  13.547  0.00  0.00    -0.276 OA
ATOM      4  N   UNL     1      -8.492 -11.022  15.258  0.00  0.00    -0.311 N 
ATOM     15  C   UNL     1      -7.240 -11.166  14.677  0.00  0.00    +0.214 C 
ATOM     31  H   UNL     1      -8.649 -11.380  16.196  0.00  0.00    +0.149 HD
BRANCH   4  18
ATOM     18  C   UNL     1      -9.609 -10.403  14.582  0.00  0.00    +0.139 C 
BRANCH  18  19
ATOM     19  C   UNL     1     -10.141  -9.222  15.341  0.00  0.00    -0.030 A 
ATOM     21  C   UNL     1      -9.454  -8.744  16.457  0.00  0.00    +0.005 A 
ATOM     22  C   UNL     1     -11.323  -8.603  14.932  0.00  0.00    +0.005 A 
ATOM     24  C   UNL     1      -9.948  -7.647  17.164  0.00  0.00    +0.000 A 
ATOM     25  C   UNL     1     -11.817  -7.507  15.638  0.00  0.00    +0.000 A 
ATOM     27  C   UNL     1     -11.130  -7.028  16.753  0.00  0.00    +0.000 A 
ENDBRANCH  18  19
ENDBRANCH   4  18
ENDBRANCH  13  15
ENDBRANCH   7  13
TORSDOF 7
ENDMDL
MODEL 10
REMARK VINA RESULT:      -6.5     18.755     20.347
REMARK  Name = 40777477
REMARK  7 active torsions:
REMARK  status: ('A' for Active; 'I' for Inactive)
REMARK    1  A    between atoms: N_4  and  C_18
REMARK    2  A    between atoms: C_7  and  C_13
REMARK    3  A    between atoms: C_8  and  C_12
REMARK    4  A    between atoms: C_12  and  C_14
REMARK    5  A    between atoms: C_13  and  C_15
REMARK    6  A    between atoms: C_17  and  C_20
REMARK    7  A    between atoms: C_18  and  C_19
REMARK                            x       y       z     vdW  Elec       q    Type
REMARK                         _______ _______ _______ _____ _____    ______ ____
ROOT
ATOM      3  N   UNL     1     -11.278  -8.241  14.118  0.00  0.00    -0.316 NA
ATOM      7  C   UNL     1      -9.306  -8.603  16.283  0.00  0.00    +0.004 C 
ATOM      8  C   UNL     1      -9.246  -9.396  14.956  0.00  0.00    +0.012 C 
ATOM      9  C   UNL     1     -10.065  -7.287  16.048  0.00  0.00    +0.019 C 
ATOM     10  C   UNL     1     -10.637  -9.541  14.317  0.00  0.00    +0.085 C 
ATOM     11  C   UNL     1     -11.419  -7.507  15.374  0.00  0.00    +0.081 C 
ATOM     30  H   UNL     1     -12.199  -8.378  13.703  0.00  0.00    +0.122 HD
ENDROOT
BRANCH   8  12
ATOM     12  C   UNL     1      -8.577 -10.763  15.104  0.00  0.00    +0.064 C 
BRANCH  12  14
ATOM      2  O   UNL     1      -5.988 -11.877  12.864  0.00  0.00    -0.353 OA
ATOM      5  N   UNL     1      -7.100 -12.101  13.666  0.00  0.00    -0.083 NA
ATOM     14  C   UNL     1      -7.407 -10.905  14.175  0.00  0.00    +0.085 A 
ATOM     16  C   UNL     1      -6.533  -9.896  13.732  0.00  0.00    +0.077 A 
ATOM     17  C   UNL     1      -5.659 -10.560  12.911  0.00  0.00    +0.186 A 
BRANCH  17  20
ATOM      6  N   UNL     1      -4.816  -9.428  11.039  0.00  0.00    -0.252 NA
ATOM     20  C   UNL     1      -4.522 -10.175  12.126  0.00  0.00    +0.109 A 
ATOM     23  C   UNL     1      -3.239 -10.556  12.482  0.00  0.00    +0.031 A 
ATOM     26  C   UNL     1      -2.189 -10.142  11.671  0.00  0.00    +0.004 A 
ATOM     28  C   UNL     1      -3.769  -9.044  10.274  0.00  0.00    +0.111 A 
ATOM     29  C   UNL     1      -2.451  -9.372  10.544  0.00  0.00    +0.020 A 
ENDBRANCH  17  20
ENDBRANCH  12  14
ENDBRANCH   8  12
BRANCH   7  13
ATOM     13  C   UNL     1      -9.920  -9.386  17.450  0.00  0.00    +0.099 C 
BRANCH  13  15
ATOM      1  O   UNL     1      -9.175 -11.349  18.652  0.00  0.00    -0.276 OA
ATOM      4  N   UNL     1      -7.647  -9.671  18.148  0.00  0.00    -0.311 N 
ATOM     15  C   UNL     1      -8.903 -10.261  18.150  0.00  0.00    +0.214 C 
ATOM     31  H   UNL     1      -7.521  -8.773  17.690  0.00  0.00    +0.149 HD
BRANCH   4  18
ATOM     18  C   UNL     1      -6.486 -10.285  18.750  0.00  0.00    +0.139 C 
BRANCH  18  19
ATOM     19  C   UNL     1      -5.602 -10.937  17.727  0.00  0.00    -0.030 A 
ATOM     21  C   UNL     1      -4.600 -10.198  17.099  0.00  0.00    +0.005 A 
ATOM     22  C   UNL     1      -5.781 -12.283  17.405  0.00  0.00    +0.005 A 
ATOM     24  C   UNL     1      -3.778 -10.803  16.147  0.00  0.00    +0.000 A 
ATOM     25  C   UNL     1      -4.959 -12.889  16.455  0.00  0.00    +0.000 A 
ATOM     27  C   UNL     1      -3.958 -12.149  15.826  0.00  0.00    +0.000 A 
ENDBRANCH  18  19
ENDBRANCH   4  18
ENDBRANCH  13  15
ENDBRANCH   7  13
TORSDOF 7
ENDMDL
