MODEL 1
REMARK VINA RESULT:      -7.5      0.000      0.000
REMARK  Name = 26742824
REMARK  6 active torsions:
REMARK  status: ('A' for Active; 'I' for Inactive)
REMARK    1  A    between atoms: O_5  and  C_31
REMARK    2  A    between atoms: O_5  and  C_33
REMARK    3  A    between atoms: N_7  and  C_18
REMARK    4  A    between atoms: C_17  and  C_19
REMARK    5  A    between atoms: C_18  and  C_20
REMARK    6  A    between atoms: C_19  and  C_21
REMARK                            x       y       z     vdW  Elec       q    Type
REMARK                         _______ _______ _______ _____ _____    ______ ____
ROOT
ATOM      1  O   UNL     1      -1.634 -10.200  16.175  0.00  0.00    -0.276 OA
ATOM      2  O   UNL     1      -3.777  -8.630   9.698  0.00  0.00    -0.275 OA
ATOM      6  N   UNL     1      -3.155 -10.623  10.719  0.00  0.00    -0.301 N 
ATOM      7  N   UNL     1      -3.726 -10.981  15.547  0.00  0.00    -0.297 N 
ATOM      8  C   UNL     1      -3.293 -12.258  12.590  0.00  0.00    +0.011 C 
ATOM      9  C   UNL     1      -1.926 -11.735  13.092  0.00  0.00    +0.004 C 
ATOM     10  C   UNL     1      -1.687 -10.274  12.667  0.00  0.00    +0.023 C 
ATOM     11  C   UNL     1      -3.407 -12.026  11.069  0.00  0.00    +0.111 C 
ATOM     12  C   UNL     1      -4.523 -11.669  13.307  0.00  0.00    +0.024 C 
ATOM     13  C   UNL     1      -1.675 -11.972  14.587  0.00  0.00    +0.100 C 
ATOM     14  C   UNL     1      -1.859 -10.106  11.160  0.00  0.00    +0.108 C 
ATOM     15  C   UNL     1      -4.540 -11.941  14.806  0.00  0.00    +0.108 C 
ATOM     16  C   UNL     1      -2.336 -10.968  15.514  0.00  0.00    +0.216 C 
ATOM     17  C   UNL     1      -4.023  -9.800  10.002  0.00  0.00    +0.220 C 
ENDROOT
BRANCH   7  18
ATOM     18  C   UNL     1      -4.445  -9.996  16.346  0.00  0.00    +0.143 C 
BRANCH  18  20
ATOM      3  O   UNL     1      -8.720 -11.232  18.502  0.00  0.00    -0.453 OA
ATOM      4  O   UNL     1      -7.613 -12.361  20.321  0.00  0.00    -0.453 OA
ATOM     20  C   UNL     1      -5.262 -10.639  17.428  0.00  0.00    -0.026 A 
ATOM     22  C   UNL     1      -6.657 -10.580  17.372  0.00  0.00    +0.054 A 
ATOM     23  C   UNL     1      -4.616 -11.298  18.489  0.00  0.00    +0.009 A 
ATOM     24  C   UNL     1      -7.365 -11.188  18.389  0.00  0.00    +0.167 A 
ATOM     27  C   UNL     1      -5.357 -11.905  19.506  0.00  0.00    +0.050 A 
ATOM     28  C   UNL     1      -6.732 -11.832  19.427  0.00  0.00    +0.166 A 
ATOM     32  C   UNL     1      -8.870 -11.976  19.728  0.00  0.00    +0.466 C 
ENDBRANCH  18  20
ENDBRANCH   7  18
BRANCH  17  19
ATOM     19  C   UNL     1      -5.340 -10.407   9.588  0.00  0.00    +0.131 C 
BRANCH  19  21
ATOM     21  C   UNL     1      -5.343 -10.712   8.122  0.00  0.00    -0.038 A 
ATOM     25  C   UNL     1      -6.168  -9.988   7.260  0.00  0.00    +0.007 A 
ATOM     26  C   UNL     1      -4.520 -11.718   7.618  0.00  0.00    +0.007 A 
ATOM     29  C   UNL     1      -6.168 -10.271   5.895  0.00  0.00    +0.046 A 
ATOM     30  C   UNL     1      -4.521 -12.001   6.253  0.00  0.00    +0.046 A 
ATOM     31  C   UNL     1      -5.345 -11.277   5.390  0.00  0.00    +0.120 A 
BRANCH  31   5
ATOM      5  O   UNL     1      -5.344 -11.552   4.057  0.00  0.00    -0.495 OA
ATOM     33  C   UNL     1      -4.475 -12.593   3.611  0.00  0.00    +0.277 C 
ENDBRANCH  31   5
ENDBRANCH  19  21
ENDBRANCH  17  19
TORSDOF 5
ENDMDL
MODEL 2
REMARK VINA RESULT:      -7.5     27.168     30.670
REMARK  Name = 26742824
REMARK  6 active torsions:
REMARK  status: ('A' for Active; 'I' for Inactive)
REMARK    1  A    between atoms: O_5  and  C_31
REMARK    2  A    between atoms: O_5  and  C_33
REMARK    3  A    between atoms: N_7  and  C_18
REMARK    4  A    between atoms: C_17  and  C_19
REMARK    5  A    between atoms: C_18  and  C_20
REMARK    6  A    between atoms: C_19  and  C_21
REMARK                            x       y       z     vdW  Elec       q    Type
REMARK                         _______ _______ _______ _____ _____    ______ ____
ROOT
ATOM      1  O   UNL     1      10.766   8.440  19.257  0.00  0.00    -0.276 OA
ATOM      2  O   UNL     1      16.870  10.361  22.096  0.00  0.00    -0.275 OA
ATOM      6  N   UNL     1      15.950   8.292  21.573  0.00  0.00    -0.301 N 
ATOM      7  N   UNL     1      12.669   8.104  17.973  0.00  0.00    -0.297 N 
ATOM      8  C   UNL     1      14.816   6.738  19.995  0.00  0.00    +0.011 C 
ATOM      9  C   UNL     1      13.501   6.971  20.776  0.00  0.00    +0.004 C 
ATOM     10  C   UNL     1      13.489   8.347  21.469  0.00  0.00    +0.023 C 
ATOM     11  C   UNL     1      16.020   6.975  20.929  0.00  0.00    +0.111 C 
ATOM     12  C   UNL     1      14.972   7.576  18.711  0.00  0.00    +0.024 C 
ATOM     13  C   UNL     1      12.230   6.701  19.960  0.00  0.00    +0.100 C 
ATOM     14  C   UNL     1      14.727   8.534  22.341  0.00  0.00    +0.108 C 
ATOM     15  C   UNL     1      13.872   7.326  17.687  0.00  0.00    +0.108 C 
ATOM     16  C   UNL     1      11.813   7.828  19.033  0.00  0.00    +0.216 C 
ATOM     17  C   UNL     1      16.943   9.270  21.523  0.00  0.00    +0.220 C 
ENDROOT
BRANCH   7  18
ATOM     18  C   UNL     1      12.389   9.223  17.083  0.00  0.00    +0.143 C 
BRANCH  18  20
ATOM      3  O   UNL     1      16.161  11.351  14.696  0.00  0.00    -0.453 OA
ATOM      4  O   UNL     1      16.744  12.719  16.592  0.00  0.00    -0.453 OA
ATOM     20  C   UNL     1      13.550  10.169  16.987  0.00  0.00    -0.026 A 
ATOM     22  C   UNL     1      14.282  10.251  15.799  0.00  0.00    +0.054 A 
ATOM     23  C   UNL     1      13.890  10.967  18.094  0.00  0.00    +0.009 A 
ATOM     24  C   UNL     1      15.339  11.137  15.759  0.00  0.00    +0.167 A 
ATOM     27  C   UNL     1      14.966  11.855  18.026  0.00  0.00    +0.050 A 
ATOM     28  C   UNL     1      15.672  11.917  16.842  0.00  0.00    +0.166 A 
ATOM     32  C   UNL     1      17.048  12.354  15.231  0.00  0.00    +0.466 C 
ENDBRANCH  18  20
ENDBRANCH   7  18
BRANCH  17  19
ATOM     19  C   UNL     1      18.170   8.947  20.709  0.00  0.00    +0.131 C 
BRANCH  19  21
ATOM     21  C   UNL     1      19.054   7.989  21.445  0.00  0.00    -0.038 A 
ATOM     25  C   UNL     1      19.542   8.322  22.709  0.00  0.00    +0.007 A 
ATOM     26  C   UNL     1      19.389   6.765  20.868  0.00  0.00    +0.007 A 
ATOM     29  C   UNL     1      20.365   7.429  23.396  0.00  0.00    +0.046 A 
ATOM     30  C   UNL     1      20.211   5.873  21.555  0.00  0.00    +0.046 A 
ATOM     31  C   UNL     1      20.700   6.204  22.819  0.00  0.00    +0.120 A 
BRANCH  31   5
ATOM      5  O   UNL     1      21.501   5.332  23.490  0.00  0.00    -0.495 OA
ATOM     33  C   UNL     1      22.203   4.365  22.710  0.00  0.00    +0.277 C 
ENDBRANCH  31   5
ENDBRANCH  19  21
ENDBRANCH  17  19
TORSDOF 5
ENDMDL
MODEL 3
REMARK VINA RESULT:      -7.3      1.796      2.440
REMARK  Name = 26742824
REMARK  6 active torsions:
REMARK  status: ('A' for Active; 'I' for Inactive)
REMARK    1  A    between atoms: O_5  and  C_31
REMARK    2  A    between atoms: O_5  and  C_33
REMARK    3  A    between atoms: N_7  and  C_18
REMARK    4  A    between atoms: C_17  and  C_19
REMARK    5  A    between atoms: C_18  and  C_20
REMARK    6  A    between atoms: C_19  and  C_21
REMARK                            x       y       z     vdW  Elec       q    Type
REMARK                         _______ _______ _______ _____ _____    ______ ____
ROOT
ATOM      1  O   UNL     1      -1.076 -10.927  15.483  0.00  0.00    -0.276 OA
ATOM      2  O   UNL     1      -4.463  -7.984  10.110  0.00  0.00    -0.275 OA
ATOM      6  N   UNL     1      -4.036 -10.193  10.691  0.00  0.00    -0.301 N 
ATOM      7  N   UNL     1      -3.376 -11.217  15.412  0.00  0.00    -0.297 N 
ATOM      8  C   UNL     1      -4.021 -12.057  12.339  0.00  0.00    +0.011 C 
ATOM      9  C   UNL     1      -2.492 -11.870  12.475  0.00  0.00    +0.004 C 
ATOM     10  C   UNL     1      -2.067 -10.425  12.154  0.00  0.00    +0.023 C 
ATOM     11  C   UNL     1      -4.480 -11.567  10.950  0.00  0.00    +0.111 C 
ATOM     12  C   UNL     1      -4.864 -11.385  13.440  0.00  0.00    +0.024 C 
ATOM     13  C   UNL     1      -1.912 -12.385  13.799  0.00  0.00    +0.100 C 
ATOM     14  C   UNL     1      -2.590  -9.989  10.788  0.00  0.00    +0.108 C 
ATOM     15  C   UNL     1      -4.543 -11.887  14.842  0.00  0.00    +0.108 C 
ATOM     16  C   UNL     1      -2.075 -11.443  14.978  0.00  0.00    +0.216 C 
ATOM     17  C   UNL     1      -4.866  -9.126  10.348  0.00  0.00    +0.220 C 
ENDROOT
BRANCH   7  18
ATOM     18  C   UNL     1      -3.632 -10.263  16.483  0.00  0.00    +0.143 C 
BRANCH  18  20
ATOM      3  O   UNL     1      -8.191 -10.513  18.382  0.00  0.00    -0.453 OA
ATOM      4  O   UNL     1      -7.529 -12.101  20.070  0.00  0.00    -0.453 OA
ATOM     20  C   UNL     1      -4.649 -10.775  17.461  0.00  0.00    -0.026 A 
ATOM     22  C   UNL     1      -5.971 -10.329  17.384  0.00  0.00    +0.054 A 
ATOM     23  C   UNL     1      -4.262 -11.701  18.446  0.00  0.00    +0.009 A 
ATOM     24  C   UNL     1      -6.870 -10.830  18.303  0.00  0.00    +0.167 A 
ATOM     27  C   UNL     1      -5.193 -12.192  19.364  0.00  0.00    +0.050 A 
ATOM     28  C   UNL     1      -6.492 -11.736  19.266  0.00  0.00    +0.166 A 
ATOM     32  C   UNL     1      -8.602 -11.321  19.503  0.00  0.00    +0.466 C 
ENDBRANCH  18  20
ENDBRANCH   7  18
BRANCH  17  19
ATOM     19  C   UNL     1      -6.343  -9.417  10.272  0.00  0.00    +0.131 C 
BRANCH  19  21
ATOM     21  C   UNL     1      -6.908  -8.948   8.968  0.00  0.00    -0.038 A 
ATOM     25  C   UNL     1      -6.567  -9.603   7.784  0.00  0.00    +0.007 A 
ATOM     26  C   UNL     1      -7.776  -7.857   8.935  0.00  0.00    +0.007 A 
ATOM     29  C   UNL     1      -7.095  -9.167   6.569  0.00  0.00    +0.046 A 
ATOM     30  C   UNL     1      -8.303  -7.421   7.721  0.00  0.00    +0.046 A 
ATOM     31  C   UNL     1      -7.963  -8.076   6.537  0.00  0.00    +0.120 A 
BRANCH  31   5
ATOM      5  O   UNL     1      -8.479  -7.652   5.351  0.00  0.00    -0.495 OA
ATOM     33  C   UNL     1      -9.850  -7.254   5.347  0.00  0.00    +0.277 C 
ENDBRANCH  31   5
ENDBRANCH  19  21
ENDBRANCH  17  19
TORSDOF 5
ENDMDL
MODEL 4
REMARK VINA RESULT:      -7.2     27.495     30.420
REMARK  Name = 26742824
REMARK  6 active torsions:
REMARK  status: ('A' for Active; 'I' for Inactive)
REMARK    1  A    between atoms: O_5  and  C_31
REMARK    2  A    between atoms: O_5  and  C_33
REMARK    3  A    between atoms: N_7  and  C_18
REMARK    4  A    between atoms: C_17  and  C_19
REMARK    5  A    between atoms: C_18  and  C_20
REMARK    6  A    between atoms: C_19  and  C_21
REMARK                            x       y       z     vdW  Elec       q    Type
REMARK                         _______ _______ _______ _____ _____    ______ ____
ROOT
ATOM      1  O   UNL     1      11.403  13.348  21.226  0.00  0.00    -0.276 OA
ATOM      2  O   UNL     1      16.263   8.638  19.436  0.00  0.00    -0.275 OA
ATOM      6  N   UNL     1      16.309  10.517  20.803  0.00  0.00    -0.301 N 
ATOM      7  N   UNL     1      12.132  11.911  22.895  0.00  0.00    -0.297 N 
ATOM      8  C   UNL     1      15.372  11.907  22.642  0.00  0.00    +0.011 C 
ATOM      9  C   UNL     1      14.808  12.870  21.571  0.00  0.00    +0.004 C 
ATOM     10  C   UNL     1      14.548  12.145  20.238  0.00  0.00    +0.023 C 
ATOM     11  C   UNL     1      16.609  11.176  22.080  0.00  0.00    +0.111 C 
ATOM     12  C   UNL     1      14.364  10.884  23.200  0.00  0.00    +0.024 C 
ATOM     13  C   UNL     1      13.609  13.701  22.044  0.00  0.00    +0.100 C 
ATOM     14  C   UNL     1      15.796  11.407  19.761  0.00  0.00    +0.108 C 
ATOM     15  C   UNL     1      13.154  11.526  23.866  0.00  0.00    +0.108 C 
ATOM     16  C   UNL     1      12.276  12.977  22.014  0.00  0.00    +0.216 C 
ATOM     17  C   UNL     1      16.500   9.163  20.528  0.00  0.00    +0.220 C 
ENDROOT
BRANCH   7  18
ATOM     18  C   UNL     1      10.916  11.107  22.874  0.00  0.00    +0.143 C 
BRANCH  18  20
ATOM      3  O   UNL     1      12.647   8.384  19.127  0.00  0.00    -0.453 OA
ATOM      4  O   UNL     1      11.713   6.349  20.019  0.00  0.00    -0.453 OA
ATOM     20  C   UNL     1      11.109   9.816  22.135  0.00  0.00    -0.026 A 
ATOM     22  C   UNL     1      11.829   9.802  20.938  0.00  0.00    +0.054 A 
ATOM     23  C   UNL     1      10.564   8.628  22.656  0.00  0.00    +0.009 A 
ATOM     24  C   UNL     1      11.982   8.590  20.296  0.00  0.00    +0.167 A 
ATOM     27  C   UNL     1      10.733   7.414  21.986  0.00  0.00    +0.050 A 
ATOM     28  C   UNL     1      11.449   7.429  20.806  0.00  0.00    +0.166 A 
ATOM     32  C   UNL     1      12.472   6.962  18.958  0.00  0.00    +0.466 C 
ENDBRANCH  18  20
ENDBRANCH   7  18
BRANCH  17  19
ATOM     19  C   UNL     1      17.028   8.312  21.655  0.00  0.00    +0.131 C 
BRANCH  19  21
ATOM     21  C   UNL     1      18.358   7.726  21.296  0.00  0.00    -0.038 A 
ATOM     25  C   UNL     1      19.513   8.500  21.408  0.00  0.00    +0.007 A 
ATOM     26  C   UNL     1      18.442   6.407  20.853  0.00  0.00    +0.007 A 
ATOM     29  C   UNL     1      20.753   7.953  21.075  0.00  0.00    +0.046 A 
ATOM     30  C   UNL     1      19.680   5.861  20.521  0.00  0.00    +0.046 A 
ATOM     31  C   UNL     1      20.836   6.634  20.632  0.00  0.00    +0.120 A 
BRANCH  31   5
ATOM      5  O   UNL     1      22.046   6.099  20.309  0.00  0.00    -0.495 OA
ATOM     33  C   UNL     1      22.437   4.915  21.003  0.00  0.00    +0.277 C 
ENDBRANCH  31   5
ENDBRANCH  19  21
ENDBRANCH  17  19
TORSDOF 5
ENDMDL
MODEL 5
REMARK VINA RESULT:      -7.2      2.442      7.377
REMARK  Name = 26742824
REMARK  6 active torsions:
REMARK  status: ('A' for Active; 'I' for Inactive)
REMARK    1  A    between atoms: O_5  and  C_31
REMARK    2  A    between atoms: O_5  and  C_33
REMARK    3  A    between atoms: N_7  and  C_18
REMARK    4  A    between atoms: C_17  and  C_19
REMARK    5  A    between atoms: C_18  and  C_20
REMARK    6  A    between atoms: C_19  and  C_21
REMARK                            x       y       z     vdW  Elec       q    Type
REMARK                         _______ _______ _______ _____ _____    ______ ____
ROOT
ATOM      1  O   UNL     1      -6.688 -11.574   8.725  0.00  0.00    -0.276 OA
ATOM      2  O   UNL     1      -3.314 -13.254  14.625  0.00  0.00    -0.275 OA
ATOM      6  N   UNL     1      -2.741 -11.943  12.794  0.00  0.00    -0.301 N 
ATOM      7  N   UNL     1      -6.353  -9.868  10.261  0.00  0.00    -0.297 N 
ATOM      8  C   UNL     1      -3.240 -10.140  11.153  0.00  0.00    +0.011 C 
ATOM      9  C   UNL     1      -3.535 -11.235  10.102  0.00  0.00    +0.004 C 
ATOM     10  C   UNL     1      -4.001 -12.546  10.764  0.00  0.00    +0.023 C 
ATOM     11  C   UNL     1      -2.256 -10.688  12.208  0.00  0.00    +0.111 C 
ATOM     12  C   UNL     1      -4.481  -9.547  11.848  0.00  0.00    +0.024 C 
ATOM     13  C   UNL     1      -4.457 -10.780   8.964  0.00  0.00    +0.100 C 
ATOM     14  C   UNL     1      -3.007 -13.008  11.826  0.00  0.00    +0.108 C 
ATOM     15  C   UNL     1      -5.461  -8.892  10.883  0.00  0.00    +0.108 C 
ATOM     16  C   UNL     1      -5.938 -10.781   9.299  0.00  0.00    +0.216 C 
ATOM     17  C   UNL     1      -2.929 -12.180  14.156  0.00  0.00    +0.220 C 
ENDROOT
BRANCH   7  18
ATOM     18  C   UNL     1      -7.742  -9.858  10.705  0.00  0.00    +0.143 C 
BRANCH  18  20
ATOM      3  O   UNL     1      -9.640 -10.340  15.246  0.00  0.00    -0.453 OA
ATOM      4  O   UNL     1      -8.493 -12.423  15.632  0.00  0.00    -0.453 OA
ATOM     20  C   UNL     1      -7.919 -10.571  12.013  0.00  0.00    -0.026 A 
ATOM     22  C   UNL     1      -8.748 -10.023  12.995  0.00  0.00    +0.054 A 
ATOM     23  C   UNL     1      -7.249 -11.787  12.239  0.00  0.00    +0.009 A 
ATOM     24  C   UNL     1      -8.881 -10.717  14.181  0.00  0.00    +0.167 A 
ATOM     27  C   UNL     1      -7.401 -12.469  13.449  0.00  0.00    +0.050 A 
ATOM     28  C   UNL     1      -8.226 -11.906  14.401  0.00  0.00    +0.166 A 
ATOM     32  C   UNL     1      -9.390 -11.425  16.161  0.00  0.00    +0.466 C 
ENDBRANCH  18  20
ENDBRANCH   7  18
BRANCH  17  19
ATOM     19  C   UNL     1      -2.637 -11.031  15.087  0.00  0.00    +0.131 C 
BRANCH  19  21
ATOM     21  C   UNL     1      -3.803 -10.773  15.990  0.00  0.00    -0.038 A 
ATOM     25  C   UNL     1      -4.949 -10.154  15.488  0.00  0.00    +0.007 A 
ATOM     26  C   UNL     1      -3.746 -11.153  17.330  0.00  0.00    +0.007 A 
ATOM     29  C   UNL     1      -6.037  -9.916  16.329  0.00  0.00    +0.046 A 
ATOM     30  C   UNL     1      -4.833 -10.915  18.170  0.00  0.00    +0.046 A 
ATOM     31  C   UNL     1      -5.979 -10.297  17.669  0.00  0.00    +0.120 A 
BRANCH  31   5
ATOM      5  O   UNL     1      -7.041 -10.066  18.489  0.00  0.00    -0.495 OA
ATOM     33  C   UNL     1      -7.448 -11.138  19.339  0.00  0.00    +0.277 C 
ENDBRANCH  31   5
ENDBRANCH  19  21
ENDBRANCH  17  19
TORSDOF 5
ENDMDL
MODEL 6
REMARK VINA RESULT:      -7.1      2.879      4.655
REMARK  Name = 26742824
REMARK  6 active torsions:
REMARK  status: ('A' for Active; 'I' for Inactive)
REMARK    1  A    between atoms: O_5  and  C_31
REMARK    2  A    between atoms: O_5  and  C_33
REMARK    3  A    between atoms: N_7  and  C_18
REMARK    4  A    between atoms: C_17  and  C_19
REMARK    5  A    between atoms: C_18  and  C_20
REMARK    6  A    between atoms: C_19  and  C_21
REMARK                            x       y       z     vdW  Elec       q    Type
REMARK                         _______ _______ _______ _____ _____    ______ ____
ROOT
ATOM      1  O   UNL     1      -5.872  -9.860  19.089  0.00  0.00    -0.276 OA
ATOM      2  O   UNL     1      -1.704  -9.921  13.463  0.00  0.00    -0.275 OA
ATOM      6  N   UNL     1      -2.684 -11.609  14.724  0.00  0.00    -0.301 N 
ATOM      7  N   UNL     1      -6.817 -10.573  17.094  0.00  0.00    -0.297 N 
ATOM      8  C   UNL     1      -4.655 -12.647  15.834  0.00  0.00    +0.011 C 
ATOM      9  C   UNL     1      -4.105 -12.144  17.189  0.00  0.00    +0.004 C 
ATOM     10  C   UNL     1      -3.233 -10.887  17.015  0.00  0.00    +0.023 C 
ATOM     11  C   UNL     1      -3.490 -12.831  14.839  0.00  0.00    +0.111 C 
ATOM     12  C   UNL     1      -5.752 -11.766  15.204  0.00  0.00    +0.024 C 
ATOM     13  C   UNL     1      -5.172 -11.986  18.280  0.00  0.00    +0.100 C 
ATOM     14  C   UNL     1      -2.129 -11.121  15.987  0.00  0.00    +0.108 C 
ATOM     15  C   UNL     1      -6.987 -11.615  16.083  0.00  0.00    +0.108 C 
ATOM     16  C   UNL     1      -5.985 -10.707  18.199  0.00  0.00    +0.216 C 
ATOM     17  C   UNL     1      -2.407 -10.933  13.537  0.00  0.00    +0.220 C 
ENDROOT
BRANCH   7  18
ATOM     18  C   UNL     1      -7.570  -9.342  16.893  0.00  0.00    +0.143 C 
BRANCH  18  20
ATOM      3  O   UNL     1     -10.920 -11.087  20.086  0.00  0.00    -0.453 OA
ATOM      4  O   UNL     1     -12.690  -9.755  19.138  0.00  0.00    -0.453 OA
ATOM     20  C   UNL     1      -8.954  -9.429  17.469  0.00  0.00    -0.026 A 
ATOM     22  C   UNL     1      -9.204 -10.279  18.549  0.00  0.00    +0.054 A 
ATOM     23  C   UNL     1      -9.987  -8.652  16.915  0.00  0.00    +0.009 A 
ATOM     24  C   UNL     1     -10.491 -10.323  19.045  0.00  0.00    +0.167 A 
ATOM     27  C   UNL     1     -11.282  -8.715  17.436  0.00  0.00    +0.050 A 
ATOM     28  C   UNL     1     -11.501  -9.562  18.503  0.00  0.00    +0.166 A 
ATOM     32  C   UNL     1     -12.314 -10.723  20.139  0.00  0.00    +0.466 C 
ENDBRANCH  18  20
ENDBRANCH   7  18
BRANCH  17  19
ATOM     19  C   UNL     1      -3.019 -11.497  12.279  0.00  0.00    +0.131 C 
BRANCH  19  21
ATOM     21  C   UNL     1      -3.798 -10.444  11.554  0.00  0.00    -0.038 A 
ATOM     25  C   UNL     1      -4.988  -9.959  12.096  0.00  0.00    +0.007 A 
ATOM     26  C   UNL     1      -3.332  -9.946  10.337  0.00  0.00    +0.007 A 
ATOM     29  C   UNL     1      -5.713  -8.977  11.421  0.00  0.00    +0.046 A 
ATOM     30  C   UNL     1      -4.056  -8.965   9.662  0.00  0.00    +0.046 A 
ATOM     31  C   UNL     1      -5.247  -8.479  10.204  0.00  0.00    +0.120 A 
BRANCH  31   5
ATOM      5  O   UNL     1      -5.952  -7.519   9.546  0.00  0.00    -0.495 OA
ATOM     33  C   UNL     1      -7.119  -7.941   8.840  0.00  0.00    +0.277 C 
ENDBRANCH  31   5
ENDBRANCH  19  21
ENDBRANCH  17  19
TORSDOF 5
ENDMDL
MODEL 7
REMARK VINA RESULT:      -6.8      2.699      9.158
REMARK  Name = 26742824
REMARK  6 active torsions:
REMARK  status: ('A' for Active; 'I' for Inactive)
REMARK    1  A    between atoms: O_5  and  C_31
REMARK    2  A    between atoms: O_5  and  C_33
REMARK    3  A    between atoms: N_7  and  C_18
REMARK    4  A    between atoms: C_17  and  C_19
REMARK    5  A    between atoms: C_18  and  C_20
REMARK    6  A    between atoms: C_19  and  C_21
REMARK                            x       y       z     vdW  Elec       q    Type
REMARK                         _______ _______ _______ _____ _____    ______ ____
ROOT
ATOM      1  O   UNL     1      -5.367 -12.848   9.570  0.00  0.00    -0.276 OA
ATOM      2  O   UNL     1      -4.627 -13.120  16.526  0.00  0.00    -0.275 OA
ATOM      6  N   UNL     1      -3.313 -12.230  14.829  0.00  0.00    -0.301 N 
ATOM      7  N   UNL     1      -5.537 -10.840  10.719  0.00  0.00    -0.297 N 
ATOM      8  C   UNL     1      -3.027 -10.841  12.785  0.00  0.00    +0.011 C 
ATOM      9  C   UNL     1      -2.967 -12.146  11.956  0.00  0.00    +0.004 C 
ATOM     10  C   UNL     1      -3.735 -13.290  12.646  0.00  0.00    +0.023 C 
ATOM     11  C   UNL     1      -2.560 -11.123  14.227  0.00  0.00    +0.111 C 
ATOM     12  C   UNL     1      -4.398 -10.138  12.803  0.00  0.00    +0.024 C 
ATOM     13  C   UNL     1      -3.352 -11.972  10.482  0.00  0.00    +0.100 C 
ATOM     14  C   UNL     1      -3.256 -13.486  14.082  0.00  0.00    +0.108 C 
ATOM     15  C   UNL     1      -4.890  -9.732  11.419  0.00  0.00    +0.108 C 
ATOM     16  C   UNL     1      -4.844 -11.932  10.209  0.00  0.00    +0.216 C 
ATOM     17  C   UNL     1      -4.022 -12.166  16.028  0.00  0.00    +0.220 C 
ENDROOT
BRANCH   7  18
ATOM     18  C   UNL     1      -6.985 -10.764  10.577  0.00  0.00    +0.143 C 
BRANCH  18  20
ATOM      3  O   UNL     1      -9.482  -6.781   9.043  0.00  0.00    -0.453 OA
ATOM      4  O   UNL     1      -8.594  -6.938   6.808  0.00  0.00    -0.453 OA
ATOM     20  C   UNL     1      -7.396  -9.758   9.542  0.00  0.00    -0.026 A 
ATOM     22  C   UNL     1      -8.287  -8.737   9.882  0.00  0.00    +0.054 A 
ATOM     23  C   UNL     1      -6.877  -9.850   8.238  0.00  0.00    +0.009 A 
ATOM     24  C   UNL     1      -8.632  -7.834   8.898  0.00  0.00    +0.167 A 
ATOM     27  C   UNL     1      -7.244  -8.922   7.260  0.00  0.00    +0.050 A 
ATOM     28  C   UNL     1      -8.125  -7.924   7.622  0.00  0.00    +0.166 A 
ATOM     32  C   UNL     1      -9.453  -6.218   7.716  0.00  0.00    +0.466 C 
ENDBRANCH  18  20
ENDBRANCH   7  18
BRANCH  17  19
ATOM     19  C   UNL     1      -4.035 -10.835  16.736  0.00  0.00    +0.131 C 
BRANCH  19  21
ATOM     21  C   UNL     1      -5.440 -10.409  17.033  0.00  0.00    -0.038 A 
ATOM     25  C   UNL     1      -5.965 -10.580  18.314  0.00  0.00    +0.007 A 
ATOM     26  C   UNL     1      -6.222  -9.839  16.029  0.00  0.00    +0.007 A 
ATOM     29  C   UNL     1      -7.272 -10.181  18.590  0.00  0.00    +0.046 A 
ATOM     30  C   UNL     1      -7.529  -9.440  16.305  0.00  0.00    +0.046 A 
ATOM     31  C   UNL     1      -8.054  -9.611  17.586  0.00  0.00    +0.120 A 
BRANCH  31   5
ATOM      5  O   UNL     1      -9.330  -9.219  17.856  0.00  0.00    -0.495 OA
ATOM     33  C   UNL     1      -9.777  -8.006  17.252  0.00  0.00    +0.277 C 
ENDBRANCH  31   5
ENDBRANCH  19  21
ENDBRANCH  17  19
TORSDOF 5
ENDMDL
MODEL 8
REMARK VINA RESULT:      -6.8     23.730     25.863
REMARK  Name = 26742824
REMARK  6 active torsions:
REMARK  status: ('A' for Active; 'I' for Inactive)
REMARK    1  A    between atoms: O_5  and  C_31
REMARK    2  A    between atoms: O_5  and  C_33
REMARK    3  A    between atoms: N_7  and  C_18
REMARK    4  A    between atoms: C_17  and  C_19
REMARK    5  A    between atoms: C_18  and  C_20
REMARK    6  A    between atoms: C_19  and  C_21
REMARK                            x       y       z     vdW  Elec       q    Type
REMARK                         _______ _______ _______ _____ _____    ______ ____
ROOT
ATOM      1  O   UNL     1      14.335   6.408   2.369  0.00  0.00    -0.276 OA
ATOM      2  O   UNL     1      11.966   5.316  -4.127  0.00  0.00    -0.275 OA
ATOM      6  N   UNL     1      12.642   3.882  -2.429  0.00  0.00    -0.301 N 
ATOM      7  N   UNL     1      12.232   5.449   2.170  0.00  0.00    -0.297 N 
ATOM      8  C   UNL     1      12.584   3.113  -0.063  0.00  0.00    +0.011 C 
ATOM      9  C   UNL     1      13.960   3.787   0.147  0.00  0.00    +0.004 C 
ATOM     10  C   UNL     1      14.169   4.964  -0.825  0.00  0.00    +0.023 C 
ATOM     11  C   UNL     1      12.417   2.730  -1.548  0.00  0.00    +0.111 C 
ATOM     12  C   UNL     1      11.370   3.938   0.407  0.00  0.00    +0.024 C 
ATOM     13  C   UNL     1      14.262   4.156   1.605  0.00  0.00    +0.100 C 
ATOM     14  C   UNL     1      13.946   4.528  -2.271  0.00  0.00    +0.108 C 
ATOM     15  C   UNL     1      11.405   4.276   1.892  0.00  0.00    +0.108 C 
ATOM     16  C   UNL     1      13.620   5.444   2.087  0.00  0.00    +0.216 C 
ATOM     17  C   UNL     1      11.742   4.359  -3.381  0.00  0.00    +0.220 C 
ENDROOT
BRANCH   7  18
ATOM     18  C   UNL     1      11.528   6.669   2.542  0.00  0.00    +0.143 C 
BRANCH  18  20
ATOM      3  O   UNL     1      11.449   6.090   7.453  0.00  0.00    -0.453 OA
ATOM      4  O   UNL     1       9.042   6.159   7.540  0.00  0.00    -0.453 OA
ATOM     20  C   UNL     1      10.830   6.534   3.864  0.00  0.00    -0.026 A 
ATOM     22  C   UNL     1      11.579   6.371   5.032  0.00  0.00    +0.054 A 
ATOM     23  C   UNL     1       9.425   6.574   3.914  0.00  0.00    +0.009 A 
ATOM     24  C   UNL     1      10.892   6.254   6.222  0.00  0.00    +0.167 A 
ATOM     27  C   UNL     1       8.754   6.453   5.134  0.00  0.00    +0.050 A 
ATOM     28  C   UNL     1       9.517   6.294   6.272  0.00  0.00    +0.166 A 
ATOM     32  C   UNL     1      10.271   6.030   8.283  0.00  0.00    +0.466 C 
ENDBRANCH  18  20
ENDBRANCH   7  18
BRANCH  17  19
ATOM     19  C   UNL     1      10.419   3.642  -3.479  0.00  0.00    +0.131 C 
BRANCH  19  21
ATOM     21  C   UNL     1       9.288   4.622  -3.498  0.00  0.00    -0.038 A 
ATOM     25  C   UNL     1       9.068   5.456  -2.401  0.00  0.00    +0.007 A 
ATOM     26  C   UNL     1       8.455   4.704  -4.614  0.00  0.00    +0.007 A 
ATOM     29  C   UNL     1       8.015   6.370  -2.421  0.00  0.00    +0.046 A 
ATOM     30  C   UNL     1       7.403   5.618  -4.633  0.00  0.00    +0.046 A 
ATOM     31  C   UNL     1       7.182   6.452  -3.536  0.00  0.00    +0.120 A 
BRANCH  31   5
ATOM      5  O   UNL     1       6.156   7.346  -3.556  0.00  0.00    -0.495 OA
ATOM     33  C   UNL     1       4.999   7.021  -2.786  0.00  0.00    +0.277 C 
ENDBRANCH  31   5
ENDBRANCH  19  21
ENDBRANCH  17  19
TORSDOF 5
ENDMDL
MODEL 9
REMARK VINA RESULT:      -6.8      3.042      5.815
REMARK  Name = 26742824
REMARK  6 active torsions:
REMARK  status: ('A' for Active; 'I' for Inactive)
REMARK    1  A    between atoms: O_5  and  C_31
REMARK    2  A    between atoms: O_5  and  C_33
REMARK    3  A    between atoms: N_7  and  C_18
REMARK    4  A    between atoms: C_17  and  C_19
REMARK    5  A    between atoms: C_18  and  C_20
REMARK    6  A    between atoms: C_19  and  C_21
REMARK                            x       y       z     vdW  Elec       q    Type
REMARK                         _______ _______ _______ _____ _____    ______ ____
ROOT
ATOM      1  O   UNL     1      -6.348 -12.890  18.571  0.00  0.00    -0.276 OA
ATOM      2  O   UNL     1      -6.553 -12.729  11.575  0.00  0.00    -0.275 OA
ATOM      6  N   UNL     1      -7.970 -11.897  13.219  0.00  0.00    -0.301 N 
ATOM      7  N   UNL     1      -6.034 -10.825  17.562  0.00  0.00    -0.297 N 
ATOM      8  C   UNL     1      -8.375 -10.622  15.317  0.00  0.00    +0.011 C 
ATOM      9  C   UNL     1      -8.535 -11.972  16.057  0.00  0.00    +0.004 C 
ATOM     10  C   UNL     1      -7.748 -13.097  15.360  0.00  0.00    +0.023 C 
ATOM     11  C   UNL     1      -8.736 -10.804  13.828  0.00  0.00    +0.111 C 
ATOM     12  C   UNL     1      -6.988  -9.964  15.446  0.00  0.00    +0.024 C 
ATOM     13  C   UNL     1      -8.262 -11.896  17.565  0.00  0.00    +0.100 C 
ATOM     14  C   UNL     1      -8.119 -13.193  13.882  0.00  0.00    +0.108 C 
ATOM     15  C   UNL     1      -6.594  -9.657  16.885  0.00  0.00    +0.108 C 
ATOM     16  C   UNL     1      -6.794 -11.921  17.952  0.00  0.00    +0.216 C 
ATOM     17  C   UNL     1      -7.168 -11.787  12.083  0.00  0.00    +0.220 C 
ENDROOT
BRANCH   7  18
ATOM     18  C   UNL     1      -4.600 -10.804  17.819  0.00  0.00    +0.143 C 
BRANCH  18  20
ATOM      3  O   UNL     1      -3.803 -13.792  13.959  0.00  0.00    -0.453 OA
ATOM      4  O   UNL     1      -1.748 -12.678  13.371  0.00  0.00    -0.453 OA
ATOM     20  C   UNL     1      -3.810 -11.281  16.635  0.00  0.00    -0.026 A 
ATOM     22  C   UNL     1      -4.272 -12.364  15.883  0.00  0.00    +0.054 A 
ATOM     23  C   UNL     1      -2.611 -10.631  16.292  0.00  0.00    +0.009 A 
ATOM     24  C   UNL     1      -3.513 -12.763  14.802  0.00  0.00    +0.167 A 
ATOM     27  C   UNL     1      -1.861 -11.056  15.193  0.00  0.00    +0.050 A 
ATOM     28  C   UNL     1      -2.340 -12.127  14.466  0.00  0.00    +0.166 A 
ATOM     32  C   UNL     1      -2.681 -13.732  13.056  0.00  0.00    +0.466 C 
ENDBRANCH  18  20
ENDBRANCH   7  18
BRANCH  17  19
ATOM     19  C   UNL     1      -7.063 -10.418  11.461  0.00  0.00    +0.131 C 
BRANCH  19  21
ATOM     21  C   UNL     1      -5.633 -10.076  11.177  0.00  0.00    -0.038 A 
ATOM     25  C   UNL     1      -4.655 -10.308  12.144  0.00  0.00    +0.007 A 
ATOM     26  C   UNL     1      -5.279  -9.527   9.945  0.00  0.00    +0.007 A 
ATOM     29  C   UNL     1      -3.323  -9.991  11.878  0.00  0.00    +0.046 A 
ATOM     30  C   UNL     1      -3.948  -9.210   9.679  0.00  0.00    +0.046 A 
ATOM     31  C   UNL     1      -2.969  -9.442  10.646  0.00  0.00    +0.120 A 
BRANCH  31   5
ATOM      5  O   UNL     1      -1.669  -9.134  10.386  0.00  0.00    -0.495 OA
ATOM     33  C   UNL     1      -0.779  -9.084  11.500  0.00  0.00    +0.277 C 
ENDBRANCH  31   5
ENDBRANCH  19  21
ENDBRANCH  17  19
TORSDOF 5
ENDMDL
MODEL 10
REMARK VINA RESULT:      -6.7      2.873      8.802
REMARK  Name = 26742824
REMARK  6 active torsions:
REMARK  status: ('A' for Active; 'I' for Inactive)
REMARK    1  A    between atoms: O_5  and  C_31
REMARK    2  A    between atoms: O_5  and  C_33
REMARK    3  A    between atoms: N_7  and  C_18
REMARK    4  A    between atoms: C_17  and  C_19
REMARK    5  A    between atoms: C_18  and  C_20
REMARK    6  A    between atoms: C_19  and  C_21
REMARK                            x       y       z     vdW  Elec       q    Type
REMARK                         _______ _______ _______ _____ _____    ______ ____
ROOT
ATOM      1  O   UNL     1      -4.181 -13.251  15.822  0.00  0.00    -0.276 OA
ATOM      2  O   UNL     1     -10.185 -12.284  19.291  0.00  0.00    -0.275 OA
ATOM      6  N   UNL     1      -8.092 -11.286  19.443  0.00  0.00    -0.301 N 
ATOM      7  N   UNL     1      -5.293 -11.249  15.452  0.00  0.00    -0.297 N 
ATOM      8  C   UNL     1      -6.114 -10.184  18.411  0.00  0.00    +0.011 C 
ATOM      9  C   UNL     1      -5.339 -11.513  18.576  0.00  0.00    +0.004 C 
ATOM     10  C   UNL     1      -6.289 -12.726  18.579  0.00  0.00    +0.023 C 
ATOM     11  C   UNL     1      -7.228 -10.100  19.474  0.00  0.00    +0.111 C 
ATOM     12  C   UNL     1      -6.705  -9.940  17.009  0.00  0.00    +0.024 C 
ATOM     13  C   UNL     1      -4.162 -11.677  17.607  0.00  0.00    +0.100 C 
ATOM     14  C   UNL     1      -7.391 -12.558  19.621  0.00  0.00    +0.108 C 
ATOM     15  C   UNL     1      -5.654  -9.908  15.905  0.00  0.00    +0.108 C 
ATOM     16  C   UNL     1      -4.540 -12.137  16.211  0.00  0.00    +0.216 C 
ATOM     17  C   UNL     1      -9.478 -11.273  19.288  0.00  0.00    +0.220 C 
ENDROOT
BRANCH   7  18
ATOM     18  C   UNL     1      -5.771 -11.641  14.132  0.00  0.00    +0.143 C 
BRANCH  18  20
ATOM      3  O   UNL     1      -5.362  -9.208   9.847  0.00  0.00    -0.453 OA
ATOM      4  O   UNL     1      -2.955  -9.167   9.964  0.00  0.00    -0.453 OA
ATOM     20  C   UNL     1      -4.985 -10.989  13.033  0.00  0.00    -0.026 A 
ATOM     22  C   UNL     1      -5.654 -10.408  11.952  0.00  0.00    +0.054 A 
ATOM     23  C   UNL     1      -3.581 -10.966  13.101  0.00  0.00    +0.009 A 
ATOM     24  C   UNL     1      -4.889  -9.818  10.967  0.00  0.00    +0.167 A 
ATOM     27  C   UNL     1      -2.830 -10.361  12.090  0.00  0.00    +0.050 A 
ATOM     28  C   UNL     1      -3.515  -9.796  11.034  0.00  0.00    +0.166 A 
ATOM     32  C   UNL     1      -4.132  -8.798   9.216  0.00  0.00    +0.466 C 
ENDBRANCH  18  20
ENDBRANCH   7  18
BRANCH  17  19
ATOM     19  C   UNL     1     -10.124  -9.922  19.106  0.00  0.00    +0.131 C 
BRANCH  19  21
ATOM     21  C   UNL     1     -10.280  -9.604  17.651  0.00  0.00    -0.038 A 
ATOM     25  C   UNL     1     -10.655 -10.605  16.755  0.00  0.00    +0.007 A 
ATOM     26  C   UNL     1     -10.054  -8.307  17.193  0.00  0.00    +0.007 A 
ATOM     29  C   UNL     1     -10.802 -10.308  15.400  0.00  0.00    +0.046 A 
ATOM     30  C   UNL     1     -10.201  -8.010  15.839  0.00  0.00    +0.046 A 
ATOM     31  C   UNL     1     -10.575  -9.010  14.942  0.00  0.00    +0.120 A 
BRANCH  31   5
ATOM      5  O   UNL     1     -10.721  -8.720  13.620  0.00  0.00    -0.495 OA
ATOM     33  C   UNL     1     -10.047  -9.568  12.692  0.00  0.00    +0.277 C 
ENDBRANCH  31   5
ENDBRANCH  19  21
ENDBRANCH  17  19
TORSDOF 5
ENDMDL
