MODEL 1
REMARK VINA RESULT:      -6.9      0.000      0.000
REMARK  Name = 26744513
REMARK  9 active torsions:
REMARK  status: ('A' for Active; 'I' for Inactive)
REMARK    1  A    between atoms: O_4  and  C_14
REMARK    2  A    between atoms: O_6  and  C_28
REMARK    3  A    between atoms: O_7  and  C_31
REMARK    4  A    between atoms: O_7  and  C_32
REMARK    5  A    between atoms: N_9  and  C_16
REMARK    6  A    between atoms: C_12  and  C_17
REMARK    7  A    between atoms: C_16  and  C_18
REMARK    8  A    between atoms: C_21  and  C_24
REMARK    9  A    between atoms: C_25  and  C_28
REMARK                            x       y       z     vdW  Elec       q    Type
REMARK                         _______ _______ _______ _____ _____    ______ ____
ROOT
ATOM      9  N   UNL     1      -5.504  -9.632   9.029  0.00  0.00    -0.285 NA
ATOM     12  C   UNL     1      -6.357  -8.799   9.901  0.00  0.00    +0.149 C 
ATOM     13  C   UNL     1      -7.686  -8.659   9.137  0.00  0.00    +0.061 C 
ATOM     14  C   UNL     1      -7.468  -9.408   7.827  0.00  0.00    +0.130 C 
ATOM     15  C   UNL     1      -5.961  -9.398   7.659  0.00  0.00    +0.116 C 
ENDROOT
BRANCH  12  17
ATOM      5  O   UNL     1      -7.574 -10.258  11.439  0.00  0.00    -0.336 OA
ATOM     10  N   UNL     1      -5.830  -9.203  12.368  0.00  0.00    -0.190 NA
ATOM     11  N   UNL     1      -7.537 -10.670  12.778  0.00  0.00    -0.056 NA
ATOM     17  C   UNL     1      -6.536  -9.396  11.282  0.00  0.00    +0.245 A 
ATOM     21  C   UNL     1      -6.482 -10.006  13.258  0.00  0.00    +0.202 A 
BRANCH  21  24
ATOM     24  C   UNL     1      -6.052 -10.122  14.621  0.00  0.00    +0.023 A 
ATOM     26  C   UNL     1      -4.744 -10.512  14.911  0.00  0.00    +0.015 A 
ATOM     27  C   UNL     1      -6.943  -9.846  15.658  0.00  0.00    +0.015 A 
ATOM     29  C   UNL     1      -4.328 -10.626  16.237  0.00  0.00    +0.046 A 
ATOM     30  C   UNL     1      -6.527  -9.960  16.985  0.00  0.00    +0.046 A 
ATOM     31  C   UNL     1      -5.220 -10.351  17.274  0.00  0.00    +0.130 A 
BRANCH  31   7
ATOM      7  O   UNL     1      -4.814 -10.463  18.568  0.00  0.00    -0.406 OA
BRANCH   7  32
ATOM      1  F   UNL     1      -5.815 -11.611  20.234  0.00  0.00    -0.133 F 
ATOM      2  F   UNL     1      -5.422 -12.657  18.356  0.00  0.00    -0.133 F 
ATOM      3  F   UNL     1      -3.759 -12.138  19.714  0.00  0.00    -0.133 F 
ATOM     32  C   UNL     1      -4.941 -11.728  19.208  0.00  0.00    +0.575 C 
ENDBRANCH   7  32
ENDBRANCH  31   7
ENDBRANCH  21  24
ENDBRANCH  12  17
BRANCH  14   4
ATOM      4  O   UNL     1      -8.120  -8.749   6.758  0.00  0.00    -0.390 OA
ATOM     33  H   UNL     1      -8.540  -7.950   7.120  0.00  0.00    +0.210 HD
ENDBRANCH  14   4
BRANCH   9  16
ATOM     16  C   UNL     1      -4.082  -9.361   9.186  0.00  0.00    +0.120 C 
BRANCH  16  18
ATOM     18  C   UNL     1      -3.462 -10.223  10.254  0.00  0.00    -0.033 A 
ATOM     19  C   UNL     1      -3.864 -11.551  10.399  0.00  0.00    +0.006 A 
ATOM     20  C   UNL     1      -2.486  -9.694  11.099  0.00  0.00    +0.006 A 
ATOM     22  C   UNL     1      -3.291 -12.350  11.389  0.00  0.00    +0.015 A 
ATOM     23  C   UNL     1      -1.913 -10.492  12.088  0.00  0.00    +0.015 A 
ATOM     25  C   UNL     1      -2.314 -11.820  12.232  0.00  0.00    +0.059 A 
BRANCH  25  28
ATOM      8  O   UNL     1      -1.503 -12.307  14.430  0.00  0.00    -0.245 OA
ATOM     28  C   UNL     1      -1.715 -12.653  13.263  0.00  0.00    +0.337 C 
BRANCH  28   6
ATOM      6  O   UNL     1      -1.395 -13.895  12.807  0.00  0.00    -0.477 OA
ATOM     34  H   UNL     1      -0.668 -14.299  13.328  0.00  0.00    +0.295 HD
ENDBRANCH  28   6
ENDBRANCH  25  28
ENDBRANCH  16  18
ENDBRANCH   9  16
TORSDOF 9
ENDMDL
MODEL 2
REMARK VINA RESULT:      -6.7      3.906      6.730
REMARK  Name = 26744513
REMARK  9 active torsions:
REMARK  status: ('A' for Active; 'I' for Inactive)
REMARK    1  A    between atoms: O_4  and  C_14
REMARK    2  A    between atoms: O_6  and  C_28
REMARK    3  A    between atoms: O_7  and  C_31
REMARK    4  A    between atoms: O_7  and  C_32
REMARK    5  A    between atoms: N_9  and  C_16
REMARK    6  A    between atoms: C_12  and  C_17
REMARK    7  A    between atoms: C_16  and  C_18
REMARK    8  A    between atoms: C_21  and  C_24
REMARK    9  A    between atoms: C_25  and  C_28
REMARK                            x       y       z     vdW  Elec       q    Type
REMARK                         _______ _______ _______ _____ _____    ______ ____
ROOT
ATOM      9  N   UNL     1      -3.049 -10.712  14.052  0.00  0.00    -0.285 NA
ATOM     12  C   UNL     1      -3.371 -11.415  15.310  0.00  0.00    +0.149 C 
ATOM     13  C   UNL     1      -2.307 -10.935  16.313  0.00  0.00    +0.061 C 
ATOM     14  C   UNL     1      -1.405 -10.001  15.516  0.00  0.00    +0.130 C 
ATOM     15  C   UNL     1      -1.611 -10.449  14.081  0.00  0.00    +0.116 C 
ENDROOT
BRANCH  12  17
ATOM      5  O   UNL     1      -5.272 -11.980  16.737  0.00  0.00    -0.336 OA
ATOM     10  N   UNL     1      -5.624 -10.216  15.402  0.00  0.00    -0.190 NA
ATOM     11  N   UNL     1      -6.575 -11.540  17.007  0.00  0.00    -0.056 NA
ATOM     17  C   UNL     1      -4.785 -11.146  15.782  0.00  0.00    +0.245 A 
ATOM     21  C   UNL     1      -6.708 -10.498  16.182  0.00  0.00    +0.202 A 
BRANCH  21  24
ATOM     24  C   UNL     1      -7.909  -9.718  16.112  0.00  0.00    +0.023 A 
ATOM     26  C   UNL     1      -8.361  -9.028  17.237  0.00  0.00    +0.015 A 
ATOM     27  C   UNL     1      -8.627  -9.650  14.918  0.00  0.00    +0.015 A 
ATOM     29  C   UNL     1      -9.529  -8.271  17.168  0.00  0.00    +0.046 A 
ATOM     30  C   UNL     1      -9.797  -8.893  14.849  0.00  0.00    +0.046 A 
ATOM     31  C   UNL     1     -10.248  -8.204  15.975  0.00  0.00    +0.130 A 
BRANCH  31   7
ATOM      7  O   UNL     1     -11.389  -7.465  15.907  0.00  0.00    -0.406 OA
BRANCH   7  32
ATOM      1  F   UNL     1     -11.347  -5.509  17.035  0.00  0.00    -0.133 F 
ATOM      2  F   UNL     1     -10.080  -5.703  15.265  0.00  0.00    -0.133 F 
ATOM      3  F   UNL     1     -12.273  -5.535  15.056  0.00  0.00    -0.133 F 
ATOM     32  C   UNL     1     -11.270  -6.051  15.797  0.00  0.00    +0.575 C 
ENDBRANCH   7  32
ENDBRANCH  31   7
ENDBRANCH  21  24
ENDBRANCH  12  17
BRANCH  14   4
ATOM      4  O   UNL     1      -0.056 -10.138  15.920  0.00  0.00    -0.390 OA
ATOM     33  H   UNL     1       0.144 -11.089  15.950  0.00  0.00    +0.210 HD
ENDBRANCH  14   4
BRANCH   9  16
ATOM     16  C   UNL     1      -3.446 -11.452  12.862  0.00  0.00    +0.120 C 
BRANCH  16  18
ATOM     18  C   UNL     1      -4.357 -10.642  11.977  0.00  0.00    -0.033 A 
ATOM     19  C   UNL     1      -3.818  -9.723  11.076  0.00  0.00    +0.006 A 
ATOM     20  C   UNL     1      -5.739 -10.811  12.057  0.00  0.00    +0.006 A 
ATOM     22  C   UNL     1      -4.660  -8.972  10.257  0.00  0.00    +0.015 A 
ATOM     23  C   UNL     1      -6.582 -10.061  11.237  0.00  0.00    +0.015 A 
ATOM     25  C   UNL     1      -6.043  -9.142  10.337  0.00  0.00    +0.059 A 
BRANCH  25  28
ATOM      8  O   UNL     1      -8.146  -8.502   9.391  0.00  0.00    -0.245 OA
ATOM     28  C   UNL     1      -6.922  -8.361   9.481  0.00  0.00    +0.337 C 
BRANCH  28   6
ATOM      6  O   UNL     1      -6.248  -7.424   8.760  0.00  0.00    -0.477 OA
ATOM     34  H   UNL     1      -5.596  -6.939   9.310  0.00  0.00    +0.295 HD
ENDBRANCH  28   6
ENDBRANCH  25  28
ENDBRANCH  16  18
ENDBRANCH   9  16
TORSDOF 9
ENDMDL
MODEL 3
REMARK VINA RESULT:      -6.6     20.414     21.508
REMARK  Name = 26744513
REMARK  9 active torsions:
REMARK  status: ('A' for Active; 'I' for Inactive)
REMARK    1  A    between atoms: O_4  and  C_14
REMARK    2  A    between atoms: O_6  and  C_28
REMARK    3  A    between atoms: O_7  and  C_31
REMARK    4  A    between atoms: O_7  and  C_32
REMARK    5  A    between atoms: N_9  and  C_16
REMARK    6  A    between atoms: C_12  and  C_17
REMARK    7  A    between atoms: C_16  and  C_18
REMARK    8  A    between atoms: C_21  and  C_24
REMARK    9  A    between atoms: C_25  and  C_28
REMARK                            x       y       z     vdW  Elec       q    Type
REMARK                         _______ _______ _______ _____ _____    ______ ____
ROOT
ATOM      9  N   UNL     1     -15.481   5.534  21.776  0.00  0.00    -0.285 NA
ATOM     12  C   UNL     1     -16.753   5.226  22.461  0.00  0.00    +0.149 C 
ATOM     13  C   UNL     1     -17.728   4.846  21.332  0.00  0.00    +0.061 C 
ATOM     14  C   UNL     1     -16.927   5.012  20.047  0.00  0.00    +0.130 C 
ATOM     15  C   UNL     1     -15.835   5.992  20.433  0.00  0.00    +0.116 C 
ENDROOT
BRANCH  12  17
ATOM      5  O   UNL     1     -16.509   2.863  23.033  0.00  0.00    -0.336 OA
ATOM     10  N   UNL     1     -16.558   4.232  24.806  0.00  0.00    -0.190 NA
ATOM     11  N   UNL     1     -16.384   2.044  24.163  0.00  0.00    -0.056 NA
ATOM     17  C   UNL     1     -16.606   4.135  23.501  0.00  0.00    +0.245 A 
ATOM     21  C   UNL     1     -16.421   2.924  25.167  0.00  0.00    +0.202 A 
BRANCH  21  24
ATOM     24  C   UNL     1     -16.323   2.529  26.543  0.00  0.00    +0.023 A 
ATOM     26  C   UNL     1     -16.639   1.223  26.920  0.00  0.00    +0.015 A 
ATOM     27  C   UNL     1     -15.912   3.452  27.505  0.00  0.00    +0.015 A 
ATOM     29  C   UNL     1     -16.544   0.841  28.257  0.00  0.00    +0.046 A 
ATOM     30  C   UNL     1     -15.817   3.070  28.843  0.00  0.00    +0.046 A 
ATOM     31  C   UNL     1     -16.134   1.765  29.219  0.00  0.00    +0.130 A 
BRANCH  31   7
ATOM      7  O   UNL     1     -16.042   1.392  30.525  0.00  0.00    -0.406 OA
BRANCH   7  32
ATOM      1  F   UNL     1     -14.638   0.818  32.197  0.00  0.00    -0.133 F 
ATOM      2  F   UNL     1     -15.305  -0.751  30.830  0.00  0.00    -0.133 F 
ATOM      3  F   UNL     1     -13.868   0.784  30.152  0.00  0.00    -0.133 F 
ATOM     32  C   UNL     1     -14.961   0.551  30.911  0.00  0.00    +0.575 C 
ENDBRANCH   7  32
ENDBRANCH  31   7
ENDBRANCH  21  24
ENDBRANCH  12  17
BRANCH  14   4
ATOM      4  O   UNL     1     -17.744   5.519  19.008  0.00  0.00    -0.390 OA
ATOM     33  H   UNL     1     -17.158   5.935  18.353  0.00  0.00    +0.210 HD
ENDBRANCH  14   4
BRANCH   9  16
ATOM     16  C   UNL     1     -14.663   6.505  22.488  0.00  0.00    +0.120 C 
BRANCH  16  18
ATOM     18  C   UNL     1     -13.633   7.137  21.590  0.00  0.00    -0.033 A 
ATOM     19  C   UNL     1     -13.757   8.476  21.221  0.00  0.00    +0.006 A 
ATOM     20  C   UNL     1     -12.554   6.383  21.127  0.00  0.00    +0.006 A 
ATOM     22  C   UNL     1     -12.804   9.062  20.388  0.00  0.00    +0.015 A 
ATOM     23  C   UNL     1     -11.601   6.969  20.295  0.00  0.00    +0.015 A 
ATOM     25  C   UNL     1     -11.725   8.308  19.926  0.00  0.00    +0.059 A 
BRANCH  25  28
ATOM      8  O   UNL     1     -10.058   9.920  19.333  0.00  0.00    -0.245 OA
ATOM     28  C   UNL     1     -10.729   8.919  19.060  0.00  0.00    +0.337 C 
BRANCH  28   6
ATOM      6  O   UNL     1     -10.600   8.263  17.874  0.00  0.00    -0.477 OA
ATOM     34  H   UNL     1     -11.266   8.561  17.218  0.00  0.00    +0.295 HD
ENDBRANCH  28   6
ENDBRANCH  25  28
ENDBRANCH  16  18
ENDBRANCH   9  16
TORSDOF 9
ENDMDL
MODEL 4
REMARK VINA RESULT:      -6.6     29.036     31.090
REMARK  Name = 26744513
REMARK  9 active torsions:
REMARK  status: ('A' for Active; 'I' for Inactive)
REMARK    1  A    between atoms: O_4  and  C_14
REMARK    2  A    between atoms: O_6  and  C_28
REMARK    3  A    between atoms: O_7  and  C_31
REMARK    4  A    between atoms: O_7  and  C_32
REMARK    5  A    between atoms: N_9  and  C_16
REMARK    6  A    between atoms: C_12  and  C_17
REMARK    7  A    between atoms: C_16  and  C_18
REMARK    8  A    between atoms: C_21  and  C_24
REMARK    9  A    between atoms: C_25  and  C_28
REMARK                            x       y       z     vdW  Elec       q    Type
REMARK                         _______ _______ _______ _____ _____    ______ ____
ROOT
ATOM      9  N   UNL     1      21.194   5.439  22.519  0.00  0.00    -0.285 NA
ATOM     12  C   UNL     1      20.752   5.906  21.189  0.00  0.00    +0.149 C 
ATOM     13  C   UNL     1      20.744   4.643  20.310  0.00  0.00    +0.061 C 
ATOM     14  C   UNL     1      21.238   3.525  21.220  0.00  0.00    +0.130 C 
ATOM     15  C   UNL     1      22.027   4.260  22.287  0.00  0.00    +0.116 C 
ENDROOT
BRANCH  12  17
ATOM      5  O   UNL     1      19.361   7.795  21.875  0.00  0.00    -0.336 OA
ATOM     10  N   UNL     1      18.258   6.213  20.736  0.00  0.00    -0.190 NA
ATOM     11  N   UNL     1      18.034   8.234  21.785  0.00  0.00    -0.056 NA
ATOM     17  C   UNL     1      19.406   6.599  21.232  0.00  0.00    +0.245 A 
ATOM     21  C   UNL     1      17.447   7.248  21.100  0.00  0.00    +0.202 A 
BRANCH  21  24
ATOM     24  C   UNL     1      16.053   7.268  20.762  0.00  0.00    +0.023 A 
ATOM     26  C   UNL     1      15.094   7.436  21.761  0.00  0.00    +0.015 A 
ATOM     27  C   UNL     1      15.656   7.116  19.433  0.00  0.00    +0.015 A 
ATOM     29  C   UNL     1      13.739   7.453  21.432  0.00  0.00    +0.046 A 
ATOM     30  C   UNL     1      14.301   7.133  19.104  0.00  0.00    +0.046 A 
ATOM     31  C   UNL     1      13.342   7.301  20.104  0.00  0.00    +0.130 A 
BRANCH  31   7
ATOM      7  O   UNL     1      12.020   7.317  19.782  0.00  0.00    -0.406 OA
BRANCH   7  32
ATOM      1  F   UNL     1      10.438   8.571  18.770  0.00  0.00    -0.133 F 
ATOM      2  F   UNL     1      10.680   8.770  20.933  0.00  0.00    -0.133 F 
ATOM      3  F   UNL     1      12.205   9.587  19.559  0.00  0.00    -0.133 F 
ATOM     32  C   UNL     1      11.344   8.570  19.776  0.00  0.00    +0.575 C 
ENDBRANCH   7  32
ENDBRANCH  31   7
ENDBRANCH  21  24
ENDBRANCH  12  17
BRANCH  14   4
ATOM      4  O   UNL     1      22.049   2.615  20.502  0.00  0.00    -0.390 OA
ATOM     33  H   UNL     1      21.597   2.419  19.664  0.00  0.00    +0.210 HD
ENDBRANCH  14   4
BRANCH   9  16
ATOM     16  C   UNL     1      21.892   6.461  23.285  0.00  0.00    +0.120 C 
BRANCH  16  18
ATOM     18  C   UNL     1      21.552   6.393  24.751  0.00  0.00    -0.033 A 
ATOM     19  C   UNL     1      22.320   5.606  25.609  0.00  0.00    +0.006 A 
ATOM     20  C   UNL     1      20.469   7.117  25.250  0.00  0.00    +0.006 A 
ATOM     22  C   UNL     1      22.005   5.542  26.966  0.00  0.00    +0.015 A 
ATOM     23  C   UNL     1      20.154   7.053  26.607  0.00  0.00    +0.015 A 
ATOM     25  C   UNL     1      20.922   6.266  27.466  0.00  0.00    +0.059 A 
BRANCH  25  28
ATOM      8  O   UNL     1      21.300   6.628  29.801  0.00  0.00    -0.245 OA
ATOM     28  C   UNL     1      20.594   6.201  28.881  0.00  0.00    +0.337 C 
BRANCH  28   6
ATOM      6  O   UNL     1      19.393   5.603  29.109  0.00  0.00    -0.477 OA
ATOM     34  H   UNL     1      18.647   6.137  28.761  0.00  0.00    +0.295 HD
ENDBRANCH  28   6
ENDBRANCH  25  28
ENDBRANCH  16  18
ENDBRANCH   9  16
TORSDOF 9
ENDMDL
MODEL 5
REMARK VINA RESULT:      -6.6     21.466     23.285
REMARK  Name = 26744513
REMARK  9 active torsions:
REMARK  status: ('A' for Active; 'I' for Inactive)
REMARK    1  A    between atoms: O_4  and  C_14
REMARK    2  A    between atoms: O_6  and  C_28
REMARK    3  A    between atoms: O_7  and  C_31
REMARK    4  A    between atoms: O_7  and  C_32
REMARK    5  A    between atoms: N_9  and  C_16
REMARK    6  A    between atoms: C_12  and  C_17
REMARK    7  A    between atoms: C_16  and  C_18
REMARK    8  A    between atoms: C_21  and  C_24
REMARK    9  A    between atoms: C_25  and  C_28
REMARK                            x       y       z     vdW  Elec       q    Type
REMARK                         _______ _______ _______ _____ _____    ______ ____
ROOT
ATOM      9  N   UNL     1     -11.463   9.441  17.537  0.00  0.00    -0.285 NA
ATOM     12  C   UNL     1     -10.787  10.462  18.363  0.00  0.00    +0.149 C 
ATOM     13  C   UNL     1     -10.623  11.677  17.432  0.00  0.00    +0.061 C 
ATOM     14  C   UNL     1     -11.195  11.229  16.093  0.00  0.00    +0.130 C 
ATOM     15  C   UNL     1     -11.088   9.717  16.150  0.00  0.00    +0.116 C 
ENDROOT
BRANCH  12  17
ATOM      5  O   UNL     1     -12.677  11.543  19.474  0.00  0.00    -0.336 OA
ATOM     10  N   UNL     1     -11.298  10.456  20.865  0.00  0.00    -0.190 NA
ATOM     11  N   UNL     1     -13.206  11.714  20.760  0.00  0.00    -0.056 NA
ATOM     17  C   UNL     1     -11.555  10.791  19.626  0.00  0.00    +0.245 A 
ATOM     21  C   UNL     1     -12.338  11.045  21.524  0.00  0.00    +0.202 A 
BRANCH  21  24
ATOM     24  C   UNL     1     -12.482  10.944  22.948  0.00  0.00    +0.023 A 
ATOM     26  C   UNL     1     -13.421  10.069  23.495  0.00  0.00    +0.015 A 
ATOM     27  C   UNL     1     -11.683  11.722  23.785  0.00  0.00    +0.015 A 
ATOM     29  C   UNL     1     -13.560   9.973  24.879  0.00  0.00    +0.046 A 
ATOM     30  C   UNL     1     -11.822  11.626  25.170  0.00  0.00    +0.046 A 
ATOM     31  C   UNL     1     -12.762  10.752  25.716  0.00  0.00    +0.130 A 
BRANCH  31   7
ATOM      7  O   UNL     1     -12.898  10.658  27.067  0.00  0.00    -0.406 OA
BRANCH   7  32
ATOM      1  F   UNL     1     -10.905  11.247  27.950  0.00  0.00    -0.133 F 
ATOM      2  F   UNL     1     -12.150   9.843  29.069  0.00  0.00    -0.133 F 
ATOM      3  F   UNL     1     -11.138   9.203  27.212  0.00  0.00    -0.133 F 
ATOM     32  C   UNL     1     -11.777  10.220  27.828  0.00  0.00    +0.575 C 
ENDBRANCH   7  32
ENDBRANCH  31   7
ENDBRANCH  21  24
ENDBRANCH  12  17
BRANCH  14   4
ATOM      4  O   UNL     1     -10.445  11.768  15.021  0.00  0.00    -0.390 OA
ATOM     33  H   UNL     1     -10.836  11.436  14.195  0.00  0.00    +0.210 HD
ENDBRANCH  14   4
BRANCH   9  16
ATOM     16  C   UNL     1     -11.141   8.077  17.930  0.00  0.00    +0.120 C 
BRANCH  16  18
ATOM     18  C   UNL     1     -12.029   7.590  19.045  0.00  0.00    -0.033 A 
ATOM     19  C   UNL     1     -13.409   7.780  18.970  0.00  0.00    +0.006 A 
ATOM     20  C   UNL     1     -11.473   6.950  20.152  0.00  0.00    +0.006 A 
ATOM     22  C   UNL     1     -14.233   7.331  20.002  0.00  0.00    +0.015 A 
ATOM     23  C   UNL     1     -12.296   6.501  21.184  0.00  0.00    +0.015 A 
ATOM     25  C   UNL     1     -13.676   6.690  21.109  0.00  0.00    +0.059 A 
BRANCH  25  28
ATOM      8  O   UNL     1     -15.001   6.921  23.088  0.00  0.00    -0.245 OA
ATOM     28  C   UNL     1     -14.534   6.219  22.184  0.00  0.00    +0.337 C 
BRANCH  28   6
ATOM      6  O   UNL     1     -14.786   4.884  22.103  0.00  0.00    -0.477 OA
ATOM     34  H   UNL     1     -14.551   4.522  21.221  0.00  0.00    +0.295 HD
ENDBRANCH  28   6
ENDBRANCH  25  28
ENDBRANCH  16  18
ENDBRANCH   9  16
TORSDOF 9
ENDMDL
MODEL 6
REMARK VINA RESULT:      -6.3     22.484     24.406
REMARK  Name = 26744513
REMARK  9 active torsions:
REMARK  status: ('A' for Active; 'I' for Inactive)
REMARK    1  A    between atoms: O_4  and  C_14
REMARK    2  A    between atoms: O_6  and  C_28
REMARK    3  A    between atoms: O_7  and  C_31
REMARK    4  A    between atoms: O_7  and  C_32
REMARK    5  A    between atoms: N_9  and  C_16
REMARK    6  A    between atoms: C_12  and  C_17
REMARK    7  A    between atoms: C_16  and  C_18
REMARK    8  A    between atoms: C_21  and  C_24
REMARK    9  A    between atoms: C_25  and  C_28
REMARK                            x       y       z     vdW  Elec       q    Type
REMARK                         _______ _______ _______ _____ _____    ______ ____
ROOT
ATOM      9  N   UNL     1     -12.979  10.793  19.628  0.00  0.00    -0.285 NA
ATOM     12  C   UNL     1     -12.584  11.875  20.553  0.00  0.00    +0.149 C 
ATOM     13  C   UNL     1     -13.296  13.130  20.018  0.00  0.00    +0.061 C 
ATOM     14  C   UNL     1     -14.030  12.665  18.767  0.00  0.00    +0.130 C 
ATOM     15  C   UNL     1     -13.258  11.430  18.342  0.00  0.00    +0.116 C 
ENDROOT
BRANCH  12  17
ATOM      5  O   UNL     1     -14.263  11.526  22.294  0.00  0.00    -0.336 OA
ATOM     10  N   UNL     1     -12.149  11.335  23.011  0.00  0.00    -0.190 NA
ATOM     11  N   UNL     1     -14.340  11.232  23.662  0.00  0.00    -0.056 NA
ATOM     17  C   UNL     1     -12.939  11.568  21.993  0.00  0.00    +0.245 A 
ATOM     21  C   UNL     1     -13.055  11.133  24.012  0.00  0.00    +0.202 A 
BRANCH  21  24
ATOM     24  C   UNL     1     -12.641  10.835  25.353  0.00  0.00    +0.023 A 
ATOM     26  C   UNL     1     -13.593  10.689  26.362  0.00  0.00    +0.015 A 
ATOM     27  C   UNL     1     -11.285  10.693  25.648  0.00  0.00    +0.015 A 
ATOM     29  C   UNL     1     -13.190  10.400  27.665  0.00  0.00    +0.046 A 
ATOM     30  C   UNL     1     -10.881  10.404  26.951  0.00  0.00    +0.046 A 
ATOM     31  C   UNL     1     -11.834  10.258  27.960  0.00  0.00    +0.130 A 
BRANCH  31   7
ATOM      7  O   UNL     1     -11.440   9.977  29.232  0.00  0.00    -0.406 OA
BRANCH   7  32
ATOM      1  F   UNL     1     -10.647  10.735  31.205  0.00  0.00    -0.133 F 
ATOM      2  F   UNL     1     -11.174  12.204  29.676  0.00  0.00    -0.133 F 
ATOM      3  F   UNL     1     -12.753  11.085  30.741  0.00  0.00    -0.133 F 
ATOM     32  C   UNL     1     -11.516  11.011  30.206  0.00  0.00    +0.575 C 
ENDBRANCH   7  32
ENDBRANCH  31   7
ENDBRANCH  21  24
ENDBRANCH  12  17
BRANCH  14   4
ATOM      4  O   UNL     1     -14.005  13.668  17.769  0.00  0.00    -0.390 OA
ATOM     33  H   UNL     1     -13.173  14.160  17.870  0.00  0.00    +0.210 HD
ENDBRANCH  14   4
BRANCH   9  16
ATOM     16  C   UNL     1     -11.979   9.741  19.513  0.00  0.00    +0.120 C 
BRANCH  16  18
ATOM     18  C   UNL     1     -12.405   8.482  20.221  0.00  0.00    -0.033 A 
ATOM     19  C   UNL     1     -13.725   8.335  20.648  0.00  0.00    +0.006 A 
ATOM     20  C   UNL     1     -11.481   7.463  20.450  0.00  0.00    +0.006 A 
ATOM     22  C   UNL     1     -14.121   7.170  21.305  0.00  0.00    +0.015 A 
ATOM     23  C   UNL     1     -11.877   6.298  21.107  0.00  0.00    +0.015 A 
ATOM     25  C   UNL     1     -13.197   6.151  21.533  0.00  0.00    +0.059 A 
BRANCH  25  28
ATOM      8  O   UNL     1     -14.738   4.435  22.171  0.00  0.00    -0.245 OA
ATOM     28  C   UNL     1     -13.609   4.935  22.216  0.00  0.00    +0.337 C 
BRANCH  28   6
ATOM      6  O   UNL     1     -12.599   4.377  22.939  0.00  0.00    -0.477 OA
ATOM     34  H   UNL     1     -11.729   4.769  22.714  0.00  0.00    +0.295 HD
ENDBRANCH  28   6
ENDBRANCH  25  28
ENDBRANCH  16  18
ENDBRANCH   9  16
TORSDOF 9
ENDMDL
MODEL 7
REMARK VINA RESULT:      -6.3      4.614      8.467
REMARK  Name = 26744513
REMARK  9 active torsions:
REMARK  status: ('A' for Active; 'I' for Inactive)
REMARK    1  A    between atoms: O_4  and  C_14
REMARK    2  A    between atoms: O_6  and  C_28
REMARK    3  A    between atoms: O_7  and  C_31
REMARK    4  A    between atoms: O_7  and  C_32
REMARK    5  A    between atoms: N_9  and  C_16
REMARK    6  A    between atoms: C_12  and  C_17
REMARK    7  A    between atoms: C_16  and  C_18
REMARK    8  A    between atoms: C_21  and  C_24
REMARK    9  A    between atoms: C_25  and  C_28
REMARK                            x       y       z     vdW  Elec       q    Type
REMARK                         _______ _______ _______ _____ _____    ______ ____
ROOT
ATOM      9  N   UNL     1      -3.440 -11.849  13.872  0.00  0.00    -0.285 NA
ATOM     12  C   UNL     1      -2.696 -11.823  12.597  0.00  0.00    +0.149 C 
ATOM     13  C   UNL     1      -2.647 -13.291  12.138  0.00  0.00    +0.061 C 
ATOM     14  C   UNL     1      -3.350 -14.073  13.241  0.00  0.00    +0.130 C 
ATOM     15  C   UNL     1      -3.217 -13.172  14.455  0.00  0.00    +0.116 C 
ENDROOT
BRANCH  12  17
ATOM      5  O   UNL     1      -2.514  -9.995  10.985  0.00  0.00    -0.336 OA
ATOM     10  N   UNL     1      -4.572 -10.864  11.153  0.00  0.00    -0.190 NA
ATOM     11  N   UNL     1      -3.316  -9.276  10.088  0.00  0.00    -0.056 NA
ATOM     17  C   UNL     1      -3.332 -10.909  11.570  0.00  0.00    +0.245 A 
ATOM     21  C   UNL     1      -4.513  -9.848  10.244  0.00  0.00    +0.202 A 
BRANCH  21  24
ATOM     24  C   UNL     1      -5.670  -9.429   9.508  0.00  0.00    +0.023 A 
ATOM     26  C   UNL     1      -5.719  -9.602   8.124  0.00  0.00    +0.015 A 
ATOM     27  C   UNL     1      -6.747  -8.846  10.176  0.00  0.00    +0.015 A 
ATOM     29  C   UNL     1      -6.843  -9.192   7.409  0.00  0.00    +0.046 A 
ATOM     30  C   UNL     1      -7.873  -8.436   9.461  0.00  0.00    +0.046 A 
ATOM     31  C   UNL     1      -7.920  -8.609   8.077  0.00  0.00    +0.130 A 
BRANCH  31   7
ATOM      7  O   UNL     1      -9.018  -8.209   7.380  0.00  0.00    -0.406 OA
BRANCH   7  32
ATOM      1  F   UNL     1      -8.683  -7.015   5.493  0.00  0.00    -0.133 F 
ATOM      2  F   UNL     1     -10.233  -6.337   6.877  0.00  0.00    -0.133 F 
ATOM      3  F   UNL     1      -8.097  -6.115   7.396  0.00  0.00    -0.133 F 
ATOM     32  C   UNL     1      -9.012  -6.909   6.801  0.00  0.00    +0.575 C 
ENDBRANCH   7  32
ENDBRANCH  31   7
ENDBRANCH  21  24
ENDBRANCH  12  17
BRANCH  14   4
ATOM      4  O   UNL     1      -2.724 -15.325  13.447  0.00  0.00    -0.390 OA
ATOM     33  H   UNL     1      -2.069 -15.211  14.156  0.00  0.00    +0.210 HD
ENDBRANCH  14   4
BRANCH   9  16
ATOM     16  C   UNL     1      -3.060 -10.778  14.783  0.00  0.00    +0.120 C 
BRANCH  16  18
ATOM     18  C   UNL     1      -3.942 -10.740  16.003  0.00  0.00    -0.033 A 
ATOM     19  C   UNL     1      -5.233 -10.219  15.914  0.00  0.00    +0.006 A 
ATOM     20  C   UNL     1      -3.468 -11.225  17.222  0.00  0.00    +0.006 A 
ATOM     22  C   UNL     1      -6.050 -10.182  17.043  0.00  0.00    +0.015 A 
ATOM     23  C   UNL     1      -4.286 -11.188  18.351  0.00  0.00    +0.015 A 
ATOM     25  C   UNL     1      -5.577 -10.668  18.262  0.00  0.00    +0.059 A 
BRANCH  25  28
ATOM      8  O   UNL     1      -6.161 -11.139  20.534  0.00  0.00    -0.245 OA
ATOM     28  C   UNL     1      -6.429 -10.632  19.440  0.00  0.00    +0.337 C 
BRANCH  28   6
ATOM      6  O   UNL     1      -7.594  -9.964  19.218  0.00  0.00    -0.477 OA
ATOM     34  H   UNL     1      -7.503  -9.299  18.502  0.00  0.00    +0.295 HD
ENDBRANCH  28   6
ENDBRANCH  25  28
ENDBRANCH  16  18
ENDBRANCH   9  16
TORSDOF 9
ENDMDL
MODEL 8
REMARK VINA RESULT:      -6.2      3.586      7.186
REMARK  Name = 26744513
REMARK  9 active torsions:
REMARK  status: ('A' for Active; 'I' for Inactive)
REMARK    1  A    between atoms: O_4  and  C_14
REMARK    2  A    between atoms: O_6  and  C_28
REMARK    3  A    between atoms: O_7  and  C_31
REMARK    4  A    between atoms: O_7  and  C_32
REMARK    5  A    between atoms: N_9  and  C_16
REMARK    6  A    between atoms: C_12  and  C_17
REMARK    7  A    between atoms: C_16  and  C_18
REMARK    8  A    between atoms: C_21  and  C_24
REMARK    9  A    between atoms: C_25  and  C_28
REMARK                            x       y       z     vdW  Elec       q    Type
REMARK                         _______ _______ _______ _____ _____    ______ ____
ROOT
ATOM      9  N   UNL     1      -8.158  -8.721   7.272  0.00  0.00    -0.285 NA
ATOM     12  C   UNL     1      -7.181  -9.803   7.510  0.00  0.00    +0.149 C 
ATOM     13  C   UNL     1      -6.442  -9.969   6.170  0.00  0.00    +0.061 C 
ATOM     14  C   UNL     1      -7.102  -8.969   5.228  0.00  0.00    +0.130 C 
ATOM     15  C   UNL     1      -8.472  -8.754   5.844  0.00  0.00    +0.116 C 
ENDROOT
BRANCH  12  17
ATOM      5  O   UNL     1      -6.022  -8.188   8.930  0.00  0.00    -0.336 OA
ATOM     10  N   UNL     1      -5.606 -10.327   9.451  0.00  0.00    -0.190 NA
ATOM     11  N   UNL     1      -5.138  -8.160  10.018  0.00  0.00    -0.056 NA
ATOM     17  C   UNL     1      -6.245  -9.501   8.662  0.00  0.00    +0.245 A 
ATOM     21  C   UNL     1      -4.942  -9.458  10.267  0.00  0.00    +0.202 A 
BRANCH  21  24
ATOM     24  C   UNL     1      -4.088  -9.920  11.323  0.00  0.00    +0.023 A 
ATOM     26  C   UNL     1      -2.715 -10.044  11.107  0.00  0.00    +0.015 A 
ATOM     27  C   UNL     1      -4.631 -10.247  12.565  0.00  0.00    +0.015 A 
ATOM     29  C   UNL     1      -1.886 -10.495  12.133  0.00  0.00    +0.046 A 
ATOM     30  C   UNL     1      -3.801 -10.698  13.592  0.00  0.00    +0.046 A 
ATOM     31  C   UNL     1      -2.429 -10.823  13.375  0.00  0.00    +0.130 A 
BRANCH  31   7
ATOM      7  O   UNL     1      -1.620 -11.263  14.378  0.00  0.00    -0.406 OA
BRANCH   7  32
ATOM      1  F   UNL     1      -1.077  -9.110  14.787  0.00  0.00    -0.133 F 
ATOM      2  F   UNL     1      -2.108 -10.226  16.357  0.00  0.00    -0.133 F 
ATOM      3  F   UNL     1       0.002 -10.667  15.876  0.00  0.00    -0.133 F 
ATOM     32  C   UNL     1      -1.200 -10.327  15.364  0.00  0.00    +0.575 C 
ENDBRANCH   7  32
ENDBRANCH  31   7
ENDBRANCH  21  24
ENDBRANCH  12  17
BRANCH  14   4
ATOM      4  O   UNL     1      -7.193  -9.497   3.919  0.00  0.00    -0.390 OA
ATOM     33  H   UNL     1      -6.825  -8.834   3.310  0.00  0.00    +0.210 HD
ENDBRANCH  14   4
BRANCH   9  16
ATOM     16  C   UNL     1      -9.352  -8.832   8.098  0.00  0.00    +0.120 C 
BRANCH  16  18
ATOM     18  C   UNL     1      -9.961  -7.485   8.386  0.00  0.00    -0.033 A 
ATOM     19  C   UNL     1      -9.168  -6.338   8.344  0.00  0.00    +0.006 A 
ATOM     20  C   UNL     1     -11.318  -7.384   8.694  0.00  0.00    +0.006 A 
ATOM     22  C   UNL     1      -9.732  -5.090   8.611  0.00  0.00    +0.015 A 
ATOM     23  C   UNL     1     -11.881  -6.136   8.961  0.00  0.00    +0.015 A 
ATOM     25  C   UNL     1     -11.089  -4.989   8.919  0.00  0.00    +0.059 A 
BRANCH  25  28
ATOM      8  O   UNL     1     -12.840  -3.492   9.565  0.00  0.00    -0.245 OA
ATOM     28  C   UNL     1     -11.677  -3.689   9.196  0.00  0.00    +0.337 C 
BRANCH  28   6
ATOM      6  O   UNL     1     -10.797  -2.668   9.003  0.00  0.00    -0.477 OA
ATOM     34  H   UNL     1     -10.591  -2.539   8.053  0.00  0.00    +0.295 HD
ENDBRANCH  28   6
ENDBRANCH  25  28
ENDBRANCH  16  18
ENDBRANCH   9  16
TORSDOF 9
ENDMDL
MODEL 9
REMARK VINA RESULT:      -6.2     26.109     28.143
REMARK  Name = 26744513
REMARK  9 active torsions:
REMARK  status: ('A' for Active; 'I' for Inactive)
REMARK    1  A    between atoms: O_4  and  C_14
REMARK    2  A    between atoms: O_6  and  C_28
REMARK    3  A    between atoms: O_7  and  C_31
REMARK    4  A    between atoms: O_7  and  C_32
REMARK    5  A    between atoms: N_9  and  C_16
REMARK    6  A    between atoms: C_12  and  C_17
REMARK    7  A    between atoms: C_16  and  C_18
REMARK    8  A    between atoms: C_21  and  C_24
REMARK    9  A    between atoms: C_25  and  C_28
REMARK                            x       y       z     vdW  Elec       q    Type
REMARK                         _______ _______ _______ _____ _____    ______ ____
ROOT
ATOM      9  N   UNL     1      10.172   6.932   4.316  0.00  0.00    -0.285 NA
ATOM     12  C   UNL     1      10.762   8.066   5.056  0.00  0.00    +0.149 C 
ATOM     13  C   UNL     1       9.875   8.227   6.304  0.00  0.00    +0.061 C 
ATOM     14  C   UNL     1       8.787   7.170   6.154  0.00  0.00    +0.130 C 
ATOM     15  C   UNL     1       8.751   6.908   4.660  0.00  0.00    +0.116 C 
ENDROOT
BRANCH  12  17
ATOM      5  O   UNL     1      12.475   7.008   6.441  0.00  0.00    -0.336 OA
ATOM     10  N   UNL     1      13.292   8.339   4.835  0.00  0.00    -0.190 NA
ATOM     11  N   UNL     1      13.870   6.960   6.566  0.00  0.00    -0.056 NA
ATOM     17  C   UNL     1      12.220   7.842   5.399  0.00  0.00    +0.245 A 
ATOM     21  C   UNL     1      14.279   7.769   5.585  0.00  0.00    +0.202 A 
BRANCH  21  24
ATOM     24  C   UNL     1      15.666   8.028   5.326  0.00  0.00    +0.023 A 
ATOM     26  C   UNL     1      16.207   7.748   4.070  0.00  0.00    +0.015 A 
ATOM     27  C   UNL     1      16.474   8.559   6.331  0.00  0.00    +0.015 A 
ATOM     29  C   UNL     1      17.555   8.000   3.820  0.00  0.00    +0.046 A 
ATOM     30  C   UNL     1      17.823   8.811   6.081  0.00  0.00    +0.046 A 
ATOM     31  C   UNL     1      18.364   8.530   4.826  0.00  0.00    +0.130 A 
BRANCH  31   7
ATOM      7  O   UNL     1      19.680   8.775   4.582  0.00  0.00    -0.406 OA
BRANCH   7  32
ATOM      1  F   UNL     1      20.208   6.581   4.524  0.00  0.00    -0.133 F 
ATOM      2  F   UNL     1      21.837   8.034   4.408  0.00  0.00    -0.133 F 
ATOM      3  F   UNL     1      20.751   7.721   6.307  0.00  0.00    -0.133 F 
ATOM     32  C   UNL     1      20.632   7.788   4.964  0.00  0.00    +0.575 C 
ENDBRANCH   7  32
ENDBRANCH  31   7
ENDBRANCH  21  24
ENDBRANCH  12  17
BRANCH  14   4
ATOM      4  O   UNL     1       7.547   7.655   6.633  0.00  0.00    -0.390 OA
ATOM     33  H   UNL     1       7.058   6.897   6.995  0.00  0.00    +0.210 HD
ENDBRANCH  14   4
BRANCH   9  16
ATOM     16  C   UNL     1      10.386   7.010   2.878  0.00  0.00    +0.120 C 
BRANCH  16  18
ATOM     18  C   UNL     1      11.555   6.169   2.439  0.00  0.00    -0.033 A 
ATOM     19  C   UNL     1      12.724   6.782   1.986  0.00  0.00    +0.006 A 
ATOM     20  C   UNL     1      11.470   4.778   2.484  0.00  0.00    +0.006 A 
ATOM     22  C   UNL     1      13.807   6.004   1.578  0.00  0.00    +0.015 A 
ATOM     23  C   UNL     1      12.554   3.999   2.077  0.00  0.00    +0.015 A 
ATOM     25  C   UNL     1      13.722   4.612   1.625  0.00  0.00    +0.059 A 
BRANCH  25  28
ATOM      8  O   UNL     1      15.270   3.701   0.043  0.00  0.00    -0.245 OA
ATOM     28  C   UNL     1      14.852   3.800   1.202  0.00  0.00    +0.337 C 
BRANCH  28   6
ATOM      6  O   UNL     1      15.429   3.132   2.238  0.00  0.00    -0.477 OA
ATOM     34  H   UNL     1      16.204   2.605   1.946  0.00  0.00    +0.295 HD
ENDBRANCH  28   6
ENDBRANCH  25  28
ENDBRANCH  16  18
ENDBRANCH   9  16
TORSDOF 9
ENDMDL
MODEL 10
REMARK VINA RESULT:      -6.2     24.833     28.438
REMARK  Name = 26744513
REMARK  9 active torsions:
REMARK  status: ('A' for Active; 'I' for Inactive)
REMARK    1  A    between atoms: O_4  and  C_14
REMARK    2  A    between atoms: O_6  and  C_28
REMARK    3  A    between atoms: O_7  and  C_31
REMARK    4  A    between atoms: O_7  and  C_32
REMARK    5  A    between atoms: N_9  and  C_16
REMARK    6  A    between atoms: C_12  and  C_17
REMARK    7  A    between atoms: C_16  and  C_18
REMARK    8  A    between atoms: C_21  and  C_24
REMARK    9  A    between atoms: C_25  and  C_28
REMARK                            x       y       z     vdW  Elec       q    Type
REMARK                         _______ _______ _______ _____ _____    ______ ____
ROOT
ATOM      9  N   UNL     1     -12.145   9.826  33.031  0.00  0.00    -0.285 NA
ATOM     12  C   UNL     1     -13.386   9.571  32.272  0.00  0.00    +0.149 C 
ATOM     13  C   UNL     1     -12.969   9.659  30.793  0.00  0.00    +0.061 C 
ATOM     14  C   UNL     1     -11.487  10.012  30.822  0.00  0.00    +0.130 C 
ATOM     15  C   UNL     1     -11.304  10.665  32.179  0.00  0.00    +0.116 C 
ENDROOT
BRANCH  12  17
ATOM      5  O   UNL     1     -15.115   8.287  33.427  0.00  0.00    -0.336 OA
ATOM     10  N   UNL     1     -13.669   7.033  32.264  0.00  0.00    -0.190 NA
ATOM     11  N   UNL     1     -15.518   6.957  33.610  0.00  0.00    -0.056 NA
ATOM     17  C   UNL     1     -14.021   8.241  32.623  0.00  0.00    +0.245 A 
ATOM     21  C   UNL     1     -14.617   6.279  32.893  0.00  0.00    +0.202 A 
BRANCH  21  24
ATOM     24  C   UNL     1     -14.636   4.849  32.785  0.00  0.00    +0.023 A 
ATOM     26  C   UNL     1     -15.755   4.131  33.208  0.00  0.00    +0.015 A 
ATOM     27  C   UNL     1     -13.534   4.176  32.257  0.00  0.00    +0.015 A 
ATOM     29  C   UNL     1     -15.772   2.741  33.103  0.00  0.00    +0.046 A 
ATOM     30  C   UNL     1     -13.551   2.785  32.152  0.00  0.00    +0.046 A 
ATOM     31  C   UNL     1     -14.670   2.068  32.576  0.00  0.00    +0.130 A 
BRANCH  31   7
ATOM      7  O   UNL     1     -14.686   0.711  32.474  0.00  0.00    -0.406 OA
BRANCH   7  32
ATOM      1  F   UNL     1     -13.719  -0.083  30.594  0.00  0.00    -0.133 F 
ATOM      2  F   UNL     1     -15.547  -1.053  31.299  0.00  0.00    -0.133 F 
ATOM      3  F   UNL     1     -15.627   0.966  30.405  0.00  0.00    -0.133 F 
ATOM     32  C   UNL     1     -14.913   0.134  31.193  0.00  0.00    +0.575 C 
ENDBRANCH   7  32
ENDBRANCH  31   7
ENDBRANCH  21  24
ENDBRANCH  12  17
BRANCH  14   4
ATOM      4  O   UNL     1     -11.161  10.897  29.766  0.00  0.00    -0.390 OA
ATOM     33  H   UNL     1     -10.251  10.698  29.489  0.00  0.00    +0.210 HD
ENDBRANCH  14   4
BRANCH   9  16
ATOM     16  C   UNL     1     -12.382  10.433  34.334  0.00  0.00    +0.120 C 
BRANCH  16  18
ATOM     18  C   UNL     1     -11.840   9.585  35.454  0.00  0.00    -0.033 A 
ATOM     19  C   UNL     1     -10.559   9.822  35.951  0.00  0.00    +0.006 A 
ATOM     20  C   UNL     1     -12.620   8.561  35.994  0.00  0.00    +0.006 A 
ATOM     22  C   UNL     1     -10.056   9.036  36.988  0.00  0.00    +0.015 A 
ATOM     23  C   UNL     1     -12.117   7.776  37.031  0.00  0.00    +0.015 A 
ATOM     25  C   UNL     1     -10.836   8.014  37.529  0.00  0.00    +0.059 A 
BRANCH  25  28
ATOM      8  O   UNL     1      -9.597   7.599  39.534  0.00  0.00    -0.245 OA
ATOM     28  C   UNL     1     -10.313   7.195  38.611  0.00  0.00    +0.337 C 
BRANCH  28   6
ATOM      6  O   UNL     1     -10.698   5.893  38.512  0.00  0.00    -0.477 OA
ATOM     34  H   UNL     1     -11.462   5.693  39.094  0.00  0.00    +0.295 HD
ENDBRANCH  28   6
ENDBRANCH  25  28
ENDBRANCH  16  18
ENDBRANCH   9  16
TORSDOF 9
ENDMDL
