MODEL 1
REMARK VINA RESULT:      -6.2      0.000      0.000
REMARK  Name = 38028604
REMARK  13 active torsions:
REMARK  status: ('A' for Active; 'I' for Inactive)
REMARK    1  A    between atoms: S_1  and  N_5
REMARK    2  A    between atoms: S_1  and  C_20
REMARK    3  A    between atoms: N_5  and  C_14
REMARK    4  A    between atoms: N_6  and  C_22
REMARK    5  A    between atoms: C_7  and  C_11
REMARK    6  A    between atoms: C_8  and  C_14
REMARK    7  A    between atoms: C_10  and  C_15
REMARK    8  A    between atoms: C_11  and  C_16
REMARK    9  A    between atoms: C_11  and  C_17
REMARK   10  A    between atoms: C_12  and  C_18
REMARK   11  A    between atoms: C_15  and  C_19
REMARK   12  A    between atoms: C_20  and  C_21
REMARK   13  A    between atoms: C_22  and  C_25
REMARK                            x       y       z     vdW  Elec       q    Type
REMARK                         _______ _______ _______ _____ _____    ______ ____
ROOT
ATOM      7  C   UNL     1      14.078   9.317  18.758  0.00  0.00    +0.000 C 
ATOM      8  C   UNL     1      14.079   7.810  18.398  0.00  0.00    +0.030 C 
ATOM      9  C   UNL     1      15.494   9.780  19.132  0.00  0.00    +0.012 C 
ATOM     10  C   UNL     1      16.070   8.992  20.324  0.00  0.00    +0.023 C 
ATOM     12  C   UNL     1      15.866   7.500  20.164  0.00  0.00    -0.073 C 
ATOM     13  C   UNL     1      14.981   6.990  19.289  0.00  0.00    -0.023 C 
ATOM     18  C   UNL     1      16.736   6.604  21.002  0.00  0.00    +0.039 C 
ENDROOT
BRANCH   7  11
ATOM     11  C   UNL     1      13.537  10.177  17.612  0.00  0.00    -0.013 C 
ATOM     16  C   UNL     1      13.818  11.653  17.874  0.00  0.00    +0.007 C 
ATOM     17  C   UNL     1      14.145   9.737  16.284  0.00  0.00    +0.007 C 
ENDBRANCH   7  11
BRANCH   8  14
ATOM     14  C   UNL     1      12.659   7.231  18.437  0.00  0.00    +0.113 C 
BRANCH  14   5
ATOM      5  N   UNL     1      12.499   6.355  19.554  0.00  0.00    -0.194 NA
ATOM     30  H   UNL     1      12.269   5.383  19.309  0.00  0.00    +0.148 HD
BRANCH   5   1
ATOM      1  S   UNL     1      11.775   6.924  21.018  0.00  0.00    +0.033 S 
ATOM      3  O   UNL     1      12.820   7.391  21.909  0.00  0.00    -0.158 OA
ATOM      4  O   UNL     1      10.781   5.973  21.476  0.00  0.00    -0.158 OA
BRANCH   1  20
ATOM     20  C   UNL     1      10.906   8.347  20.402  0.00  0.00    +0.220 C 
BRANCH  20  21
ATOM     21  C   UNL     1      11.180   9.488  21.331  0.00  0.00    -0.025 A 
ATOM     23  C   UNL     1      10.635   9.488  22.616  0.00  0.00    +0.005 A 
ATOM     24  C   UNL     1      11.981  10.552  20.914  0.00  0.00    +0.005 A 
ATOM     26  C   UNL     1      10.890  10.550  23.483  0.00  0.00    +0.000 A 
ATOM     27  C   UNL     1      12.235  11.614  21.781  0.00  0.00    +0.000 A 
ATOM     28  C   UNL     1      11.691  11.614  23.065  0.00  0.00    +0.000 A 
ENDBRANCH  20  21
ENDBRANCH   1  20
ENDBRANCH   5   1
ENDBRANCH  14   5
ENDBRANCH   8  14
BRANCH  10  15
ATOM     15  C   UNL     1      15.480   9.489  21.649  0.00  0.00    +0.103 C 
BRANCH  15  19
ATOM      2  O   UNL     1      15.710  11.735  22.521  0.00  0.00    -0.276 OA
ATOM      6  N   UNL     1      17.597  10.398  22.289  0.00  0.00    -0.304 N 
ATOM     19  C   UNL     1      16.239  10.674  22.200  0.00  0.00    +0.214 C 
ATOM     31  H   UNL     1      17.935   9.479  22.013  0.00  0.00    +0.150 HD
BRANCH   6  22
ATOM     22  C   UNL     1      18.565  11.349  22.781  0.00  0.00    +0.193 C 
BRANCH  22  25
ATOM     25  C   UNL     1      19.219  12.053  21.679  0.00  0.00    -0.087 C 
ATOM     29  C   UNL     1      19.755  12.629  20.772  0.00  0.00    +0.005 C 
ENDBRANCH  22  25
ENDBRANCH   6  22
ENDBRANCH  15  19
ENDBRANCH  10  15
TORSDOF 10
ENDMDL
MODEL 2
REMARK VINA RESULT:      -5.7      2.879      4.964
REMARK  Name = 38028604
REMARK  13 active torsions:
REMARK  status: ('A' for Active; 'I' for Inactive)
REMARK    1  A    between atoms: S_1  and  N_5
REMARK    2  A    between atoms: S_1  and  C_20
REMARK    3  A    between atoms: N_5  and  C_14
REMARK    4  A    between atoms: N_6  and  C_22
REMARK    5  A    between atoms: C_7  and  C_11
REMARK    6  A    between atoms: C_8  and  C_14
REMARK    7  A    between atoms: C_10  and  C_15
REMARK    8  A    between atoms: C_11  and  C_16
REMARK    9  A    between atoms: C_11  and  C_17
REMARK   10  A    between atoms: C_12  and  C_18
REMARK   11  A    between atoms: C_15  and  C_19
REMARK   12  A    between atoms: C_20  and  C_21
REMARK   13  A    between atoms: C_22  and  C_25
REMARK                            x       y       z     vdW  Elec       q    Type
REMARK                         _______ _______ _______ _____ _____    ______ ____
ROOT
ATOM      7  C   UNL     1      13.264   8.491  20.760  0.00  0.00    +0.000 C 
ATOM      8  C   UNL     1      14.110   8.702  22.040  0.00  0.00    +0.030 C 
ATOM      9  C   UNL     1      13.365   7.034  20.283  0.00  0.00    +0.012 C 
ATOM     10  C   UNL     1      14.817   6.618  19.983  0.00  0.00    +0.023 C 
ATOM     12  C   UNL     1      15.763   7.036  21.090  0.00  0.00    -0.073 C 
ATOM     13  C   UNL     1      15.425   7.959  22.008  0.00  0.00    -0.023 C 
ATOM     18  C   UNL     1      17.092   6.334  21.146  0.00  0.00    +0.039 C 
ENDROOT
BRANCH   7  11
ATOM     11  C   UNL     1      11.794   8.864  20.980  0.00  0.00    -0.013 C 
ATOM     16  C   UNL     1      10.989   8.632  19.706  0.00  0.00    +0.007 C 
ATOM     17  C   UNL     1      11.212   8.065  22.142  0.00  0.00    +0.007 C 
ENDBRANCH   7  11
BRANCH   8  14
ATOM     14  C   UNL     1      14.372  10.192  22.291  0.00  0.00    +0.113 C 
BRANCH  14   5
ATOM      5  N   UNL     1      14.431  10.467  23.692  0.00  0.00    -0.194 NA
ATOM     30  H   UNL     1      14.521   9.636  24.291  0.00  0.00    +0.148 HD
BRANCH   5   1
ATOM      1  S   UNL     1      13.496  11.753  24.373  0.00  0.00    +0.033 S 
ATOM      3  O   UNL     1      13.822  12.987  23.684  0.00  0.00    -0.158 OA
ATOM      4  O   UNL     1      13.540  11.678  25.820  0.00  0.00    -0.158 OA
BRANCH   1  20
ATOM     20  C   UNL     1      11.867  11.256  23.863  0.00  0.00    +0.220 C 
BRANCH  20  21
ATOM     21  C   UNL     1      11.109  12.491  23.488  0.00  0.00    -0.025 A 
ATOM     23  C   UNL     1      10.940  12.824  22.143  0.00  0.00    +0.005 A 
ATOM     24  C   UNL     1      10.572  13.310  24.482  0.00  0.00    +0.005 A 
ATOM     26  C   UNL     1      10.234  13.975  21.793  0.00  0.00    +0.000 A 
ATOM     27  C   UNL     1       9.867  14.461  24.131  0.00  0.00    +0.000 A 
ATOM     28  C   UNL     1       9.697  14.794  22.787  0.00  0.00    +0.000 A 
ENDBRANCH  20  21
ENDBRANCH   1  20
ENDBRANCH   5   1
ENDBRANCH  14   5
ENDBRANCH   8  14
BRANCH  10  15
ATOM     15  C   UNL     1      15.280   7.169  18.629  0.00  0.00    +0.103 C 
BRANCH  15  19
ATOM      2  O   UNL     1      13.239   7.470  17.362  0.00  0.00    -0.276 OA
ATOM      6  N   UNL     1      14.441   9.334  18.059  0.00  0.00    -0.304 N 
ATOM     19  C   UNL     1      14.198   7.973  17.943  0.00  0.00    +0.214 C 
ATOM     31  H   UNL     1      15.257   9.650  18.576  0.00  0.00    +0.150 HD
BRANCH   6  22
ATOM     22  C   UNL     1      13.572  10.341  17.498  0.00  0.00    +0.193 C 
BRANCH  22  25
ATOM     25  C   UNL     1      13.364  11.442  18.437  0.00  0.00    -0.087 C 
ATOM     29  C   UNL     1      13.196  12.349  19.207  0.00  0.00    +0.005 C 
ENDBRANCH  22  25
ENDBRANCH   6  22
ENDBRANCH  15  19
ENDBRANCH  10  15
TORSDOF 10
ENDMDL
MODEL 3
REMARK VINA RESULT:      -5.6     27.428     29.434
REMARK  Name = 38028604
REMARK  13 active torsions:
REMARK  status: ('A' for Active; 'I' for Inactive)
REMARK    1  A    between atoms: S_1  and  N_5
REMARK    2  A    between atoms: S_1  and  C_20
REMARK    3  A    between atoms: N_5  and  C_14
REMARK    4  A    between atoms: N_6  and  C_22
REMARK    5  A    between atoms: C_7  and  C_11
REMARK    6  A    between atoms: C_8  and  C_14
REMARK    7  A    between atoms: C_10  and  C_15
REMARK    8  A    between atoms: C_11  and  C_16
REMARK    9  A    between atoms: C_11  and  C_17
REMARK   10  A    between atoms: C_12  and  C_18
REMARK   11  A    between atoms: C_15  and  C_19
REMARK   12  A    between atoms: C_20  and  C_21
REMARK   13  A    between atoms: C_22  and  C_25
REMARK                            x       y       z     vdW  Elec       q    Type
REMARK                         _______ _______ _______ _____ _____    ______ ____
ROOT
ATOM      7  C   UNL     1      -5.636 -10.824  17.256  0.00  0.00    +0.000 C 
ATOM      8  C   UNL     1      -4.726 -11.730  16.390  0.00  0.00    +0.030 C 
ATOM      9  C   UNL     1      -7.091 -11.311  17.196  0.00  0.00    +0.012 C 
ATOM     10  C   UNL     1      -7.642 -11.325  15.758  0.00  0.00    +0.023 C 
ATOM     12  C   UNL     1      -6.673 -11.970  14.789  0.00  0.00    -0.073 C 
ATOM     13  C   UNL     1      -5.376 -12.155  15.094  0.00  0.00    -0.023 C 
ATOM     18  C   UNL     1      -7.238 -12.440  13.477  0.00  0.00    +0.039 C 
ENDROOT
BRANCH   7  11
ATOM     11  C   UNL     1      -5.166 -10.771  18.713  0.00  0.00    -0.013 C 
ATOM     16  C   UNL     1      -6.327 -10.408  19.634  0.00  0.00    +0.007 C 
ATOM     17  C   UNL     1      -4.548 -12.104  19.121  0.00  0.00    +0.007 C 
ENDBRANCH   7  11
BRANCH   8  14
ATOM     14  C   UNL     1      -3.387 -11.045  16.089  0.00  0.00    +0.113 C 
BRANCH  14   5
ATOM      5  N   UNL     1      -3.387 -10.488  14.772  0.00  0.00    -0.194 NA
ATOM     30  H   UNL     1      -4.321 -10.309  14.381  0.00  0.00    +0.148 HD
BRANCH   5   1
ATOM      1  S   UNL     1      -2.197 -10.973  13.615  0.00  0.00    +0.033 S 
ATOM      3  O   UNL     1      -1.416 -12.061  14.171  0.00  0.00    -0.158 OA
ATOM      4  O   UNL     1      -1.547  -9.801  13.060  0.00  0.00    -0.158 OA
BRANCH   1  20
ATOM     20  C   UNL     1      -3.249 -11.646  12.351  0.00  0.00    +0.220 C 
BRANCH  20  21
ATOM     21  C   UNL     1      -3.841 -10.500  11.591  0.00  0.00    -0.025 A 
ATOM     23  C   UNL     1      -5.011  -9.890  12.046  0.00  0.00    +0.005 A 
ATOM     24  C   UNL     1      -3.223 -10.040  10.427  0.00  0.00    +0.005 A 
ATOM     26  C   UNL     1      -5.563  -8.823  11.339  0.00  0.00    +0.000 A 
ATOM     27  C   UNL     1      -3.775  -8.973   9.720  0.00  0.00    +0.000 A 
ATOM     28  C   UNL     1      -4.944  -8.364  10.175  0.00  0.00    +0.000 A 
ENDBRANCH  20  21
ENDBRANCH   1  20
ENDBRANCH   5   1
ENDBRANCH  14   5
ENDBRANCH   8  14
BRANCH  10  15
ATOM     15  C   UNL     1      -8.020  -9.912  15.298  0.00  0.00    +0.103 C 
BRANCH  15  19
ATOM      2  O   UNL     1     -10.291 -10.151  16.098  0.00  0.00    -0.276 OA
ATOM      6  N   UNL     1      -9.223  -8.094  16.280  0.00  0.00    -0.304 N 
ATOM     19  C   UNL     1      -9.308  -9.434  15.928  0.00  0.00    +0.214 C 
ATOM     31  H   UNL     1      -8.356  -7.591  16.112  0.00  0.00    +0.150 HD
BRANCH   6  22
ATOM     22  C   UNL     1     -10.308  -7.371  16.902  0.00  0.00    +0.193 C 
BRANCH  22  25
ATOM     25  C   UNL     1     -11.004  -6.527  15.931  0.00  0.00    -0.087 C 
ATOM     29  C   UNL     1     -11.579  -5.834  15.137  0.00  0.00    +0.005 C 
ENDBRANCH  22  25
ENDBRANCH   6  22
ENDBRANCH  15  19
ENDBRANCH  10  15
TORSDOF 10
ENDMDL
MODEL 4
REMARK VINA RESULT:      -5.5     27.306     29.635
REMARK  Name = 38028604
REMARK  13 active torsions:
REMARK  status: ('A' for Active; 'I' for Inactive)
REMARK    1  A    between atoms: S_1  and  N_5
REMARK    2  A    between atoms: S_1  and  C_20
REMARK    3  A    between atoms: N_5  and  C_14
REMARK    4  A    between atoms: N_6  and  C_22
REMARK    5  A    between atoms: C_7  and  C_11
REMARK    6  A    between atoms: C_8  and  C_14
REMARK    7  A    between atoms: C_10  and  C_15
REMARK    8  A    between atoms: C_11  and  C_16
REMARK    9  A    between atoms: C_11  and  C_17
REMARK   10  A    between atoms: C_12  and  C_18
REMARK   11  A    between atoms: C_15  and  C_19
REMARK   12  A    between atoms: C_20  and  C_21
REMARK   13  A    between atoms: C_22  and  C_25
REMARK                            x       y       z     vdW  Elec       q    Type
REMARK                         _______ _______ _______ _____ _____    ______ ____
ROOT
ATOM      7  C   UNL     1      -5.344 -11.787  17.502  0.00  0.00    +0.000 C 
ATOM      8  C   UNL     1      -6.820 -11.602  17.072  0.00  0.00    +0.030 C 
ATOM      9  C   UNL     1      -4.502 -10.579  17.067  0.00  0.00    +0.012 C 
ATOM     10  C   UNL     1      -4.542 -10.359  15.543  0.00  0.00    +0.023 C 
ATOM     12  C   UNL     1      -5.955 -10.430  15.001  0.00  0.00    -0.073 C 
ATOM     13  C   UNL     1      -6.963 -10.977  15.703  0.00  0.00    -0.023 C 
ATOM     18  C   UNL     1      -6.193  -9.816  13.649  0.00  0.00    +0.039 C 
ENDROOT
BRANCH   7  11
ATOM     11  C   UNL     1      -5.213 -11.992  19.015  0.00  0.00    -0.013 C 
ATOM     16  C   UNL     1      -3.744 -12.066  19.418  0.00  0.00    +0.007 C 
ATOM     17  C   UNL     1      -5.925 -10.873  19.767  0.00  0.00    +0.007 C 
ENDBRANCH   7  11
BRANCH   8  14
ATOM     14  C   UNL     1      -7.578 -12.934  17.106  0.00  0.00    +0.113 C 
BRANCH  14   5
ATOM      5  N   UNL     1      -8.527 -12.951  18.175  0.00  0.00    -0.194 NA
ATOM     30  H   UNL     1      -8.518 -13.807  18.745  0.00  0.00    +0.148 HD
BRANCH   5   1
ATOM      1  S   UNL     1     -10.086 -12.230  17.975  0.00  0.00    +0.033 S 
ATOM      3  O   UNL     1     -11.067 -13.029  18.685  0.00  0.00    -0.158 OA
ATOM      4  O   UNL     1     -10.287 -11.872  16.585  0.00  0.00    -0.158 OA
BRANCH   1  20
ATOM     20  C   UNL     1      -9.849 -10.721  18.884  0.00  0.00    +0.220 C 
BRANCH  20  21
ATOM     21  C   UNL     1     -10.283  -9.587  18.008  0.00  0.00    -0.025 A 
ATOM     23  C   UNL     1      -9.329  -8.790  17.374  0.00  0.00    +0.005 A 
ATOM     24  C   UNL     1     -11.641  -9.327  17.825  0.00  0.00    +0.005 A 
ATOM     26  C   UNL     1      -9.732  -7.733  16.559  0.00  0.00    +0.000 A 
ATOM     27  C   UNL     1     -12.045  -8.270  17.010  0.00  0.00    +0.000 A 
ATOM     28  C   UNL     1     -11.091  -7.474  16.376  0.00  0.00    +0.000 A 
ENDBRANCH  20  21
ENDBRANCH   1  20
ENDBRANCH   5   1
ENDBRANCH  14   5
ENDBRANCH   8  14
BRANCH  10  15
ATOM     15  C   UNL     1      -3.625 -11.351  14.818  0.00  0.00    +0.103 C 
BRANCH  15  19
ATOM      2  O   UNL     1      -1.612 -10.070  14.408  0.00  0.00    -0.276 OA
ATOM      6  N   UNL     1      -2.922 -10.752  12.612  0.00  0.00    -0.304 N 
ATOM     19  C   UNL     1      -2.597 -10.650  13.958  0.00  0.00    +0.214 C 
ATOM     31  H   UNL     1      -3.753 -11.270  12.341  0.00  0.00    +0.150 HD
BRANCH   6  22
ATOM     22  C   UNL     1      -2.118 -10.175  11.561  0.00  0.00    +0.193 C 
BRANCH  22  25
ATOM     25  C   UNL     1      -2.957  -9.563  10.532  0.00  0.00    -0.087 C 
ATOM     29  C   UNL     1      -3.648  -9.058   9.689  0.00  0.00    +0.005 C 
ENDBRANCH  22  25
ENDBRANCH   6  22
ENDBRANCH  15  19
ENDBRANCH  10  15
TORSDOF 10
ENDMDL
MODEL 5
REMARK VINA RESULT:      -5.4     27.352     29.671
REMARK  Name = 38028604
REMARK  13 active torsions:
REMARK  status: ('A' for Active; 'I' for Inactive)
REMARK    1  A    between atoms: S_1  and  N_5
REMARK    2  A    between atoms: S_1  and  C_20
REMARK    3  A    between atoms: N_5  and  C_14
REMARK    4  A    between atoms: N_6  and  C_22
REMARK    5  A    between atoms: C_7  and  C_11
REMARK    6  A    between atoms: C_8  and  C_14
REMARK    7  A    between atoms: C_10  and  C_15
REMARK    8  A    between atoms: C_11  and  C_16
REMARK    9  A    between atoms: C_11  and  C_17
REMARK   10  A    between atoms: C_12  and  C_18
REMARK   11  A    between atoms: C_15  and  C_19
REMARK   12  A    between atoms: C_20  and  C_21
REMARK   13  A    between atoms: C_22  and  C_25
REMARK                            x       y       z     vdW  Elec       q    Type
REMARK                         _______ _______ _______ _____ _____    ______ ____
ROOT
ATOM      7  C   UNL     1      -5.676 -10.733  17.853  0.00  0.00    +0.000 C 
ATOM      8  C   UNL     1      -5.086 -11.255  16.519  0.00  0.00    +0.030 C 
ATOM      9  C   UNL     1      -7.181 -11.034  17.927  0.00  0.00    +0.012 C 
ATOM     10  C   UNL     1      -7.962 -10.395  16.764  0.00  0.00    +0.023 C 
ATOM     12  C   UNL     1      -7.288 -10.642  15.430  0.00  0.00    -0.073 C 
ATOM     13  C   UNL     1      -6.006 -11.038  15.340  0.00  0.00    -0.023 C 
ATOM     18  C   UNL     1      -8.135 -10.466  14.201  0.00  0.00    +0.039 C 
ENDROOT
BRANCH   7  11
ATOM     11  C   UNL     1      -4.965 -11.340  19.066  0.00  0.00    -0.013 C 
ATOM     16  C   UNL     1      -5.866 -11.283  20.296  0.00  0.00    +0.007 C 
ATOM     17  C   UNL     1      -4.541 -12.775  18.772  0.00  0.00    +0.007 C 
ENDBRANCH   7  11
BRANCH   8  14
ATOM     14  C   UNL     1      -3.724 -10.613  16.228  0.00  0.00    +0.113 C 
BRANCH  14   5
ATOM      5  N   UNL     1      -3.620 -10.246  14.850  0.00  0.00    -0.194 NA
ATOM     30  H   UNL     1      -4.517 -10.045  14.389  0.00  0.00    +0.148 HD
BRANCH   5   1
ATOM      1  S   UNL     1      -2.433 -10.987  13.833  0.00  0.00    +0.033 S 
ATOM      3  O   UNL     1      -1.825 -12.093  14.548  0.00  0.00    -0.158 OA
ATOM      4  O   UNL     1      -1.613  -9.965  13.212  0.00  0.00    -0.158 OA
BRANCH   1  20
ATOM     20  C   UNL     1      -3.486 -11.664  12.571  0.00  0.00    +0.220 C 
BRANCH  20  21
ATOM     21  C   UNL     1      -3.934 -10.535  11.696  0.00  0.00    -0.025 A 
ATOM     23  C   UNL     1      -3.185 -10.185  10.571  0.00  0.00    +0.005 A 
ATOM     24  C   UNL     1      -5.099  -9.832  12.004  0.00  0.00    +0.005 A 
ATOM     26  C   UNL     1      -3.602  -9.132   9.755  0.00  0.00    +0.000 A 
ATOM     27  C   UNL     1      -5.515  -8.780  11.188  0.00  0.00    +0.000 A 
ATOM     28  C   UNL     1      -4.767  -8.430  10.064  0.00  0.00    +0.000 A 
ENDBRANCH  20  21
ENDBRANCH   1  20
ENDBRANCH   5   1
ENDBRANCH  14   5
ENDBRANCH   8  14
BRANCH  10  15
ATOM     15  C   UNL     1      -8.176  -8.895  17.002  0.00  0.00    +0.103 C 
BRANCH  15  19
ATOM      2  O   UNL     1     -10.086  -7.411  17.083  0.00  0.00    -0.276 OA
ATOM      6  N   UNL     1     -10.390  -9.687  17.440  0.00  0.00    -0.304 N 
ATOM     19  C   UNL     1      -9.638  -8.551  17.172  0.00  0.00    +0.214 C 
ATOM     31  H   UNL     1      -9.926 -10.591  17.476  0.00  0.00    +0.150 HD
BRANCH   6  22
ATOM     22  C   UNL     1     -11.818  -9.658  17.649  0.00  0.00    +0.193 C 
BRANCH  22  25
ATOM     25  C   UNL     1     -12.146  -9.780  19.069  0.00  0.00    -0.087 C 
ATOM     29  C   UNL     1     -12.414  -9.884  20.235  0.00  0.00    +0.005 C 
ENDBRANCH  22  25
ENDBRANCH   6  22
ENDBRANCH  15  19
ENDBRANCH  10  15
TORSDOF 10
ENDMDL
MODEL 6
REMARK VINA RESULT:      -5.4      2.792      3.905
REMARK  Name = 38028604
REMARK  13 active torsions:
REMARK  status: ('A' for Active; 'I' for Inactive)
REMARK    1  A    between atoms: S_1  and  N_5
REMARK    2  A    between atoms: S_1  and  C_20
REMARK    3  A    between atoms: N_5  and  C_14
REMARK    4  A    between atoms: N_6  and  C_22
REMARK    5  A    between atoms: C_7  and  C_11
REMARK    6  A    between atoms: C_8  and  C_14
REMARK    7  A    between atoms: C_10  and  C_15
REMARK    8  A    between atoms: C_11  and  C_16
REMARK    9  A    between atoms: C_11  and  C_17
REMARK   10  A    between atoms: C_12  and  C_18
REMARK   11  A    between atoms: C_15  and  C_19
REMARK   12  A    between atoms: C_20  and  C_21
REMARK   13  A    between atoms: C_22  and  C_25
REMARK                            x       y       z     vdW  Elec       q    Type
REMARK                         _______ _______ _______ _____ _____    ______ ____
ROOT
ATOM      7  C   UNL     1      17.387   8.164  21.444  0.00  0.00    +0.000 C 
ATOM      8  C   UNL     1      16.877   7.184  20.358  0.00  0.00    +0.030 C 
ATOM      9  C   UNL     1      18.887   8.439  21.257  0.00  0.00    +0.012 C 
ATOM     10  C   UNL     1      19.728   7.151  21.328  0.00  0.00    +0.023 C 
ATOM     12  C   UNL     1      19.133   6.043  20.484  0.00  0.00    -0.073 C 
ATOM     13  C   UNL     1      17.861   6.080  20.049  0.00  0.00    -0.023 C 
ATOM     18  C   UNL     1      20.049   4.909  20.113  0.00  0.00    +0.039 C 
ENDROOT
BRANCH   7  11
ATOM     11  C   UNL     1      16.611   9.485  21.428  0.00  0.00    -0.013 C 
ATOM     16  C   UNL     1      17.412  10.582  22.123  0.00  0.00    +0.007 C 
ATOM     17  C   UNL     1      16.274   9.886  19.995  0.00  0.00    +0.007 C 
ENDBRANCH   7  11
BRANCH   8  14
ATOM     14  C   UNL     1      15.530   6.569  20.756  0.00  0.00    +0.113 C 
BRANCH  14   5
ATOM      5  N   UNL     1      14.616   6.595  19.658  0.00  0.00    -0.194 NA
ATOM     30  H   UNL     1      15.050   6.756  18.740  0.00  0.00    +0.148 HD
BRANCH   5   1
ATOM      1  S   UNL     1      13.040   7.283  19.844  0.00  0.00    +0.033 S 
ATOM      3  O   UNL     1      12.056   6.350  19.331  0.00  0.00    -0.158 OA
ATOM      4  O   UNL     1      13.053   8.665  19.404  0.00  0.00    -0.158 OA
BRANCH   1  20
ATOM     20  C   UNL     1      12.913   7.292  21.617  0.00  0.00    +0.220 C 
BRANCH  20  21
ATOM     21  C   UNL     1      12.425   8.644  22.034  0.00  0.00    -0.025 A 
ATOM     23  C   UNL     1      13.337   9.679  22.252  0.00  0.00    +0.005 A 
ATOM     24  C   UNL     1      11.060   8.872  22.205  0.00  0.00    +0.005 A 
ATOM     26  C   UNL     1      12.884  10.939  22.640  0.00  0.00    +0.000 A 
ATOM     27  C   UNL     1      10.606  10.133  22.593  0.00  0.00    +0.000 A 
ATOM     28  C   UNL     1      11.517  11.166  22.811  0.00  0.00    +0.000 A 
ENDBRANCH  20  21
ENDBRANCH   1  20
ENDBRANCH   5   1
ENDBRANCH  14   5
ENDBRANCH   8  14
BRANCH  10  15
ATOM     15  C   UNL     1      19.919   6.695  22.779  0.00  0.00    +0.103 C 
BRANCH  15  19
ATOM      2  O   UNL     1      21.923   7.966  23.257  0.00  0.00    -0.276 OA
ATOM      6  N   UNL     1      20.092   8.137  24.679  0.00  0.00    -0.304 N 
ATOM     19  C   UNL     1      20.775   7.659  23.569  0.00  0.00    +0.214 C 
ATOM     31  H   UNL     1      19.135   7.833  24.841  0.00  0.00    +0.150 HD
BRANCH   6  22
ATOM     22  C   UNL     1      20.666   9.073  25.616  0.00  0.00    +0.193 C 
BRANCH  22  25
ATOM     25  C   UNL     1      20.363  10.452  25.237  0.00  0.00    -0.087 C 
ATOM     29  C   UNL     1      20.117  11.585  24.922  0.00  0.00    +0.005 C 
ENDBRANCH  22  25
ENDBRANCH   6  22
ENDBRANCH  15  19
ENDBRANCH  10  15
TORSDOF 10
ENDMDL
MODEL 7
REMARK VINA RESULT:      -5.3     25.232     27.202
REMARK  Name = 38028604
REMARK  13 active torsions:
REMARK  status: ('A' for Active; 'I' for Inactive)
REMARK    1  A    between atoms: S_1  and  N_5
REMARK    2  A    between atoms: S_1  and  C_20
REMARK    3  A    between atoms: N_5  and  C_14
REMARK    4  A    between atoms: N_6  and  C_22
REMARK    5  A    between atoms: C_7  and  C_11
REMARK    6  A    between atoms: C_8  and  C_14
REMARK    7  A    between atoms: C_10  and  C_15
REMARK    8  A    between atoms: C_11  and  C_16
REMARK    9  A    between atoms: C_11  and  C_17
REMARK   10  A    between atoms: C_12  and  C_18
REMARK   11  A    between atoms: C_15  and  C_19
REMARK   12  A    between atoms: C_20  and  C_21
REMARK   13  A    between atoms: C_22  and  C_25
REMARK                            x       y       z     vdW  Elec       q    Type
REMARK                         _______ _______ _______ _____ _____    ______ ____
ROOT
ATOM      7  C   UNL     1     -12.948   8.063  20.444  0.00  0.00    +0.000 C 
ATOM      8  C   UNL     1     -12.541   9.372  21.164  0.00  0.00    +0.030 C 
ATOM      9  C   UNL     1     -11.778   7.523  19.608  0.00  0.00    +0.012 C 
ATOM     10  C   UNL     1     -11.302   8.535  18.549  0.00  0.00    +0.023 C 
ATOM     12  C   UNL     1     -11.134   9.923  19.132  0.00  0.00    -0.073 C 
ATOM     13  C   UNL     1     -11.684  10.275  20.308  0.00  0.00    -0.023 C 
ATOM     18  C   UNL     1     -10.280  10.886  18.354  0.00  0.00    +0.039 C 
ENDROOT
BRANCH   7  11
ATOM     11  C   UNL     1     -13.417   6.991  21.433  0.00  0.00    -0.013 C 
ATOM     16  C   UNL     1     -14.773   6.434  21.012  0.00  0.00    +0.007 C 
ATOM     17  C   UNL     1     -12.382   5.875  21.537  0.00  0.00    +0.007 C 
ENDBRANCH   7  11
BRANCH   8  14
ATOM     14  C   UNL     1     -13.774  10.145  21.646  0.00  0.00    +0.113 C 
BRANCH  14   5
ATOM      5  N   UNL     1     -13.388  11.296  22.402  0.00  0.00    -0.194 NA
ATOM     30  H   UNL     1     -12.489  11.711  22.124  0.00  0.00    +0.148 HD
BRANCH   5   1
ATOM      1  S   UNL     1     -13.741  11.393  24.092  0.00  0.00    +0.033 S 
ATOM      3  O   UNL     1     -13.887  10.051  24.620  0.00  0.00    -0.158 OA
ATOM      4  O   UNL     1     -14.762  12.396  24.323  0.00  0.00    -0.158 OA
BRANCH   1  20
ATOM     20  C   UNL     1     -12.203  12.052  24.692  0.00  0.00    +0.220 C 
BRANCH  20  21
ATOM     21  C   UNL     1     -11.916  11.411  26.014  0.00  0.00    -0.025 A 
ATOM     23  C   UNL     1     -10.906  10.452  26.120  0.00  0.00    +0.005 A 
ATOM     24  C   UNL     1     -12.656  11.770  27.140  0.00  0.00    +0.005 A 
ATOM     26  C   UNL     1     -10.638   9.854  27.351  0.00  0.00    +0.000 A 
ATOM     27  C   UNL     1     -12.388  11.172  28.371  0.00  0.00    +0.000 A 
ATOM     28  C   UNL     1     -11.379  10.214  28.477  0.00  0.00    +0.000 A 
ENDBRANCH  20  21
ENDBRANCH   1  20
ENDBRANCH   5   1
ENDBRANCH  14   5
ENDBRANCH   8  14
BRANCH  10  15
ATOM     15  C   UNL     1     -12.248   8.557  17.343  0.00  0.00    +0.103 C 
BRANCH  15  19
ATOM      2  O   UNL     1     -10.295   8.313  15.935  0.00  0.00    -0.276 OA
ATOM      6  N   UNL     1     -12.412   8.051  15.012  0.00  0.00    -0.304 N 
ATOM     19  C   UNL     1     -11.518   8.299  16.044  0.00  0.00    +0.214 C 
ATOM     31  H   UNL     1     -13.409   8.045  15.209  0.00  0.00    +0.150 HD
BRANCH   6  22
ATOM     22  C   UNL     1     -11.995   7.773  13.657  0.00  0.00    +0.193 C 
BRANCH  22  25
ATOM     25  C   UNL     1     -11.953   8.996  12.857  0.00  0.00    -0.087 C 
ATOM     29  C   UNL     1     -11.916   9.999  12.197  0.00  0.00    +0.005 C 
ENDBRANCH  22  25
ENDBRANCH   6  22
ENDBRANCH  15  19
ENDBRANCH  10  15
TORSDOF 10
ENDMDL
MODEL 8
REMARK VINA RESULT:      -5.3      3.078      4.047
REMARK  Name = 38028604
REMARK  13 active torsions:
REMARK  status: ('A' for Active; 'I' for Inactive)
REMARK    1  A    between atoms: S_1  and  N_5
REMARK    2  A    between atoms: S_1  and  C_20
REMARK    3  A    between atoms: N_5  and  C_14
REMARK    4  A    between atoms: N_6  and  C_22
REMARK    5  A    between atoms: C_7  and  C_11
REMARK    6  A    between atoms: C_8  and  C_14
REMARK    7  A    between atoms: C_10  and  C_15
REMARK    8  A    between atoms: C_11  and  C_16
REMARK    9  A    between atoms: C_11  and  C_17
REMARK   10  A    between atoms: C_12  and  C_18
REMARK   11  A    between atoms: C_15  and  C_19
REMARK   12  A    between atoms: C_20  and  C_21
REMARK   13  A    between atoms: C_22  and  C_25
REMARK                            x       y       z     vdW  Elec       q    Type
REMARK                         _______ _______ _______ _____ _____    ______ ____
ROOT
ATOM      7  C   UNL     1      16.359   8.514  21.169  0.00  0.00    +0.000 C 
ATOM      8  C   UNL     1      15.743   7.551  20.123  0.00  0.00    +0.030 C 
ATOM      9  C   UNL     1      17.850   8.741  20.876  0.00  0.00    +0.012 C 
ATOM     10  C   UNL     1      18.653   7.427  20.889  0.00  0.00    +0.023 C 
ATOM     12  C   UNL     1      17.965   6.339  20.091  0.00  0.00    -0.073 C 
ATOM     13  C   UNL     1      16.667   6.417  19.746  0.00  0.00    -0.023 C 
ATOM     18  C   UNL     1      18.815   5.176  19.657  0.00  0.00    +0.039 C 
ENDROOT
BRANCH   7  11
ATOM     11  C   UNL     1      15.627   9.859  21.206  0.00  0.00    -0.013 C 
ATOM     16  C   UNL     1      16.043  10.658  22.437  0.00  0.00    +0.007 C 
ATOM     17  C   UNL     1      15.900  10.648  19.930  0.00  0.00    +0.007 C 
ENDBRANCH   7  11
BRANCH   8  14
ATOM     14  C   UNL     1      14.408   6.979  20.616  0.00  0.00    +0.113 C 
BRANCH  14   5
ATOM      5  N   UNL     1      13.319   7.501  19.852  0.00  0.00    -0.194 NA
ATOM     30  H   UNL     1      13.549   8.325  19.281  0.00  0.00    +0.148 HD
BRANCH   5   1
ATOM      1  S   UNL     1      11.713   7.490  20.493  0.00  0.00    +0.033 S 
ATOM      3  O   UNL     1      11.321   6.119  20.758  0.00  0.00    -0.158 OA
ATOM      4  O   UNL     1      10.865   8.366  19.707  0.00  0.00    -0.158 OA
BRANCH   1  20
ATOM     20  C   UNL     1      11.998   8.289  22.056  0.00  0.00    +0.220 C 
BRANCH  20  21
ATOM     21  C   UNL     1      11.844   9.764  21.849  0.00  0.00    -0.025 A 
ATOM     23  C   UNL     1      12.464  10.384  20.763  0.00  0.00    +0.005 A 
ATOM     24  C   UNL     1      11.084  10.519  22.742  0.00  0.00    +0.005 A 
ATOM     26  C   UNL     1      12.322  11.758  20.570  0.00  0.00    +0.000 A 
ATOM     27  C   UNL     1      10.943  11.893  22.549  0.00  0.00    +0.000 A 
ATOM     28  C   UNL     1      11.561  12.513  21.463  0.00  0.00    +0.000 A 
ENDBRANCH  20  21
ENDBRANCH   1  20
ENDBRANCH   5   1
ENDBRANCH  14   5
ENDBRANCH   8  14
BRANCH  10  15
ATOM     15  C   UNL     1      18.931   6.964  22.324  0.00  0.00    +0.103 C 
BRANCH  15  19
ATOM      2  O   UNL     1      20.775   5.826  23.402  0.00  0.00    -0.276 OA
ATOM      6  N   UNL     1      21.196   7.253  21.616  0.00  0.00    -0.304 N 
ATOM     19  C   UNL     1      20.383   6.599  22.532  0.00  0.00    +0.214 C 
ATOM     31  H   UNL     1      20.771   7.862  20.922  0.00  0.00    +0.150 HD
BRANCH   6  22
ATOM     22  C   UNL     1      22.631   7.095  21.581  0.00  0.00    +0.193 C 
BRANCH  22  25
ATOM     25  C   UNL     1      23.007   5.837  20.938  0.00  0.00    -0.087 C 
ATOM     29  C   UNL     1      23.320   4.803  20.412  0.00  0.00    +0.005 C 
ENDBRANCH  22  25
ENDBRANCH   6  22
ENDBRANCH  15  19
ENDBRANCH  10  15
TORSDOF 10
ENDMDL
MODEL 9
REMARK VINA RESULT:      -5.2     27.234     29.606
REMARK  Name = 38028604
REMARK  13 active torsions:
REMARK  status: ('A' for Active; 'I' for Inactive)
REMARK    1  A    between atoms: S_1  and  N_5
REMARK    2  A    between atoms: S_1  and  C_20
REMARK    3  A    between atoms: N_5  and  C_14
REMARK    4  A    between atoms: N_6  and  C_22
REMARK    5  A    between atoms: C_7  and  C_11
REMARK    6  A    between atoms: C_8  and  C_14
REMARK    7  A    between atoms: C_10  and  C_15
REMARK    8  A    between atoms: C_11  and  C_16
REMARK    9  A    between atoms: C_11  and  C_17
REMARK   10  A    between atoms: C_12  and  C_18
REMARK   11  A    between atoms: C_15  and  C_19
REMARK   12  A    between atoms: C_20  and  C_21
REMARK   13  A    between atoms: C_22  and  C_25
REMARK                            x       y       z     vdW  Elec       q    Type
REMARK                         _______ _______ _______ _____ _____    ______ ____
ROOT
ATOM      7  C   UNL     1      -6.072 -10.643  15.382  0.00  0.00    +0.000 C 
ATOM      8  C   UNL     1      -6.752 -10.523  16.768  0.00  0.00    +0.030 C 
ATOM      9  C   UNL     1      -5.177 -11.890  15.329  0.00  0.00    +0.012 C 
ATOM     10  C   UNL     1      -4.081 -11.868  16.410  0.00  0.00    +0.023 C 
ATOM     12  C   UNL     1      -4.638 -11.491  17.768  0.00  0.00    -0.073 C 
ATOM     13  C   UNL     1      -5.839 -10.903  17.910  0.00  0.00    -0.023 C 
ATOM     18  C   UNL     1      -3.801 -11.848  18.966  0.00  0.00    +0.039 C 
ENDROOT
BRANCH   7  11
ATOM     11  C   UNL     1      -7.098 -10.692  14.246  0.00  0.00    -0.013 C 
ATOM     16  C   UNL     1      -6.448 -10.296  12.923  0.00  0.00    +0.007 C 
ATOM     17  C   UNL     1      -7.719 -12.081  14.150  0.00  0.00    +0.007 C 
ENDBRANCH   7  11
BRANCH   8  14
ATOM     14  C   UNL     1      -7.295  -9.108  16.998  0.00  0.00    +0.113 C 
BRANCH  14   5
ATOM      5  N   UNL     1      -8.446  -9.137  17.845  0.00  0.00    -0.194 NA
ATOM     30  H   UNL     1      -8.376  -9.780  18.645  0.00  0.00    +0.148 HD
BRANCH   5   1
ATOM      1  S   UNL     1     -10.033  -8.986  17.174  0.00  0.00    +0.033 S 
ATOM      3  O   UNL     1     -10.015  -9.476  15.809  0.00  0.00    -0.158 OA
ATOM      4  O   UNL     1     -10.575  -7.678  17.485  0.00  0.00    -0.158 OA
BRANCH   1  20
ATOM     20  C   UNL     1     -10.905 -10.173  18.170  0.00  0.00    +0.220 C 
BRANCH  20  21
ATOM     21  C   UNL     1     -10.004 -11.353  18.367  0.00  0.00    -0.025 A 
ATOM     23  C   UNL     1      -9.839 -12.284  17.340  0.00  0.00    +0.005 A 
ATOM     24  C   UNL     1      -9.330 -11.522  19.576  0.00  0.00    +0.005 A 
ATOM     26  C   UNL     1      -9.001 -13.384  17.524  0.00  0.00    +0.000 A 
ATOM     27  C   UNL     1      -8.491 -12.622  19.759  0.00  0.00    +0.000 A 
ATOM     28  C   UNL     1      -8.326 -13.552  18.733  0.00  0.00    +0.000 A 
ENDBRANCH  20  21
ENDBRANCH   1  20
ENDBRANCH   5   1
ENDBRANCH  14   5
ENDBRANCH   8  14
BRANCH  10  15
ATOM     15  C   UNL     1      -2.930 -10.937  16.011  0.00  0.00    +0.103 C 
BRANCH  15  19
ATOM      2  O   UNL     1      -1.724 -12.455  14.562  0.00  0.00    -0.276 OA
ATOM      6  N   UNL     1      -2.375 -10.375  13.754  0.00  0.00    -0.304 N 
ATOM     19  C   UNL     1      -2.273 -11.367  14.719  0.00  0.00    +0.214 C 
ATOM     31  H   UNL     1      -2.866  -9.513  13.979  0.00  0.00    +0.150 HD
BRANCH   6  22
ATOM     22  C   UNL     1      -1.835 -10.512  12.422  0.00  0.00    +0.193 C 
BRANCH  22  25
ATOM     25  C   UNL     1      -2.795 -10.060  11.415  0.00  0.00    -0.087 C 
ATOM     29  C   UNL     1      -3.582  -9.686  10.589  0.00  0.00    +0.005 C 
ENDBRANCH  22  25
ENDBRANCH   6  22
ENDBRANCH  15  19
ENDBRANCH  10  15
TORSDOF 10
ENDMDL
MODEL 10
REMARK VINA RESULT:      -5.2      3.287      4.771
REMARK  Name = 38028604
REMARK  13 active torsions:
REMARK  status: ('A' for Active; 'I' for Inactive)
REMARK    1  A    between atoms: S_1  and  N_5
REMARK    2  A    between atoms: S_1  and  C_20
REMARK    3  A    between atoms: N_5  and  C_14
REMARK    4  A    between atoms: N_6  and  C_22
REMARK    5  A    between atoms: C_7  and  C_11
REMARK    6  A    between atoms: C_8  and  C_14
REMARK    7  A    between atoms: C_10  and  C_15
REMARK    8  A    between atoms: C_11  and  C_16
REMARK    9  A    between atoms: C_11  and  C_17
REMARK   10  A    between atoms: C_12  and  C_18
REMARK   11  A    between atoms: C_15  and  C_19
REMARK   12  A    between atoms: C_20  and  C_21
REMARK   13  A    between atoms: C_22  and  C_25
REMARK                            x       y       z     vdW  Elec       q    Type
REMARK                         _______ _______ _______ _____ _____    ______ ____
ROOT
ATOM      7  C   UNL     1      16.606   8.360  21.227  0.00  0.00    +0.000 C 
ATOM      8  C   UNL     1      16.053   7.333  20.208  0.00  0.00    +0.030 C 
ATOM      9  C   UNL     1      18.085   8.660  20.938  0.00  0.00    +0.012 C 
ATOM     10  C   UNL     1      18.959   7.393  20.998  0.00  0.00    +0.023 C 
ATOM     12  C   UNL     1      18.339   6.244  20.230  0.00  0.00    -0.073 C 
ATOM     13  C   UNL     1      17.042   6.240  19.874  0.00  0.00    -0.023 C 
ATOM     18  C   UNL     1      19.256   5.117  19.840  0.00  0.00    +0.039 C 
ENDROOT
BRANCH   7  11
ATOM     11  C   UNL     1      15.801   9.663  21.216  0.00  0.00    -0.013 C 
ATOM     16  C   UNL     1      15.141   9.893  22.572  0.00  0.00    +0.007 C 
ATOM     17  C   UNL     1      16.698  10.839  20.844  0.00  0.00    +0.007 C 
ENDBRANCH   7  11
BRANCH   8  14
ATOM     14  C   UNL     1      14.748   6.704  20.709  0.00  0.00    +0.113 C 
BRANCH  14   5
ATOM      5  N   UNL     1      13.645   7.103  19.892  0.00  0.00    -0.194 NA
ATOM     30  H   UNL     1      13.893   7.719  19.106  0.00  0.00    +0.148 HD
BRANCH   5   1
ATOM      1  S   UNL     1      12.098   7.416  20.598  0.00  0.00    +0.033 S 
ATOM      3  O   UNL     1      12.277   8.241  21.777  0.00  0.00    -0.158 OA
ATOM      4  O   UNL     1      11.331   6.188  20.663  0.00  0.00    -0.158 OA
BRANCH   1  20
ATOM     20  C   UNL     1      11.376   8.428  19.327  0.00  0.00    +0.220 C 
BRANCH  20  21
ATOM     21  C   UNL     1      12.490   9.133  18.617  0.00  0.00    -0.025 A 
ATOM     23  C   UNL     1      12.946  10.366  19.087  0.00  0.00    +0.005 A 
ATOM     24  C   UNL     1      13.072   8.560  17.487  0.00  0.00    +0.005 A 
ATOM     26  C   UNL     1      13.983  11.024  18.426  0.00  0.00    +0.000 A 
ATOM     27  C   UNL     1      14.109   9.218  16.826  0.00  0.00    +0.000 A 
ATOM     28  C   UNL     1      14.565  10.449  17.295  0.00  0.00    +0.000 A 
ENDBRANCH  20  21
ENDBRANCH   1  20
ENDBRANCH   5   1
ENDBRANCH  14   5
ENDBRANCH   8  14
BRANCH  10  15
ATOM     15  C   UNL     1      19.249   6.991  22.449  0.00  0.00    +0.103 C 
BRANCH  15  19
ATOM      2  O   UNL     1      21.600   7.175  21.904  0.00  0.00    -0.276 OA
ATOM      6  N   UNL     1      20.963   6.724  24.094  0.00  0.00    -0.304 N 
ATOM     19  C   UNL     1      20.730   6.981  22.750  0.00  0.00    +0.214 C 
ATOM     31  H   UNL     1      20.172   6.594  24.719  0.00  0.00    +0.150 HD
BRANCH   6  22
ATOM     22  C   UNL     1      22.287   6.654  24.666  0.00  0.00    +0.193 C 
BRANCH  22  25
ATOM     25  C   UNL     1      22.717   5.267  24.834  0.00  0.00    -0.087 C 
ATOM     29  C   UNL     1      23.068   4.126  24.969  0.00  0.00    +0.005 C 
ENDBRANCH  22  25
ENDBRANCH   6  22
ENDBRANCH  15  19
ENDBRANCH  10  15
TORSDOF 10
ENDMDL
