MODEL 1
REMARK VINA RESULT:      -6.9      0.000      0.000
REMARK  Name = 56775959
REMARK  4 active torsions:
REMARK  status: ('A' for Active; 'I' for Inactive)
REMARK    1  A    between atoms: O_5  and  C_21
REMARK    2  A    between atoms: O_5  and  C_22
REMARK    3  A    between atoms: C_9  and  C_11
REMARK    4  A    between atoms: C_14  and  C_16
REMARK                            x       y       z     vdW  Elec       q    Type
REMARK                         _______ _______ _______ _____ _____    ______ ____
ROOT
ATOM      7  N   UNL     1      15.397   6.780  20.465  0.00  0.00    -0.341 N 
ATOM      8  N   UNL     1      14.830   8.926  20.420  0.00  0.00    -0.238 NA
ATOM     11  C   UNL     1      14.379   7.693  20.449  0.00  0.00    +0.127 A 
ATOM     14  C   UNL     1      16.571   7.476  20.445  0.00  0.00    +0.066 A 
ATOM     15  C   UNL     1      16.197   8.799  20.418  0.00  0.00    +0.139 A 
ATOM     24  H   UNL     1      15.291   5.774  20.498  0.00  0.00    +0.167 HD
ENDROOT
BRANCH  11   9
ATOM      4  O   UNL     1      10.622   8.021  20.622  0.00  0.00    -0.377 OA
ATOM      6  N   UNL     1      12.674   6.261  21.522  0.00  0.00    -0.303 NA
ATOM      9  C   UNL     1      12.927   7.256  20.465  0.00  0.00    +0.146 C 
ATOM     10  C   UNL     1      11.983   8.455  20.637  0.00  0.00    +0.186 C 
ATOM     12  C   UNL     1      11.262   5.872  21.536  0.00  0.00    +0.109 C 
ATOM     13  C   UNL     1      10.372   7.100  21.685  0.00  0.00    +0.175 C 
ATOM     23  H   UNL     1      12.906   6.674  22.426  0.00  0.00    +0.123 HD
ENDBRANCH  11   9
BRANCH  14  16
ATOM     16  C   UNL     1      17.867   6.847  20.455  0.00  0.00    +0.000 A 
ATOM     17  C   UNL     1      18.087   5.691  19.707  0.00  0.00    +0.013 A 
ATOM     18  C   UNL     1      18.901   7.395  21.215  0.00  0.00    +0.013 A 
ATOM     19  C   UNL     1      19.342   5.083  19.716  0.00  0.00    +0.046 A 
ATOM     20  C   UNL     1      20.156   6.786  21.224  0.00  0.00    +0.046 A 
ATOM     21  C   UNL     1      20.376   5.631  20.474  0.00  0.00    +0.130 A 
BRANCH  21   5
ATOM      5  O   UNL     1      21.602   5.039  20.482  0.00  0.00    -0.406 OA
BRANCH   5  22
ATOM      1  F   UNL     1      21.460   4.162  22.558  0.00  0.00    -0.133 F 
ATOM      2  F   UNL     1      20.974   2.873  20.862  0.00  0.00    -0.133 F 
ATOM      3  F   UNL     1      23.067   3.462  21.254  0.00  0.00    -0.133 F 
ATOM     22  C   UNL     1      21.782   3.872  21.277  0.00  0.00    +0.575 C 
ENDBRANCH   5  22
ENDBRANCH  21   5
ENDBRANCH  14  16
TORSDOF 4
ENDMDL
MODEL 2
REMARK VINA RESULT:      -6.9      2.755      3.488
REMARK  Name = 56775959
REMARK  4 active torsions:
REMARK  status: ('A' for Active; 'I' for Inactive)
REMARK    1  A    between atoms: O_5  and  C_21
REMARK    2  A    between atoms: O_5  and  C_22
REMARK    3  A    between atoms: C_9  and  C_11
REMARK    4  A    between atoms: C_14  and  C_16
REMARK                            x       y       z     vdW  Elec       q    Type
REMARK                         _______ _______ _______ _____ _____    ______ ____
ROOT
ATOM      7  N   UNL     1      14.877   7.468  18.698  0.00  0.00    -0.341 N 
ATOM      8  N   UNL     1      13.036   7.062  19.870  0.00  0.00    -0.238 NA
ATOM     11  C   UNL     1      13.512   7.395  18.692  0.00  0.00    +0.127 A 
ATOM     14  C   UNL     1      15.299   7.163  19.960  0.00  0.00    +0.066 A 
ATOM     15  C   UNL     1      14.146   6.915  20.666  0.00  0.00    +0.139 A 
ATOM     24  H   UNL     1      15.462   7.696  17.903  0.00  0.00    +0.167 HD
ENDROOT
BRANCH  11   9
ATOM      4  O   UNL     1      12.698   8.865  15.311  0.00  0.00    -0.377 OA
ATOM      6  N   UNL     1      11.380   8.221  17.754  0.00  0.00    -0.303 NA
ATOM      9  C   UNL     1      12.712   7.677  17.436  0.00  0.00    +0.146 C 
ATOM     10  C   UNL     1      13.460   8.636  16.498  0.00  0.00    +0.186 C 
ATOM     12  C   UNL     1      10.635   8.510  16.527  0.00  0.00    +0.109 C 
ATOM     13  C   UNL     1      11.431   9.445  15.626  0.00  0.00    +0.175 C 
ATOM     23  H   UNL     1      11.496   9.091  18.276  0.00  0.00    +0.123 HD
ENDBRANCH  11   9
BRANCH  14  16
ATOM     16  C   UNL     1      16.685   7.136  20.348  0.00  0.00    +0.000 A 
ATOM     17  C   UNL     1      17.191   8.122  21.195  0.00  0.00    +0.013 A 
ATOM     18  C   UNL     1      17.521   6.124  19.877  0.00  0.00    +0.013 A 
ATOM     19  C   UNL     1      18.534   8.094  21.572  0.00  0.00    +0.046 A 
ATOM     20  C   UNL     1      18.864   6.097  20.255  0.00  0.00    +0.046 A 
ATOM     21  C   UNL     1      19.370   7.083  21.102  0.00  0.00    +0.130 A 
BRANCH  21   5
ATOM      5  O   UNL     1      20.679   7.055  21.471  0.00  0.00    -0.406 OA
BRANCH   5  22
ATOM      1  F   UNL     1      22.260   6.701  23.044  0.00  0.00    -0.133 F 
ATOM      2  F   UNL     1      20.164   6.497  23.628  0.00  0.00    -0.133 F 
ATOM      3  F   UNL     1      21.115   4.981  22.333  0.00  0.00    -0.133 F 
ATOM     22  C   UNL     1      21.040   6.297  22.621  0.00  0.00    +0.575 C 
ENDBRANCH   5  22
ENDBRANCH  21   5
ENDBRANCH  14  16
TORSDOF 4
ENDMDL
MODEL 3
REMARK VINA RESULT:      -6.7     16.600     18.065
REMARK  Name = 56775959
REMARK  4 active torsions:
REMARK  status: ('A' for Active; 'I' for Inactive)
REMARK    1  A    between atoms: O_5  and  C_21
REMARK    2  A    between atoms: O_5  and  C_22
REMARK    3  A    between atoms: C_9  and  C_11
REMARK    4  A    between atoms: C_14  and  C_16
REMARK                            x       y       z     vdW  Elec       q    Type
REMARK                         _______ _______ _______ _____ _____    ______ ____
ROOT
ATOM      7  N   UNL     1       7.069   9.136   4.705  0.00  0.00    -0.341 N 
ATOM      8  N   UNL     1       7.510   8.991   2.533  0.00  0.00    -0.238 NA
ATOM     11  C   UNL     1       6.779   9.588   3.447  0.00  0.00    +0.127 A 
ATOM     14  C   UNL     1       8.047   8.190   4.585  0.00  0.00    +0.066 A 
ATOM     15  C   UNL     1       8.303   8.118   3.236  0.00  0.00    +0.139 A 
ATOM     24  H   UNL     1       6.641   9.457   5.564  0.00  0.00    +0.167 HD
ENDROOT
BRANCH  11   9
ATOM      4  O   UNL     1       4.473  12.469   4.245  0.00  0.00    -0.377 OA
ATOM      6  N   UNL     1       4.473  10.073   2.703  0.00  0.00    -0.303 NA
ATOM      9  C   UNL     1       5.726  10.654   3.215  0.00  0.00    +0.146 C 
ATOM     10  C   UNL     1       5.448  11.455   4.496  0.00  0.00    +0.186 C 
ATOM     12  C   UNL     1       3.463  11.116   2.510  0.00  0.00    +0.109 C 
ATOM     13  C   UNL     1       3.244  11.892   3.803  0.00  0.00    +0.175 C 
ATOM     23  H   UNL     1       4.119   9.400   3.384  0.00  0.00    +0.123 HD
ENDBRANCH  11   9
BRANCH  14  16
ATOM     16  C   UNL     1       8.613   7.488   5.707  0.00  0.00    +0.000 A 
ATOM     17  C   UNL     1       8.954   6.141   5.586  0.00  0.00    +0.013 A 
ATOM     18  C   UNL     1       8.821   8.155   6.914  0.00  0.00    +0.013 A 
ATOM     19  C   UNL     1       9.503   5.461   6.673  0.00  0.00    +0.046 A 
ATOM     20  C   UNL     1       9.370   7.474   8.000  0.00  0.00    +0.046 A 
ATOM     21  C   UNL     1       9.711   6.127   7.880  0.00  0.00    +0.130 A 
BRANCH  21   5
ATOM      5  O   UNL     1      10.249   5.465   8.940  0.00  0.00    -0.406 OA
BRANCH   5  22
ATOM      1  F   UNL     1      10.063   4.230  10.821  0.00  0.00    -0.133 F 
ATOM      2  F   UNL     1       8.284   5.271  10.094  0.00  0.00    -0.133 F 
ATOM      3  F   UNL     1       9.067   3.508   9.015  0.00  0.00    -0.133 F 
ATOM     22  C   UNL     1       9.400   4.618   9.707  0.00  0.00    +0.575 C 
ENDBRANCH   5  22
ENDBRANCH  21   5
ENDBRANCH  14  16
TORSDOF 4
ENDMDL
MODEL 4
REMARK VINA RESULT:      -6.7      5.005      8.374
REMARK  Name = 56775959
REMARK  4 active torsions:
REMARK  status: ('A' for Active; 'I' for Inactive)
REMARK    1  A    between atoms: O_5  and  C_21
REMARK    2  A    between atoms: O_5  and  C_22
REMARK    3  A    between atoms: C_9  and  C_11
REMARK    4  A    between atoms: C_14  and  C_16
REMARK                            x       y       z     vdW  Elec       q    Type
REMARK                         _______ _______ _______ _____ _____    ______ ____
ROOT
ATOM      7  N   UNL     1      17.815   7.323  21.741  0.00  0.00    -0.341 N 
ATOM      8  N   UNL     1      19.494   6.260  20.750  0.00  0.00    -0.238 NA
ATOM     11  C   UNL     1      19.143   7.002  21.776  0.00  0.00    +0.127 A 
ATOM     14  C   UNL     1      17.284   6.749  20.622  0.00  0.00    +0.066 A 
ATOM     15  C   UNL     1      18.339   6.098  20.026  0.00  0.00    +0.139 A 
ATOM     24  H   UNL     1      17.320   7.876  22.430  0.00  0.00    +0.167 HD
ENDROOT
BRANCH  11   9
ATOM      4  O   UNL     1      22.330   8.043  23.514  0.00  0.00    -0.377 OA
ATOM      6  N   UNL     1      19.928   6.621  24.089  0.00  0.00    -0.303 NA
ATOM      9  C   UNL     1      20.042   7.482  22.899  0.00  0.00    +0.146 C 
ATOM     10  C   UNL     1      21.508   7.563  22.448  0.00  0.00    +0.186 C 
ATOM     12  C   UNL     1      20.823   7.088  25.150  0.00  0.00    +0.109 C 
ATOM     13  C   UNL     1      22.256   7.171  24.642  0.00  0.00    +0.175 C 
ATOM     23  H   UNL     1      20.197   5.669  23.833  0.00  0.00    +0.123 HD
ENDBRANCH  11   9
BRANCH  14  16
ATOM     16  C   UNL     1      15.898   6.868  20.250  0.00  0.00    +0.000 A 
ATOM     17  C   UNL     1      15.546   7.018  18.909  0.00  0.00    +0.013 A 
ATOM     18  C   UNL     1      14.908   6.834  21.232  0.00  0.00    +0.013 A 
ATOM     19  C   UNL     1      14.204   7.133  18.549  0.00  0.00    +0.046 A 
ATOM     20  C   UNL     1      13.566   6.949  20.872  0.00  0.00    +0.046 A 
ATOM     21  C   UNL     1      13.213   7.098  19.530  0.00  0.00    +0.130 A 
BRANCH  21   5
ATOM      5  O   UNL     1      11.903   7.208  19.179  0.00  0.00    -0.406 OA
BRANCH   5  22
ATOM      1  F   UNL     1      10.537   8.398  20.527  0.00  0.00    -0.133 F 
ATOM      2  F   UNL     1      12.153   9.457  19.505  0.00  0.00    -0.133 F 
ATOM      3  F   UNL     1      10.401   8.731  18.371  0.00  0.00    -0.133 F 
ATOM     22  C   UNL     1      11.254   8.458  19.381  0.00  0.00    +0.575 C 
ENDBRANCH   5  22
ENDBRANCH  21   5
ENDBRANCH  14  16
TORSDOF 4
ENDMDL
MODEL 5
REMARK VINA RESULT:      -6.7      3.395      4.709
REMARK  Name = 56775959
REMARK  4 active torsions:
REMARK  status: ('A' for Active; 'I' for Inactive)
REMARK    1  A    between atoms: O_5  and  C_21
REMARK    2  A    between atoms: O_5  and  C_22
REMARK    3  A    between atoms: C_9  and  C_11
REMARK    4  A    between atoms: C_14  and  C_16
REMARK                            x       y       z     vdW  Elec       q    Type
REMARK                         _______ _______ _______ _____ _____    ______ ____
ROOT
ATOM      7  N   UNL     1      12.825   9.403  22.284  0.00  0.00    -0.341 N 
ATOM      8  N   UNL     1      10.905   8.297  22.423  0.00  0.00    -0.238 NA
ATOM     11  C   UNL     1      11.521   9.426  22.692  0.00  0.00    +0.127 A 
ATOM     14  C   UNL     1      13.056   8.182  21.719  0.00  0.00    +0.066 A 
ATOM     15  C   UNL     1      11.857   7.516  21.816  0.00  0.00    +0.139 A 
ATOM     24  H   UNL     1      13.489  10.161  22.377  0.00  0.00    +0.167 HD
ENDROOT
BRANCH  11   9
ATOM      4  O   UNL     1      10.543  13.042  23.166  0.00  0.00    -0.377 OA
ATOM      6  N   UNL     1      11.486  10.845  24.716  0.00  0.00    -0.303 NA
ATOM      9  C   UNL     1      10.927  10.647  23.367  0.00  0.00    +0.146 C 
ATOM     10  C   UNL     1      11.135  11.912  22.522  0.00  0.00    +0.186 C 
ATOM     12  C   UNL     1      10.918  12.042  25.339  0.00  0.00    +0.109 C 
ATOM     13  C   UNL     1      11.132  13.260  24.449  0.00  0.00    +0.175 C 
ATOM     23  H   UNL     1      12.497  10.968  24.638  0.00  0.00    +0.123 HD
ENDBRANCH  11   9
BRANCH  14  16
ATOM     16  C   UNL     1      14.328   7.789  21.169  0.00  0.00    +0.000 A 
ATOM     17  C   UNL     1      15.441   8.614  21.329  0.00  0.00    +0.013 A 
ATOM     18  C   UNL     1      14.446   6.584  20.477  0.00  0.00    +0.013 A 
ATOM     19  C   UNL     1      16.673   8.233  20.797  0.00  0.00    +0.046 A 
ATOM     20  C   UNL     1      15.678   6.203  19.946  0.00  0.00    +0.046 A 
ATOM     21  C   UNL     1      16.792   7.028  20.107  0.00  0.00    +0.130 A 
BRANCH  21   5
ATOM      5  O   UNL     1      17.994   6.654  19.590  0.00  0.00    -0.406 OA
BRANCH   5  22
ATOM      1  F   UNL     1      19.336   4.909  20.089  0.00  0.00    -0.133 F 
ATOM      2  F   UNL     1      20.094   6.926  20.453  0.00  0.00    -0.133 F 
ATOM      3  F   UNL     1      18.511   6.078  21.741  0.00  0.00    -0.133 F 
ATOM     22  C   UNL     1      18.986   6.156  20.480  0.00  0.00    +0.575 C 
ENDBRANCH   5  22
ENDBRANCH  21   5
ENDBRANCH  14  16
TORSDOF 4
ENDMDL
MODEL 6
REMARK VINA RESULT:      -6.5     32.203     33.783
REMARK  Name = 56775959
REMARK  4 active torsions:
REMARK  status: ('A' for Active; 'I' for Inactive)
REMARK    1  A    between atoms: O_5  and  C_21
REMARK    2  A    between atoms: O_5  and  C_22
REMARK    3  A    between atoms: C_9  and  C_11
REMARK    4  A    between atoms: C_14  and  C_16
REMARK                            x       y       z     vdW  Elec       q    Type
REMARK                         _______ _______ _______ _____ _____    ______ ____
ROOT
ATOM      7  N   UNL     1     -15.767   3.589  26.474  0.00  0.00    -0.341 N 
ATOM      8  N   UNL     1     -17.611   2.829  25.498  0.00  0.00    -0.238 NA
ATOM     11  C   UNL     1     -16.577   3.631  25.374  0.00  0.00    +0.127 A 
ATOM     14  C   UNL     1     -16.319   2.704  27.356  0.00  0.00    +0.066 A 
ATOM     15  C   UNL     1     -17.456   2.248  26.733  0.00  0.00    +0.139 A 
ATOM     24  H   UNL     1     -14.910   4.112  26.600  0.00  0.00    +0.167 HD
ENDROOT
BRANCH  11   9
ATOM      4  O   UNL     1     -16.248   4.673  21.760  0.00  0.00    -0.377 OA
ATOM      6  N   UNL     1     -14.857   4.986  24.228  0.00  0.00    -0.303 NA
ATOM      9  C   UNL     1     -16.255   4.520  24.190  0.00  0.00    +0.146 C 
ATOM     10  C   UNL     1     -16.534   3.806  22.859  0.00  0.00    +0.186 C 
ATOM     12  C   UNL     1     -14.561   5.822  23.063  0.00  0.00    +0.109 C 
ATOM     13  C   UNL     1     -14.877   5.074  21.774  0.00  0.00    +0.175 C 
ATOM     23  H   UNL     1     -14.239   4.173  24.210  0.00  0.00    +0.123 HD
ENDBRANCH  11   9
BRANCH  14  16
ATOM     16  C   UNL     1     -15.739   2.396  28.638  0.00  0.00    +0.000 A 
ATOM     17  C   UNL     1     -15.930   1.136  29.205  0.00  0.00    +0.013 A 
ATOM     18  C   UNL     1     -14.987   3.358  29.312  0.00  0.00    +0.013 A 
ATOM     19  C   UNL     1     -15.367   0.837  30.445  0.00  0.00    +0.046 A 
ATOM     20  C   UNL     1     -14.425   3.058  30.553  0.00  0.00    +0.046 A 
ATOM     21  C   UNL     1     -14.615   1.798  31.119  0.00  0.00    +0.130 A 
BRANCH  21   5
ATOM      5  O   UNL     1     -14.064   1.506  32.329  0.00  0.00    -0.406 OA
BRANCH   5  22
ATOM      1  F   UNL     1     -13.981   3.332  33.655  0.00  0.00    -0.133 F 
ATOM      2  F   UNL     1     -15.921   2.377  33.340  0.00  0.00    -0.133 F 
ATOM      3  F   UNL     1     -14.385   1.398  34.591  0.00  0.00    -0.133 F 
ATOM     22  C   UNL     1     -14.600   2.141  33.485  0.00  0.00    +0.575 C 
ENDBRANCH   5  22
ENDBRANCH  21   5
ENDBRANCH  14  16
TORSDOF 4
ENDMDL
MODEL 7
REMARK VINA RESULT:      -6.4     28.309     30.851
REMARK  Name = 56775959
REMARK  4 active torsions:
REMARK  status: ('A' for Active; 'I' for Inactive)
REMARK    1  A    between atoms: O_5  and  C_21
REMARK    2  A    between atoms: O_5  and  C_22
REMARK    3  A    between atoms: C_9  and  C_11
REMARK    4  A    between atoms: C_14  and  C_16
REMARK                            x       y       z     vdW  Elec       q    Type
REMARK                         _______ _______ _______ _____ _____    ______ ____
ROOT
ATOM      7  N   UNL     1     -14.125   5.670  22.756  0.00  0.00    -0.341 N 
ATOM      8  N   UNL     1     -16.078   6.464  23.452  0.00  0.00    -0.238 NA
ATOM     11  C   UNL     1     -15.261   5.435  23.479  0.00  0.00    +0.127 A 
ATOM     14  C   UNL     1     -14.223   6.929  22.235  0.00  0.00    +0.066 A 
ATOM     15  C   UNL     1     -15.437   7.399  22.678  0.00  0.00    +0.139 A 
ATOM     24  H   UNL     1     -13.351   5.028  22.643  0.00  0.00    +0.167 HD
ENDROOT
BRANCH  11   9
ATOM      4  O   UNL     1     -16.618   1.968  24.108  0.00  0.00    -0.377 OA
ATOM      6  N   UNL     1     -15.977   4.330  25.570  0.00  0.00    -0.303 NA
ATOM      9  C   UNL     1     -15.481   4.119  24.198  0.00  0.00    +0.146 C 
ATOM     10  C   UNL     1     -16.448   3.211  23.424  0.00  0.00    +0.186 C 
ATOM     12  C   UNL     1     -16.206   3.046  26.237  0.00  0.00    +0.109 C 
ATOM     13  C   UNL     1     -17.152   2.179  25.416  0.00  0.00    +0.175 C 
ATOM     23  H   UNL     1     -16.863   4.835  25.525  0.00  0.00    +0.123 HD
ENDBRANCH  11   9
BRANCH  14  16
ATOM     16  C   UNL     1     -13.205   7.528  21.413  0.00  0.00    +0.000 A 
ATOM     17  C   UNL     1     -13.139   8.916  21.284  0.00  0.00    +0.013 A 
ATOM     18  C   UNL     1     -12.284   6.721  20.744  0.00  0.00    +0.013 A 
ATOM     19  C   UNL     1     -12.152   9.496  20.488  0.00  0.00    +0.046 A 
ATOM     20  C   UNL     1     -11.298   7.302  19.948  0.00  0.00    +0.046 A 
ATOM     21  C   UNL     1     -11.231   8.690  19.820  0.00  0.00    +0.130 A 
BRANCH  21   5
ATOM      5  O   UNL     1     -10.267   9.256  19.045  0.00  0.00    -0.406 OA
BRANCH   5  22
ATOM      1  F   UNL     1      -9.647  10.171  17.076  0.00  0.00    -0.133 F 
ATOM      2  F   UNL     1     -10.043   8.023  17.132  0.00  0.00    -0.133 F 
ATOM      3  F   UNL     1     -11.707   9.470  17.281  0.00  0.00    -0.133 F 
ATOM     22  C   UNL     1     -10.428   9.216  17.631  0.00  0.00    +0.575 C 
ENDBRANCH   5  22
ENDBRANCH  21   5
ENDBRANCH  14  16
TORSDOF 4
ENDMDL
MODEL 8
REMARK VINA RESULT:      -6.4     28.646     31.603
REMARK  Name = 56775959
REMARK  4 active torsions:
REMARK  status: ('A' for Active; 'I' for Inactive)
REMARK    1  A    between atoms: O_5  and  C_21
REMARK    2  A    between atoms: O_5  and  C_22
REMARK    3  A    between atoms: C_9  and  C_11
REMARK    4  A    between atoms: C_14  and  C_16
REMARK                            x       y       z     vdW  Elec       q    Type
REMARK                         _______ _______ _______ _____ _____    ______ ____
ROOT
ATOM      7  N   UNL     1     -15.595   4.841  21.918  0.00  0.00    -0.341 N 
ATOM      8  N   UNL     1     -15.161   4.156  23.985  0.00  0.00    -0.238 NA
ATOM     11  C   UNL     1     -16.003   4.082  22.979  0.00  0.00    +0.127 A 
ATOM     14  C   UNL     1     -14.417   5.437  22.269  0.00  0.00    +0.066 A 
ATOM     15  C   UNL     1     -14.170   4.999  23.549  0.00  0.00    +0.139 A 
ATOM     24  H   UNL     1     -16.077   4.930  21.032  0.00  0.00    +0.167 HD
ENDROOT
BRANCH  11   9
ATOM      4  O   UNL     1     -19.263   2.601  24.176  0.00  0.00    -0.377 OA
ATOM      6  N   UNL     1     -17.030   1.872  22.563  0.00  0.00    -0.303 NA
ATOM      9  C   UNL     1     -17.287   3.277  22.926  0.00  0.00    +0.146 C 
ATOM     10  C   UNL     1     -18.046   3.344  24.259  0.00  0.00    +0.186 C 
ATOM     12  C   UNL     1     -18.279   1.109  22.543  0.00  0.00    +0.109 C 
ATOM     13  C   UNL     1     -19.000   1.229  23.879  0.00  0.00    +0.175 C 
ATOM     23  H   UNL     1     -16.408   1.460  23.261  0.00  0.00    +0.123 HD
ENDBRANCH  11   9
BRANCH  14  16
ATOM     16  C   UNL     1     -13.682   6.316  21.398  0.00  0.00    +0.000 A 
ATOM     17  C   UNL     1     -12.292   6.229  21.330  0.00  0.00    +0.013 A 
ATOM     18  C   UNL     1     -14.361   7.255  20.621  0.00  0.00    +0.013 A 
ATOM     19  C   UNL     1     -11.580   7.080  20.485  0.00  0.00    +0.046 A 
ATOM     20  C   UNL     1     -13.649   8.106  19.777  0.00  0.00    +0.046 A 
ATOM     21  C   UNL     1     -12.259   8.019  19.708  0.00  0.00    +0.130 A 
BRANCH  21   5
ATOM      5  O   UNL     1     -11.565   8.848  18.882  0.00  0.00    -0.406 OA
BRANCH   5  22
ATOM      1  F   UNL     1     -10.593  10.865  18.594  0.00  0.00    -0.133 F 
ATOM      2  F   UNL     1     -11.285  10.334  20.597  0.00  0.00    -0.133 F 
ATOM      3  F   UNL     1      -9.503   9.352  19.734  0.00  0.00    -0.133 F 
ATOM     22  C   UNL     1     -10.732   9.842  19.468  0.00  0.00    +0.575 C 
ENDBRANCH   5  22
ENDBRANCH  21   5
ENDBRANCH  14  16
TORSDOF 4
ENDMDL
MODEL 9
REMARK VINA RESULT:      -6.3     26.290     28.780
REMARK  Name = 56775959
REMARK  4 active torsions:
REMARK  status: ('A' for Active; 'I' for Inactive)
REMARK    1  A    between atoms: O_5  and  C_21
REMARK    2  A    between atoms: O_5  and  C_22
REMARK    3  A    between atoms: C_9  and  C_11
REMARK    4  A    between atoms: C_14  and  C_16
REMARK                            x       y       z     vdW  Elec       q    Type
REMARK                         _______ _______ _______ _____ _____    ______ ____
ROOT
ATOM      7  N   UNL     1      -8.155  -8.824  16.583  0.00  0.00    -0.341 N 
ATOM      8  N   UNL     1      -9.470  -9.630  18.181  0.00  0.00    -0.238 NA
ATOM     11  C   UNL     1      -9.350  -8.721  17.239  0.00  0.00    +0.127 A 
ATOM     14  C   UNL     1      -7.470  -9.865  17.141  0.00  0.00    +0.066 A 
ATOM     15  C   UNL     1      -8.301 -10.347  18.125  0.00  0.00    +0.139 A 
ATOM     24  H   UNL     1      -7.847  -8.239  15.817  0.00  0.00    +0.167 HD
ENDROOT
BRANCH  11   9
ATOM      4  O   UNL     1     -12.694  -7.249  16.289  0.00  0.00    -0.377 OA
ATOM      6  N   UNL     1      -9.931  -6.884  15.692  0.00  0.00    -0.303 NA
ATOM      9  C   UNL     1     -10.365  -7.659  16.868  0.00  0.00    +0.146 C 
ATOM     10  C   UNL     1     -11.750  -8.272  16.610  0.00  0.00    +0.186 C 
ATOM     12  C   UNL     1     -10.938  -5.881  15.336  0.00  0.00    +0.109 C 
ATOM     13  C   UNL     1     -12.293  -6.540  15.115  0.00  0.00    +0.175 C 
ATOM     23  H   UNL     1      -9.814  -7.521  14.903  0.00  0.00    +0.123 HD
ENDBRANCH  11   9
BRANCH  14  16
ATOM     16  C   UNL     1      -6.161 -10.278  16.705  0.00  0.00    +0.000 A 
ATOM     17  C   UNL     1      -5.802 -10.157  15.363  0.00  0.00    +0.013 A 
ATOM     18  C   UNL     1      -5.252 -10.799  17.626  0.00  0.00    +0.013 A 
ATOM     19  C   UNL     1      -4.534 -10.556  14.942  0.00  0.00    +0.046 A 
ATOM     20  C   UNL     1      -3.984 -11.198  17.204  0.00  0.00    +0.046 A 
ATOM     21  C   UNL     1      -3.625 -11.076  15.862  0.00  0.00    +0.130 A 
BRANCH  21   5
ATOM      5  O   UNL     1      -2.386 -11.463  15.452  0.00  0.00    -0.406 OA
BRANCH   5  22
ATOM      1  F   UNL     1      -0.177 -11.000  15.501  0.00  0.00    -0.133 F 
ATOM      2  F   UNL     1      -1.404 -10.003  13.992  0.00  0.00    -0.133 F 
ATOM      3  F   UNL     1      -1.570  -9.434  16.121  0.00  0.00    -0.133 F 
ATOM     22  C   UNL     1      -1.394 -10.460  15.262  0.00  0.00    +0.575 C 
ENDBRANCH   5  22
ENDBRANCH  21   5
ENDBRANCH  14  16
TORSDOF 4
ENDMDL
MODEL 10
REMARK VINA RESULT:      -6.2      5.925      9.273
REMARK  Name = 56775959
REMARK  4 active torsions:
REMARK  status: ('A' for Active; 'I' for Inactive)
REMARK    1  A    between atoms: O_5  and  C_21
REMARK    2  A    between atoms: O_5  and  C_22
REMARK    3  A    between atoms: C_9  and  C_11
REMARK    4  A    between atoms: C_14  and  C_16
REMARK                            x       y       z     vdW  Elec       q    Type
REMARK                         _______ _______ _______ _____ _____    ______ ____
ROOT
ATOM      7  N   UNL     1      13.848   8.084  21.199  0.00  0.00    -0.341 N 
ATOM      8  N   UNL     1      13.144   7.079  19.349  0.00  0.00    -0.238 NA
ATOM     11  C   UNL     1      14.124   7.172  20.219  0.00  0.00    +0.127 A 
ATOM     14  C   UNL     1      12.613   8.606  20.937  0.00  0.00    +0.066 A 
ATOM     15  C   UNL     1      12.198   7.970  19.791  0.00  0.00    +0.139 A 
ATOM     24  H   UNL     1      14.449   8.316  21.980  0.00  0.00    +0.167 HD
ENDROOT
BRANCH  11   9
ATOM      4  O   UNL     1      17.656   6.239  21.173  0.00  0.00    -0.377 OA
ATOM      6  N   UNL     1      16.006   6.337  18.852  0.00  0.00    -0.303 NA
ATOM      9  C   UNL     1      15.428   6.398  20.206  0.00  0.00    +0.146 C 
ATOM     10  C   UNL     1      16.447   7.000  21.184  0.00  0.00    +0.186 C 
ATOM     12  C   UNL     1      17.276   5.608  18.866  0.00  0.00    +0.109 C 
ATOM     13  C   UNL     1      18.238   6.232  19.869  0.00  0.00    +0.175 C 
ATOM     23  H   UNL     1      16.182   7.288  18.525  0.00  0.00    +0.123 HD
ENDBRANCH  11   9
BRANCH  14  16
ATOM     16  C   UNL     1      11.983   9.603  21.762  0.00  0.00    +0.000 A 
ATOM     17  C   UNL     1      12.102  10.954  21.437  0.00  0.00    +0.013 A 
ATOM     18  C   UNL     1      11.252   9.218  22.886  0.00  0.00    +0.013 A 
ATOM     19  C   UNL     1      11.490  11.920  22.235  0.00  0.00    +0.046 A 
ATOM     20  C   UNL     1      10.640  10.185  23.684  0.00  0.00    +0.046 A 
ATOM     21  C   UNL     1      10.759  11.536  23.358  0.00  0.00    +0.130 A 
BRANCH  21   5
ATOM      5  O   UNL     1      10.160  12.478  24.136  0.00  0.00    -0.406 OA
BRANCH   5  22
ATOM      1  F   UNL     1      11.507  14.232  24.588  0.00  0.00    -0.133 F 
ATOM      2  F   UNL     1      10.177  13.522  26.171  0.00  0.00    -0.133 F 
ATOM      3  F   UNL     1      11.936  12.327  25.569  0.00  0.00    -0.133 F 
ATOM     22  C   UNL     1      10.943  13.129  25.131  0.00  0.00    +0.575 C 
ENDBRANCH   5  22
ENDBRANCH  21   5
ENDBRANCH  14  16
TORSDOF 4
ENDMDL
