MODEL 1
REMARK VINA RESULT:      -6.8      0.000      0.000
REMARK  Name = 75366958
REMARK  11 active torsions:
REMARK  status: ('A' for Active; 'I' for Inactive)
REMARK    1  A    between atoms: O_2  and  C_12
REMARK    2  A    between atoms: O_5  and  C_21
REMARK    3  A    between atoms: O_5  and  C_27
REMARK    4  A    between atoms: O_6  and  C_28
REMARK    5  A    between atoms: O_6  and  C_29
REMARK    6  A    between atoms: N_7  and  C_16
REMARK    7  A    between atoms: N_9  and  C_22
REMARK    8  A    between atoms: C_10  and  C_15
REMARK    9  A    between atoms: C_11  and  C_16
REMARK   10  A    between atoms: C_15  and  C_17
REMARK   11  A    between atoms: C_20  and  C_21
REMARK                            x       y       z     vdW  Elec       q    Type
REMARK                         _______ _______ _______ _____ _____    ______ ____
ROOT
ATOM      1  O   UNL     1     -16.522   0.778  26.662  0.00  0.00    -0.369 OA
ATOM     10  C   UNL     1     -17.559   1.207  27.547  0.00  0.00    +0.125 C 
ATOM     11  C   UNL     1     -16.636   1.251  25.313  0.00  0.00    +0.164 C 
ATOM     12  C   UNL     1     -17.994   0.879  24.704  0.00  0.00    +0.145 C 
ATOM     13  C   UNL     1     -18.926   0.753  27.036  0.00  0.00    +0.034 C 
ATOM     14  C   UNL     1     -19.161   1.253  25.613  0.00  0.00    +0.036 C 
ENDROOT
BRANCH  12   2
ATOM      2  O   UNL     1     -18.035  -0.535  24.500  0.00  0.00    -0.389 OA
ATOM     30  H   UNL     1     -18.322  -0.692  23.584  0.00  0.00    +0.210 HD
ENDBRANCH  12   2
BRANCH  10  15
ATOM     15  C   UNL     1     -17.268   0.611  28.918  0.00  0.00    +0.090 C 
BRANCH  15  17
ATOM      3  O   UNL     1     -13.821   0.823  29.949  0.00  0.00    -0.357 OA
ATOM      8  N   UNL     1     -14.908   0.133  29.427  0.00  0.00    -0.083 NA
ATOM     17  C   UNL     1     -15.910   1.017  29.426  0.00  0.00    +0.086 A 
ATOM     18  C   UNL     1     -15.518   2.268  29.932  0.00  0.00    +0.073 A 
ATOM     20  C   UNL     1     -14.197   2.092  30.246  0.00  0.00    +0.163 A 
BRANCH  20  21
ATOM     21  C   UNL     1     -13.161   2.967  30.812  0.00  0.00    +0.236 C 
BRANCH  21   5
ATOM      5  O   UNL     1     -13.141   2.853  32.238  0.00  0.00    -0.375 OA
ATOM     27  C   UNL     1     -13.848   3.921  32.847  0.00  0.00    +0.194 C 
ENDBRANCH  21   5
ENDBRANCH  20  21
ENDBRANCH  15  17
ENDBRANCH  10  15
BRANCH  11  16
ATOM     16  C   UNL     1     -16.333   2.745  25.227  0.00  0.00    +0.140 C 
BRANCH  16   7
ATOM      4  O   UNL     1     -15.759   5.335  24.147  0.00  0.00    -0.253 OA
ATOM      7  N   UNL     1     -15.508   3.037  24.094  0.00  0.00    -0.297 N 
ATOM      9  N   UNL     1     -14.431   4.315  22.503  0.00  0.00    -0.269 N 
ATOM     19  C   UNL     1     -15.271   4.339  23.620  0.00  0.00    +0.304 C 
ATOM     31  H   UNL     1     -15.109   2.257  23.579  0.00  0.00    +0.150 HD
ATOM     32  H   UNL     1     -14.112   3.400  22.193  0.00  0.00    +0.156 HD
BRANCH   9  22
ATOM     22  C   UNL     1     -13.962   5.413  21.744  0.00  0.00    +0.035 A 
ATOM     23  C   UNL     1     -14.864   6.214  21.046  0.00  0.00    +0.027 A 
ATOM     24  C   UNL     1     -12.597   5.694  21.696  0.00  0.00    +0.027 A 
ATOM     25  C   UNL     1     -14.402   7.297  20.298  0.00  0.00    +0.047 A 
ATOM     26  C   UNL     1     -12.133   6.775  20.947  0.00  0.00    +0.047 A 
ATOM     28  C   UNL     1     -13.036   7.578  20.249  0.00  0.00    +0.120 A 
BRANCH  28   6
ATOM      6  O   UNL     1     -12.585   8.633  19.518  0.00  0.00    -0.495 OA
ATOM     29  C   UNL     1     -11.266   9.101  19.801  0.00  0.00    +0.277 C 
ENDBRANCH  28   6
ENDBRANCH   9  22
ENDBRANCH  16   7
ENDBRANCH  11  16
TORSDOF 9
ENDMDL
MODEL 2
REMARK VINA RESULT:      -6.6      1.393      1.941
REMARK  Name = 75366958
REMARK  11 active torsions:
REMARK  status: ('A' for Active; 'I' for Inactive)
REMARK    1  A    between atoms: O_2  and  C_12
REMARK    2  A    between atoms: O_5  and  C_21
REMARK    3  A    between atoms: O_5  and  C_27
REMARK    4  A    between atoms: O_6  and  C_28
REMARK    5  A    between atoms: O_6  and  C_29
REMARK    6  A    between atoms: N_7  and  C_16
REMARK    7  A    between atoms: N_9  and  C_22
REMARK    8  A    between atoms: C_10  and  C_15
REMARK    9  A    between atoms: C_11  and  C_16
REMARK   10  A    between atoms: C_15  and  C_17
REMARK   11  A    between atoms: C_20  and  C_21
REMARK                            x       y       z     vdW  Elec       q    Type
REMARK                         _______ _______ _______ _____ _____    ______ ____
ROOT
ATOM      1  O   UNL     1     -16.336   1.828  25.183  0.00  0.00    -0.369 OA
ATOM     10  C   UNL     1     -16.911   2.215  26.433  0.00  0.00    +0.125 C 
ATOM     11  C   UNL     1     -16.297   2.857  24.185  0.00  0.00    +0.164 C 
ATOM     12  C   UNL     1     -17.693   3.441  23.930  0.00  0.00    +0.145 C 
ATOM     13  C   UNL     1     -18.349   2.694  26.240  0.00  0.00    +0.034 C 
ATOM     14  C   UNL     1     -18.405   3.830  25.223  0.00  0.00    +0.036 C 
ENDROOT
BRANCH  12   2
ATOM      2  O   UNL     1     -18.492   2.454  23.272  0.00  0.00    -0.389 OA
ATOM     30  H   UNL     1     -18.031   1.601  23.353  0.00  0.00    +0.210 HD
ENDBRANCH  12   2
BRANCH  10  15
ATOM     15  C   UNL     1     -16.862   1.002  27.354  0.00  0.00    +0.090 C 
BRANCH  15  17
ATOM      3  O   UNL     1     -14.508   0.646  30.060  0.00  0.00    -0.357 OA
ATOM      8  N   UNL     1     -15.372   0.124  29.105  0.00  0.00    -0.083 NA
ATOM     17  C   UNL     1     -15.873   1.190  28.473  0.00  0.00    +0.086 A 
ATOM     18  C   UNL     1     -15.366   2.398  28.983  0.00  0.00    +0.073 A 
ATOM     20  C   UNL     1     -14.514   2.000  29.977  0.00  0.00    +0.163 A 
BRANCH  20  21
ATOM     21  C   UNL     1     -13.649   2.718  30.923  0.00  0.00    +0.236 C 
BRANCH  21   5
ATOM      5  O   UNL     1     -13.648   2.058  32.193  0.00  0.00    -0.375 OA
ATOM     27  C   UNL     1     -14.436   2.764  33.137  0.00  0.00    +0.194 C 
ENDBRANCH  21   5
ENDBRANCH  20  21
ENDBRANCH  15  17
ENDBRANCH  10  15
BRANCH  11  16
ATOM     16  C   UNL     1     -15.260   3.923  24.533  0.00  0.00    +0.140 C 
BRANCH  16   7
ATOM      4  O   UNL     1     -14.838   6.470  23.293  0.00  0.00    -0.253 OA
ATOM      7  N   UNL     1     -14.413   4.200  23.413  0.00  0.00    -0.297 N 
ATOM      9  N   UNL     1     -13.370   5.445  21.776  0.00  0.00    -0.269 N 
ATOM     19  C   UNL     1     -14.255   5.481  22.856  0.00  0.00    +0.304 C 
ATOM     31  H   UNL     1     -13.935   3.420  22.970  0.00  0.00    +0.150 HD
ATOM     32  H   UNL     1     -12.970   4.540  21.543  0.00  0.00    +0.156 HD
BRANCH   9  22
ATOM     22  C   UNL     1     -12.953   6.522  20.958  0.00  0.00    +0.035 A 
ATOM     23  C   UNL     1     -11.602   6.860  20.884  0.00  0.00    +0.027 A 
ATOM     24  C   UNL     1     -13.894   7.246  20.225  0.00  0.00    +0.027 A 
ATOM     25  C   UNL     1     -11.191   7.922  20.078  0.00  0.00    +0.047 A 
ATOM     26  C   UNL     1     -13.484   8.308  19.420  0.00  0.00    +0.047 A 
ATOM     28  C   UNL     1     -12.132   8.646  19.345  0.00  0.00    +0.120 A 
BRANCH  28   6
ATOM      6  O   UNL     1     -11.732   9.682  18.560  0.00  0.00    -0.495 OA
ATOM     29  C   UNL     1     -10.451  10.248  18.835  0.00  0.00    +0.277 C 
ENDBRANCH  28   6
ENDBRANCH   9  22
ENDBRANCH  16   7
ENDBRANCH  11  16
TORSDOF 9
ENDMDL
MODEL 3
REMARK VINA RESULT:      -6.5      5.148     10.057
REMARK  Name = 75366958
REMARK  11 active torsions:
REMARK  status: ('A' for Active; 'I' for Inactive)
REMARK    1  A    between atoms: O_2  and  C_12
REMARK    2  A    between atoms: O_5  and  C_21
REMARK    3  A    between atoms: O_5  and  C_27
REMARK    4  A    between atoms: O_6  and  C_28
REMARK    5  A    between atoms: O_6  and  C_29
REMARK    6  A    between atoms: N_7  and  C_16
REMARK    7  A    between atoms: N_9  and  C_22
REMARK    8  A    between atoms: C_10  and  C_15
REMARK    9  A    between atoms: C_11  and  C_16
REMARK   10  A    between atoms: C_15  and  C_17
REMARK   11  A    between atoms: C_20  and  C_21
REMARK                            x       y       z     vdW  Elec       q    Type
REMARK                         _______ _______ _______ _____ _____    ______ ____
ROOT
ATOM      1  O   UNL     1     -10.846   8.842  20.129  0.00  0.00    -0.369 OA
ATOM     10  C   UNL     1     -11.816   7.906  19.654  0.00  0.00    +0.125 C 
ATOM     11  C   UNL     1     -10.864  10.121  19.482  0.00  0.00    +0.164 C 
ATOM     12  C   UNL     1     -10.714   9.980  17.962  0.00  0.00    +0.145 C 
ATOM     13  C   UNL     1     -11.628   7.645  18.160  0.00  0.00    +0.034 C 
ATOM     14  C   UNL     1     -11.679   8.953  17.376  0.00  0.00    +0.036 C 
ENDROOT
BRANCH  12   2
ATOM      2  O   UNL     1      -9.384   9.545  17.668  0.00  0.00    -0.389 OA
ATOM     30  H   UNL     1      -9.413   9.058  16.827  0.00  0.00    +0.210 HD
ENDBRANCH  12   2
BRANCH  10  15
ATOM     15  C   UNL     1     -11.644   6.621  20.454  0.00  0.00    +0.090 C 
BRANCH  15  17
ATOM      3  O   UNL     1     -14.974   6.334  21.802  0.00  0.00    -0.357 OA
ATOM      8  N   UNL     1     -14.038   6.904  20.948  0.00  0.00    -0.083 NA
ATOM     17  C   UNL     1     -12.897   6.260  21.207  0.00  0.00    +0.086 A 
ATOM     18  C   UNL     1     -13.050   5.284  22.207  0.00  0.00    +0.073 A 
ATOM     20  C   UNL     1     -14.374   5.372  22.546  0.00  0.00    +0.163 A 
BRANCH  20  21
ATOM     21  C   UNL     1     -15.226   4.662  23.510  0.00  0.00    +0.236 C 
BRANCH  21   5
ATOM      5  O   UNL     1     -15.893   3.569  22.870  0.00  0.00    -0.375 OA
ATOM     27  C   UNL     1     -17.301   3.730  22.919  0.00  0.00    +0.194 C 
ENDBRANCH  21   5
ENDBRANCH  20  21
ENDBRANCH  15  17
ENDBRANCH  10  15
BRANCH  11  16
ATOM     16  C   UNL     1     -12.097  10.925  19.888  0.00  0.00    +0.140 C 
BRANCH  16   7
ATOM      4  O   UNL     1     -12.866   9.822  22.417  0.00  0.00    -0.253 OA
ATOM      7  N   UNL     1     -11.916  11.526  21.174  0.00  0.00    -0.297 N 
ATOM      9  N   UNL     1     -12.017  11.740  23.469  0.00  0.00    -0.269 N 
ATOM     19  C   UNL     1     -12.321  10.922  22.378  0.00  0.00    +0.304 C 
ATOM     31  H   UNL     1     -11.514  12.458  21.216  0.00  0.00    +0.150 HD
ATOM     32  H   UNL     1     -11.561  12.625  23.263  0.00  0.00    +0.156 HD
BRANCH   9  22
ATOM     22  C   UNL     1     -12.264  11.488  24.840  0.00  0.00    +0.035 A 
ATOM     23  C   UNL     1     -13.422  11.979  25.442  0.00  0.00    +0.027 A 
ATOM     24  C   UNL     1     -11.349  10.747  25.588  0.00  0.00    +0.027 A 
ATOM     25  C   UNL     1     -13.665  11.730  26.793  0.00  0.00    +0.047 A 
ATOM     26  C   UNL     1     -11.592  10.499  26.939  0.00  0.00    +0.047 A 
ATOM     28  C   UNL     1     -12.750  10.990  27.541  0.00  0.00    +0.120 A 
BRANCH  28   6
ATOM      6  O   UNL     1     -12.987  10.748  28.859  0.00  0.00    -0.495 OA
ATOM     29  C   UNL     1     -11.884  10.293  29.644  0.00  0.00    +0.277 C 
ENDBRANCH  28   6
ENDBRANCH   9  22
ENDBRANCH  16   7
ENDBRANCH  11  16
TORSDOF 9
ENDMDL
MODEL 4
REMARK VINA RESULT:      -6.4      1.916      2.494
REMARK  Name = 75366958
REMARK  11 active torsions:
REMARK  status: ('A' for Active; 'I' for Inactive)
REMARK    1  A    between atoms: O_2  and  C_12
REMARK    2  A    between atoms: O_5  and  C_21
REMARK    3  A    between atoms: O_5  and  C_27
REMARK    4  A    between atoms: O_6  and  C_28
REMARK    5  A    between atoms: O_6  and  C_29
REMARK    6  A    between atoms: N_7  and  C_16
REMARK    7  A    between atoms: N_9  and  C_22
REMARK    8  A    between atoms: C_10  and  C_15
REMARK    9  A    between atoms: C_11  and  C_16
REMARK   10  A    between atoms: C_15  and  C_17
REMARK   11  A    between atoms: C_20  and  C_21
REMARK                            x       y       z     vdW  Elec       q    Type
REMARK                         _______ _______ _______ _____ _____    ______ ____
ROOT
ATOM      1  O   UNL     1     -16.006   3.346  27.378  0.00  0.00    -0.369 OA
ATOM     10  C   UNL     1     -17.206   3.845  27.972  0.00  0.00    +0.125 C 
ATOM     11  C   UNL     1     -16.165   2.165  26.581  0.00  0.00    +0.164 C 
ATOM     12  C   UNL     1     -16.830   1.037  27.380  0.00  0.00    +0.145 C 
ATOM     13  C   UNL     1     -17.841   2.788  28.875  0.00  0.00    +0.034 C 
ATOM     14  C   UNL     1     -18.095   1.500  28.097  0.00  0.00    +0.036 C 
ENDROOT
BRANCH  12   2
ATOM      2  O   UNL     1     -15.911   0.573  28.372  0.00  0.00    -0.389 OA
ATOM     30  H   UNL     1     -16.344  -0.149  28.860  0.00  0.00    +0.210 HD
ENDBRANCH  12   2
BRANCH  10  15
ATOM     15  C   UNL     1     -16.839   5.089  28.770  0.00  0.00    +0.090 C 
BRANCH  15  17
ATOM      3  O   UNL     1     -15.766   4.660  32.184  0.00  0.00    -0.357 OA
ATOM      8  N   UNL     1     -16.646   5.142  31.223  0.00  0.00    -0.083 NA
ATOM     17  C   UNL     1     -16.136   4.741  30.055  0.00  0.00    +0.086 A 
ATOM     18  C   UNL     1     -14.945   4.011  30.216  0.00  0.00    +0.073 A 
ATOM     20  C   UNL     1     -14.758   3.989  31.572  0.00  0.00    +0.163 A 
BRANCH  20  21
ATOM     21  C   UNL     1     -13.730   3.409  32.447  0.00  0.00    +0.236 C 
BRANCH  21   5
ATOM      5  O   UNL     1     -13.769   1.980  32.378  0.00  0.00    -0.375 OA
ATOM     27  C   UNL     1     -14.722   1.449  33.283  0.00  0.00    +0.194 C 
ENDBRANCH  21   5
ENDBRANCH  20  21
ENDBRANCH  15  17
ENDBRANCH  10  15
BRANCH  11  16
ATOM     16  C   UNL     1     -16.891   2.477  25.274  0.00  0.00    +0.140 C 
BRANCH  16   7
ATOM      4  O   UNL     1     -16.255   5.047  24.180  0.00  0.00    -0.253 OA
ATOM      7  N   UNL     1     -15.959   2.753  24.223  0.00  0.00    -0.297 N 
ATOM      9  N   UNL     1     -14.747   4.007  22.713  0.00  0.00    -0.269 N 
ATOM     19  C   UNL     1     -15.698   4.046  23.736  0.00  0.00    +0.304 C 
ATOM     31  H   UNL     1     -15.495   1.968  23.776  0.00  0.00    +0.150 HD
ATOM     32  H   UNL     1     -14.380   3.091  22.465  0.00  0.00    +0.156 HD
BRANCH   9  22
ATOM     22  C   UNL     1     -14.221   5.092  21.973  0.00  0.00    +0.035 A 
ATOM     23  C   UNL     1     -15.073   5.902  21.222  0.00  0.00    +0.027 A 
ATOM     24  C   UNL     1     -12.851   5.353  21.995  0.00  0.00    +0.027 A 
ATOM     25  C   UNL     1     -14.555   6.972  20.493  0.00  0.00    +0.047 A 
ATOM     26  C   UNL     1     -12.332   6.422  21.265  0.00  0.00    +0.047 A 
ATOM     28  C   UNL     1     -13.184   7.232  20.514  0.00  0.00    +0.120 A 
BRANCH  28   6
ATOM      6  O   UNL     1     -12.679   8.276  19.802  0.00  0.00    -0.495 OA
ATOM     29  C   UNL     1     -12.606   8.119  18.385  0.00  0.00    +0.277 C 
ENDBRANCH  28   6
ENDBRANCH   9  22
ENDBRANCH  16   7
ENDBRANCH  11  16
TORSDOF 9
ENDMDL
MODEL 5
REMARK VINA RESULT:      -6.4     19.921     22.259
REMARK  Name = 75366958
REMARK  11 active torsions:
REMARK  status: ('A' for Active; 'I' for Inactive)
REMARK    1  A    between atoms: O_2  and  C_12
REMARK    2  A    between atoms: O_5  and  C_21
REMARK    3  A    between atoms: O_5  and  C_27
REMARK    4  A    between atoms: O_6  and  C_28
REMARK    5  A    between atoms: O_6  and  C_29
REMARK    6  A    between atoms: N_7  and  C_16
REMARK    7  A    between atoms: N_9  and  C_22
REMARK    8  A    between atoms: C_10  and  C_15
REMARK    9  A    between atoms: C_11  and  C_16
REMARK   10  A    between atoms: C_15  and  C_17
REMARK   11  A    between atoms: C_20  and  C_21
REMARK                            x       y       z     vdW  Elec       q    Type
REMARK                         _______ _______ _______ _____ _____    ______ ____
ROOT
ATOM      1  O   UNL     1      -6.209  -8.476   9.849  0.00  0.00    -0.369 OA
ATOM     10  C   UNL     1      -5.347  -9.477   9.304  0.00  0.00    +0.125 C 
ATOM     11  C   UNL     1      -7.600  -8.822   9.882  0.00  0.00    +0.164 C 
ATOM     12  C   UNL     1      -8.111  -9.212   8.489  0.00  0.00    +0.145 C 
ATOM     13  C   UNL     1      -5.749  -9.813   7.869  0.00  0.00    +0.034 C 
ATOM     14  C   UNL     1      -7.213 -10.240   7.808  0.00  0.00    +0.036 C 
ENDROOT
BRANCH  12   2
ATOM      2  O   UNL     1      -8.140  -8.044   7.665  0.00  0.00    -0.389 OA
ATOM     30  H   UNL     1      -7.275  -7.606   7.745  0.00  0.00    +0.210 HD
ENDBRANCH  12   2
BRANCH  10  15
ATOM     15  C   UNL     1      -3.924  -8.934   9.354  0.00  0.00    +0.090 C 
BRANCH  15  17
ATOM      3  O   UNL     1      -1.495  -9.810  11.868  0.00  0.00    -0.357 OA
ATOM      8  N   UNL     1      -1.861  -9.221  10.664  0.00  0.00    -0.083 NA
ATOM     17  C   UNL     1      -3.175  -9.441  10.557  0.00  0.00    +0.086 A 
ATOM     18  C   UNL     1      -3.687 -10.157  11.653  0.00  0.00    +0.073 A 
ATOM     20  C   UNL     1      -2.591 -10.364  12.447  0.00  0.00    +0.163 A 
BRANCH  20  21
ATOM     21  C   UNL     1      -2.382 -11.034  13.738  0.00  0.00    +0.236 C 
BRANCH  21   5
ATOM      5  O   UNL     1      -1.341 -10.382  14.472  0.00  0.00    -0.375 OA
ATOM     27  C   UNL     1      -1.320 -10.813  15.823  0.00  0.00    +0.194 C 
ENDBRANCH  21   5
ENDBRANCH  20  21
ENDBRANCH  15  17
ENDBRANCH  10  15
BRANCH  11  16
ATOM     16  C   UNL     1      -7.878  -9.887  10.939  0.00  0.00    +0.140 C 
BRANCH  16   7
ATOM      4  O   UNL     1      -6.944 -11.438  13.159  0.00  0.00    -0.253 OA
ATOM      7  N   UNL     1      -7.564  -9.404  12.250  0.00  0.00    -0.297 N 
ATOM      9  N   UNL     1      -6.885  -9.481  14.453  0.00  0.00    -0.269 N 
ATOM     19  C   UNL     1      -7.108 -10.228  13.294  0.00  0.00    +0.304 C 
ATOM     31  H   UNL     1      -7.720  -8.420  12.447  0.00  0.00    +0.150 HD
ATOM     32  H   UNL     1      -7.070  -8.482  14.395  0.00  0.00    +0.156 HD
BRANCH   9  22
ATOM     22  C   UNL     1      -6.427  -9.942  15.710  0.00  0.00    +0.035 A 
ATOM     23  C   UNL     1      -5.062 -10.111  15.936  0.00  0.00    +0.027 A 
ATOM     24  C   UNL     1      -7.343 -10.228  16.723  0.00  0.00    +0.027 A 
ATOM     25  C   UNL     1      -4.610 -10.566  17.175  0.00  0.00    +0.047 A 
ATOM     26  C   UNL     1      -6.892 -10.684  17.962  0.00  0.00    +0.047 A 
ATOM     28  C   UNL     1      -5.526 -10.852  18.188  0.00  0.00    +0.120 A 
BRANCH  28   6
ATOM      6  O   UNL     1      -5.086 -11.297  19.397  0.00  0.00    -0.495 OA
ATOM     29  C   UNL     1      -3.903 -12.096  19.403  0.00  0.00    +0.277 C 
ENDBRANCH  28   6
ENDBRANCH   9  22
ENDBRANCH  16   7
ENDBRANCH  11  16
TORSDOF 9
ENDMDL
MODEL 6
REMARK VINA RESULT:      -6.4      2.846      5.029
REMARK  Name = 75366958
REMARK  11 active torsions:
REMARK  status: ('A' for Active; 'I' for Inactive)
REMARK    1  A    between atoms: O_2  and  C_12
REMARK    2  A    between atoms: O_5  and  C_21
REMARK    3  A    between atoms: O_5  and  C_27
REMARK    4  A    between atoms: O_6  and  C_28
REMARK    5  A    between atoms: O_6  and  C_29
REMARK    6  A    between atoms: N_7  and  C_16
REMARK    7  A    between atoms: N_9  and  C_22
REMARK    8  A    between atoms: C_10  and  C_15
REMARK    9  A    between atoms: C_11  and  C_16
REMARK   10  A    between atoms: C_15  and  C_17
REMARK   11  A    between atoms: C_20  and  C_21
REMARK                            x       y       z     vdW  Elec       q    Type
REMARK                         _______ _______ _______ _____ _____    ______ ____
ROOT
ATOM      1  O   UNL     1     -14.301   2.573  30.727  0.00  0.00    -0.369 OA
ATOM     10  C   UNL     1     -15.084   2.177  31.856  0.00  0.00    +0.125 C 
ATOM     11  C   UNL     1     -14.562   1.846  29.519  0.00  0.00    +0.164 C 
ATOM     12  C   UNL     1     -14.399   0.335  29.731  0.00  0.00    +0.145 C 
ATOM     13  C   UNL     1     -14.861   0.700  32.176  0.00  0.00    +0.034 C 
ATOM     14  C   UNL     1     -15.161  -0.165  30.955  0.00  0.00    +0.036 C 
ENDROOT
BRANCH  12   2
ATOM      2  O   UNL     1     -13.014   0.044  29.930  0.00  0.00    -0.389 OA
ATOM     30  H   UNL     1     -12.949  -0.871  30.251  0.00  0.00    +0.210 HD
ENDBRANCH  12   2
BRANCH  10  15
ATOM     15  C   UNL     1     -14.670   3.055  33.031  0.00  0.00    +0.090 C 
BRANCH  15  17
ATOM      3  O   UNL     1     -15.724   6.370  32.089  0.00  0.00    -0.357 OA
ATOM      8  N   UNL     1     -15.962   5.018  32.301  0.00  0.00    -0.083 NA
ATOM     17  C   UNL     1     -14.789   4.519  32.704  0.00  0.00    +0.086 A 
ATOM     18  C   UNL     1     -13.785   5.501  32.763  0.00  0.00    +0.073 A 
ATOM     20  C   UNL     1     -14.424   6.645  32.368  0.00  0.00    +0.163 A 
BRANCH  20  21
ATOM     21  C   UNL     1     -13.998   8.040  32.196  0.00  0.00    +0.236 C 
BRANCH  21   5
ATOM      5  O   UNL     1     -12.745   8.260  32.850  0.00  0.00    -0.375 OA
ATOM     27  C   UNL     1     -11.730   8.589  31.916  0.00  0.00    +0.194 C 
ENDBRANCH  21   5
ENDBRANCH  20  21
ENDBRANCH  15  17
ENDBRANCH  10  15
BRANCH  11  16
ATOM     16  C   UNL     1     -15.920   2.224  28.932  0.00  0.00    +0.140 C 
BRANCH  16   7
ATOM      4  O   UNL     1     -16.312   1.982  26.105  0.00  0.00    -0.253 OA
ATOM      7  N   UNL     1     -15.786   3.263  27.958  0.00  0.00    -0.297 N 
ATOM      9  N   UNL     1     -15.793   4.259  25.877  0.00  0.00    -0.269 N 
ATOM     19  C   UNL     1     -15.995   3.070  26.581  0.00  0.00    +0.304 C 
ATOM     31  H   UNL     1     -15.480   4.179  28.273  0.00  0.00    +0.150 HD
ATOM     32  H   UNL     1     -15.534   5.076  26.425  0.00  0.00    +0.156 HD
BRANCH   9  22
ATOM     22  C   UNL     1     -15.906   4.475  24.483  0.00  0.00    +0.035 A 
ATOM     23  C   UNL     1     -17.161   4.461  23.875  0.00  0.00    +0.027 A 
ATOM     24  C   UNL     1     -14.762   4.701  23.717  0.00  0.00    +0.027 A 
ATOM     25  C   UNL     1     -17.272   4.673  22.500  0.00  0.00    +0.047 A 
ATOM     26  C   UNL     1     -14.873   4.912  22.343  0.00  0.00    +0.047 A 
ATOM     28  C   UNL     1     -16.129   4.899  21.735  0.00  0.00    +0.120 A 
BRANCH  28   6
ATOM      6  O   UNL     1     -16.237   5.105  20.394  0.00  0.00    -0.495 OA
ATOM     29  C   UNL     1     -16.469   6.446  19.960  0.00  0.00    +0.277 C 
ENDBRANCH  28   6
ENDBRANCH   9  22
ENDBRANCH  16   7
ENDBRANCH  11  16
TORSDOF 9
ENDMDL
MODEL 7
REMARK VINA RESULT:      -6.3     15.705     18.452
REMARK  Name = 75366958
REMARK  11 active torsions:
REMARK  status: ('A' for Active; 'I' for Inactive)
REMARK    1  A    between atoms: O_2  and  C_12
REMARK    2  A    between atoms: O_5  and  C_21
REMARK    3  A    between atoms: O_5  and  C_27
REMARK    4  A    between atoms: O_6  and  C_28
REMARK    5  A    between atoms: O_6  and  C_29
REMARK    6  A    between atoms: N_7  and  C_16
REMARK    7  A    between atoms: N_9  and  C_22
REMARK    8  A    between atoms: C_10  and  C_15
REMARK    9  A    between atoms: C_11  and  C_16
REMARK   10  A    between atoms: C_15  and  C_17
REMARK   11  A    between atoms: C_20  and  C_21
REMARK                            x       y       z     vdW  Elec       q    Type
REMARK                         _______ _______ _______ _____ _____    ______ ____
ROOT
ATOM      1  O   UNL     1      -6.717 -11.834  17.410  0.00  0.00    -0.369 OA
ATOM     10  C   UNL     1      -5.981 -10.692  16.965  0.00  0.00    +0.125 C 
ATOM     11  C   UNL     1      -6.315 -12.359  18.682  0.00  0.00    +0.164 C 
ATOM     12  C   UNL     1      -4.818 -12.696  18.700  0.00  0.00    +0.145 C 
ATOM     13  C   UNL     1      -4.493 -11.019  16.854  0.00  0.00    +0.034 C 
ATOM     14  C   UNL     1      -3.959 -11.546  18.183  0.00  0.00    +0.036 C 
ENDROOT
BRANCH  12   2
ATOM      2  O   UNL     1      -4.591 -13.826  17.854  0.00  0.00    -0.389 OA
ATOM     30  H   UNL     1      -3.826 -13.621  17.289  0.00  0.00    +0.210 HD
ENDBRANCH  12   2
BRANCH  10  15
ATOM     15  C   UNL     1      -6.547 -10.282  15.611  0.00  0.00    +0.090 C 
BRANCH  15  17
ATOM      3  O   UNL     1      -9.399  -8.350  16.671  0.00  0.00    -0.357 OA
ATOM      8  N   UNL     1      -8.134  -8.887  16.874  0.00  0.00    -0.083 NA
ATOM     17  C   UNL     1      -7.860  -9.559  15.751  0.00  0.00    +0.086 A 
ATOM     18  C   UNL     1      -8.906  -9.481  14.815  0.00  0.00    +0.073 A 
ATOM     20  C   UNL     1      -9.848  -8.711  15.443  0.00  0.00    +0.163 A 
BRANCH  20  21
ATOM     21  C   UNL     1     -11.181  -8.224  15.063  0.00  0.00    +0.236 C 
BRANCH  21   5
ATOM      5  O   UNL     1     -11.590  -7.168  15.937  0.00  0.00    -0.375 OA
ATOM     27  C   UNL     1     -11.535  -5.911  15.283  0.00  0.00    +0.194 C 
ENDBRANCH  21   5
ENDBRANCH  20  21
ENDBRANCH  15  17
ENDBRANCH  10  15
BRANCH  11  16
ATOM     16  C   UNL     1      -6.730 -11.428  19.819  0.00  0.00    +0.140 C 
BRANCH  16   7
ATOM      4  O   UNL     1      -9.506 -11.948  20.296  0.00  0.00    -0.253 OA
ATOM      7  N   UNL     1      -7.835 -10.605  19.430  0.00  0.00    -0.297 N 
ATOM      9  N   UNL     1     -10.032  -9.940  19.202  0.00  0.00    -0.269 N 
ATOM     19  C   UNL     1      -9.177 -10.926  19.700  0.00  0.00    +0.304 C 
ATOM     31  H   UNL     1      -7.640  -9.766  18.891  0.00  0.00    +0.150 HD
ATOM     32  H   UNL     1      -9.595  -9.151  18.731  0.00  0.00    +0.156 HD
BRANCH   9  22
ATOM     22  C   UNL     1     -11.445  -9.898  19.272  0.00  0.00    +0.035 A 
ATOM     23  C   UNL     1     -12.078  -9.769  20.507  0.00  0.00    +0.027 A 
ATOM     24  C   UNL     1     -12.204  -9.985  18.105  0.00  0.00    +0.027 A 
ATOM     25  C   UNL     1     -13.471  -9.727  20.577  0.00  0.00    +0.047 A 
ATOM     26  C   UNL     1     -13.596  -9.945  18.173  0.00  0.00    +0.047 A 
ATOM     28  C   UNL     1     -14.230  -9.815  19.410  0.00  0.00    +0.120 A 
BRANCH  28   6
ATOM      6  O   UNL     1     -15.588  -9.776  19.477  0.00  0.00    -0.495 OA
ATOM     29  C   UNL     1     -16.182 -10.014  20.754  0.00  0.00    +0.277 C 
ENDBRANCH  28   6
ENDBRANCH   9  22
ENDBRANCH  16   7
ENDBRANCH  11  16
TORSDOF 9
ENDMDL
MODEL 8
REMARK VINA RESULT:      -6.3     17.514     19.594
REMARK  Name = 75366958
REMARK  11 active torsions:
REMARK  status: ('A' for Active; 'I' for Inactive)
REMARK    1  A    between atoms: O_2  and  C_12
REMARK    2  A    between atoms: O_5  and  C_21
REMARK    3  A    between atoms: O_5  and  C_27
REMARK    4  A    between atoms: O_6  and  C_28
REMARK    5  A    between atoms: O_6  and  C_29
REMARK    6  A    between atoms: N_7  and  C_16
REMARK    7  A    between atoms: N_9  and  C_22
REMARK    8  A    between atoms: C_10  and  C_15
REMARK    9  A    between atoms: C_11  and  C_16
REMARK   10  A    between atoms: C_15  and  C_17
REMARK   11  A    between atoms: C_20  and  C_21
REMARK                            x       y       z     vdW  Elec       q    Type
REMARK                         _______ _______ _______ _____ _____    ______ ____
ROOT
ATOM      1  O   UNL     1      -6.308 -11.908  16.840  0.00  0.00    -0.369 OA
ATOM     10  C   UNL     1      -4.892 -11.861  17.030  0.00  0.00    +0.125 C 
ATOM     11  C   UNL     1      -7.078 -11.189  17.813  0.00  0.00    +0.164 C 
ATOM     12  C   UNL     1      -6.753 -11.656  19.238  0.00  0.00    +0.145 C 
ATOM     13  C   UNL     1      -4.513 -12.430  18.397  0.00  0.00    +0.034 C 
ATOM     14  C   UNL     1      -5.252 -11.691  19.509  0.00  0.00    +0.036 C 
ENDROOT
BRANCH  12   2
ATOM      2  O   UNL     1      -7.260 -12.981  19.415  0.00  0.00    -0.389 OA
ATOM     30  H   UNL     1      -7.997 -13.100  18.792  0.00  0.00    +0.210 HD
ENDBRANCH  12   2
BRANCH  10  15
ATOM     15  C   UNL     1      -4.253 -12.672  15.910  0.00  0.00    +0.090 C 
BRANCH  15  17
ATOM      3  O   UNL     1      -1.877 -10.363  14.492  0.00  0.00    -0.357 OA
ATOM      8  N   UNL     1      -2.492 -10.988  15.570  0.00  0.00    -0.083 NA
ATOM     17  C   UNL     1      -3.387 -11.816  15.025  0.00  0.00    +0.086 A 
ATOM     18  C   UNL     1      -3.383 -11.757  13.620  0.00  0.00    +0.073 A 
ATOM     20  C   UNL     1      -2.417 -10.829  13.337  0.00  0.00    +0.163 A 
BRANCH  20  21
ATOM     21  C   UNL     1      -1.879 -10.271  12.090  0.00  0.00    +0.236 C 
BRANCH  21   5
ATOM      5  O   UNL     1      -2.742 -10.585  10.993  0.00  0.00    -0.375 OA
ATOM     27  C   UNL     1      -3.148  -9.412  10.308  0.00  0.00    +0.194 C 
ENDBRANCH  21   5
ENDBRANCH  20  21
ENDBRANCH  15  17
ENDBRANCH  10  15
BRANCH  11  16
ATOM     16  C   UNL     1      -6.926  -9.681  17.630  0.00  0.00    +0.140 C 
BRANCH  16   7
ATOM      4  O   UNL     1      -8.899  -8.987  15.673  0.00  0.00    -0.253 OA
ATOM      7  N   UNL     1      -8.166  -9.008  17.867  0.00  0.00    -0.297 N 
ATOM      9  N   UNL     1     -10.204  -8.042  17.380  0.00  0.00    -0.269 N 
ATOM     19  C   UNL     1      -9.089  -8.699  16.852  0.00  0.00    +0.304 C 
ATOM     31  H   UNL     1      -8.370  -8.698  18.813  0.00  0.00    +0.150 HD
ATOM     32  H   UNL     1     -10.207  -7.882  18.384  0.00  0.00    +0.156 HD
BRANCH   9  22
ATOM     22  C   UNL     1     -11.344  -7.571  16.686  0.00  0.00    +0.035 A 
ATOM     23  C   UNL     1     -11.289  -6.360  15.997  0.00  0.00    +0.027 A 
ATOM     24  C   UNL     1     -12.522  -8.318  16.691  0.00  0.00    +0.027 A 
ATOM     25  C   UNL     1     -12.412  -5.895  15.312  0.00  0.00    +0.047 A 
ATOM     26  C   UNL     1     -13.645  -7.853  16.009  0.00  0.00    +0.047 A 
ATOM     28  C   UNL     1     -13.591  -6.642  15.318  0.00  0.00    +0.120 A 
BRANCH  28   6
ATOM      6  O   UNL     1     -14.687  -6.188  14.652  0.00  0.00    -0.495 OA
ATOM     29  C   UNL     1     -15.940  -6.791  14.977  0.00  0.00    +0.277 C 
ENDBRANCH  28   6
ENDBRANCH   9  22
ENDBRANCH  16   7
ENDBRANCH  11  16
TORSDOF 9
ENDMDL
MODEL 9
REMARK VINA RESULT:      -6.3     31.057     36.667
REMARK  Name = 75366958
REMARK  11 active torsions:
REMARK  status: ('A' for Active; 'I' for Inactive)
REMARK    1  A    between atoms: O_2  and  C_12
REMARK    2  A    between atoms: O_5  and  C_21
REMARK    3  A    between atoms: O_5  and  C_27
REMARK    4  A    between atoms: O_6  and  C_28
REMARK    5  A    between atoms: O_6  and  C_29
REMARK    6  A    between atoms: N_7  and  C_16
REMARK    7  A    between atoms: N_9  and  C_22
REMARK    8  A    between atoms: C_10  and  C_15
REMARK    9  A    between atoms: C_11  and  C_16
REMARK   10  A    between atoms: C_15  and  C_17
REMARK   11  A    between atoms: C_20  and  C_21
REMARK                            x       y       z     vdW  Elec       q    Type
REMARK                         _______ _______ _______ _____ _____    ______ ____
ROOT
ATOM      1  O   UNL     1      12.809   2.574   0.339  0.00  0.00    -0.369 OA
ATOM     10  C   UNL     1      12.905   3.427  -0.804  0.00  0.00    +0.125 C 
ATOM     11  C   UNL     1      12.923   3.237   1.606  0.00  0.00    +0.164 C 
ATOM     12  C   UNL     1      14.223   4.045   1.698  0.00  0.00    +0.145 C 
ATOM     13  C   UNL     1      14.242   4.167  -0.814  0.00  0.00    +0.034 C 
ATOM     14  C   UNL     1      14.434   4.946   0.484  0.00  0.00    +0.036 C 
ENDROOT
BRANCH  12   2
ATOM      2  O   UNL     1      15.326   3.138   1.765  0.00  0.00    -0.389 OA
ATOM     30  H   UNL     1      14.965   2.246   1.907  0.00  0.00    +0.210 HD
ENDBRANCH  12   2
BRANCH  10  15
ATOM     15  C   UNL     1      12.761   2.552  -2.042  0.00  0.00    +0.090 C 
BRANCH  15  17
ATOM      3  O   UNL     1       9.406   2.390  -3.349  0.00  0.00    -0.357 OA
ATOM      8  N   UNL     1      10.458   1.884  -2.596  0.00  0.00    -0.083 NA
ATOM     17  C   UNL     1      11.443   2.776  -2.734  0.00  0.00    +0.086 A 
ATOM     18  C   UNL     1      11.073   3.854  -3.557  0.00  0.00    +0.073 A 
ATOM     20  C   UNL     1       9.785   3.563  -3.917  0.00  0.00    +0.163 A 
BRANCH  20  21
ATOM     21  C   UNL     1       8.785   4.239  -4.754  0.00  0.00    +0.236 C 
BRANCH  21   5
ATOM      5  O   UNL     1       8.881   5.657  -4.592  0.00  0.00    -0.375 OA
ATOM     27  C   UNL     1       8.192   6.087  -3.430  0.00  0.00    +0.194 C 
ENDBRANCH  21   5
ENDBRANCH  20  21
ENDBRANCH  15  17
ENDBRANCH  10  15
BRANCH  11  16
ATOM     16  C   UNL     1      11.679   4.071   1.904  0.00  0.00    +0.140 C 
BRANCH  16   7
ATOM      4  O   UNL     1      10.603   6.447   3.087  0.00  0.00    -0.253 OA
ATOM      7  N   UNL     1      11.581   4.362   3.302  0.00  0.00    -0.297 N 
ATOM      9  N   UNL     1      11.074   5.559   5.208  0.00  0.00    -0.269 N 
ATOM     19  C   UNL     1      11.038   5.555   3.811  0.00  0.00    +0.304 C 
ATOM     31  H   UNL     1      11.963   3.689   3.960  0.00  0.00    +0.150 HD
ATOM     32  H   UNL     1      11.467   4.735   5.657  0.00  0.00    +0.156 HD
BRANCH   9  22
ATOM     22  C   UNL     1      10.624   6.574   6.086  0.00  0.00    +0.035 A 
ATOM     23  C   UNL     1       9.346   6.503   6.639  0.00  0.00    +0.027 A 
ATOM     24  C   UNL     1      11.461   7.645   6.399  0.00  0.00    +0.027 A 
ATOM     25  C   UNL     1       8.904   7.503   7.505  0.00  0.00    +0.047 A 
ATOM     26  C   UNL     1      11.018   8.646   7.264  0.00  0.00    +0.047 A 
ATOM     28  C   UNL     1       9.740   8.575   7.817  0.00  0.00    +0.120 A 
BRANCH  28   6
ATOM      6  O   UNL     1       9.308   9.551   8.661  0.00  0.00    -0.495 OA
ATOM     29  C   UNL     1      10.123  10.718   8.775  0.00  0.00    +0.277 C 
ENDBRANCH  28   6
ENDBRANCH   9  22
ENDBRANCH  16   7
ENDBRANCH  11  16
TORSDOF 9
ENDMDL
MODEL 10
REMARK VINA RESULT:      -6.2     14.909     16.145
REMARK  Name = 75366958
REMARK  11 active torsions:
REMARK  status: ('A' for Active; 'I' for Inactive)
REMARK    1  A    between atoms: O_2  and  C_12
REMARK    2  A    between atoms: O_5  and  C_21
REMARK    3  A    between atoms: O_5  and  C_27
REMARK    4  A    between atoms: O_6  and  C_28
REMARK    5  A    between atoms: O_6  and  C_29
REMARK    6  A    between atoms: N_7  and  C_16
REMARK    7  A    between atoms: N_9  and  C_22
REMARK    8  A    between atoms: C_10  and  C_15
REMARK    9  A    between atoms: C_11  and  C_16
REMARK   10  A    between atoms: C_15  and  C_17
REMARK   11  A    between atoms: C_20  and  C_21
REMARK                            x       y       z     vdW  Elec       q    Type
REMARK                         _______ _______ _______ _____ _____    ______ ____
ROOT
ATOM      1  O   UNL     1     -10.141  -8.730  17.521  0.00  0.00    -0.369 OA
ATOM     10  C   UNL     1     -11.205  -9.652  17.273  0.00  0.00    +0.125 C 
ATOM     11  C   UNL     1      -9.990  -7.696  16.540  0.00  0.00    +0.164 C 
ATOM     12  C   UNL     1      -9.820  -8.282  15.132  0.00  0.00    +0.145 C 
ATOM     13  C   UNL     1     -11.012 -10.349  15.927  0.00  0.00    +0.034 C 
ATOM     14  C   UNL     1     -10.887  -9.323  14.804  0.00  0.00    +0.036 C 
ENDROOT
BRANCH  12   2
ATOM      2  O   UNL     1      -8.545  -8.924  15.051  0.00  0.00    -0.389 OA
ATOM     30  H   UNL     1      -8.033  -8.661  15.835  0.00  0.00    +0.210 HD
ENDBRANCH  12   2
BRANCH  10  15
ATOM     15  C   UNL     1     -11.209 -10.665  18.411  0.00  0.00    +0.090 C 
BRANCH  15  17
ATOM      3  O   UNL     1      -8.064 -11.241  20.075  0.00  0.00    -0.357 OA
ATOM      8  N   UNL     1      -9.360 -10.743  20.034  0.00  0.00    -0.083 NA
ATOM     17  C   UNL     1      -9.812 -11.055  18.816  0.00  0.00    +0.086 A 
ATOM     18  C   UNL     1      -8.853 -11.743  18.052  0.00  0.00    +0.073 A 
ATOM     20  C   UNL     1      -7.774 -11.834  18.889  0.00  0.00    +0.163 A 
BRANCH  20  21
ATOM     21  C   UNL     1      -6.433 -12.418  18.759  0.00  0.00    +0.236 C 
BRANCH  21   5
ATOM      5  O   UNL     1      -5.433 -11.434  19.039  0.00  0.00    -0.375 OA
ATOM     27  C   UNL     1      -4.141 -12.014  19.087  0.00  0.00    +0.194 C 
ENDBRANCH  21   5
ENDBRANCH  20  21
ENDBRANCH  15  17
ENDBRANCH  10  15
BRANCH  11  16
ATOM     16  C   UNL     1     -11.126  -6.681  16.630  0.00  0.00    +0.140 C 
BRANCH  16   7
ATOM      4  O   UNL     1     -13.283  -6.093  14.839  0.00  0.00    -0.253 OA
ATOM      7  N   UNL     1     -11.096  -5.776  15.521  0.00  0.00    -0.297 N 
ATOM      9  N   UNL     1     -11.873  -4.610  13.689  0.00  0.00    -0.269 N 
ATOM     19  C   UNL     1     -12.199  -5.537  14.682  0.00  0.00    +0.304 C 
ATOM     31  H   UNL     1     -10.217  -5.315  15.303  0.00  0.00    +0.150 HD
ATOM     32  H   UNL     1     -10.925  -4.241  13.701  0.00  0.00    +0.156 HD
BRANCH   9  22
ATOM     22  C   UNL     1     -12.706  -4.111  12.660  0.00  0.00    +0.035 A 
ATOM     23  C   UNL     1     -13.971  -3.611  12.966  0.00  0.00    +0.027 A 
ATOM     24  C   UNL     1     -12.261  -4.120  11.337  0.00  0.00    +0.027 A 
ATOM     25  C   UNL     1     -14.792  -3.119  11.951  0.00  0.00    +0.047 A 
ATOM     26  C   UNL     1     -13.081  -3.629  10.322  0.00  0.00    +0.047 A 
ATOM     28  C   UNL     1     -14.347  -3.128  10.629  0.00  0.00    +0.120 A 
BRANCH  28   6
ATOM      6  O   UNL     1     -15.148  -2.649   9.639  0.00  0.00    -0.495 OA
ATOM     29  C   UNL     1     -16.005  -1.556   9.968  0.00  0.00    +0.277 C 
ENDBRANCH  28   6
ENDBRANCH   9  22
ENDBRANCH  16   7
ENDBRANCH  11  16
TORSDOF 9
ENDMDL
