MODEL 1
REMARK VINA RESULT:      -6.1      0.000      0.000
REMARK  Name = 75537020
REMARK  3 active torsions:
REMARK  status: ('A' for Active; 'I' for Inactive)
REMARK    1  A    between atoms: N_3  and  C_8
REMARK    2  A    between atoms: N_6  and  C_20
REMARK    3  A    between atoms: C_20  and  C_21
REMARK                            x       y       z     vdW  Elec       q    Type
REMARK                         _______ _______ _______ _____ _____    ______ ____
ROOT
ATOM      1  O   UNL     1      16.522   5.782  18.651  0.00  0.00    -0.252 OA
ATOM      2  O   UNL     1      10.809   8.851  21.050  0.00  0.00    -0.253 OA
ATOM      3  N   UNL     1      17.355   7.087  20.430  0.00  0.00    -0.281 N 
ATOM      4  N   UNL     1      15.139   7.063  20.055  0.00  0.00    -0.278 N 
ATOM      5  N   UNL     1      13.108   8.827  20.761  0.00  0.00    -0.282 N 
ATOM      6  N   UNL     1      12.118   9.810  22.669  0.00  0.00    -0.300 N 
ATOM      7  C   UNL     1      15.297   7.846  21.269  0.00  0.00    +0.112 C 
ATOM      9  C   UNL     1      16.807   8.038  21.382  0.00  0.00    +0.133 C 
ATOM     12  C   UNL     1      14.493   9.139  21.168  0.00  0.00    +0.133 C 
ATOM     13  C   UNL     1      16.357   6.544  19.596  0.00  0.00    +0.305 C 
ATOM     14  C   UNL     1      13.811   6.813  19.521  0.00  0.00    +0.128 C 
ATOM     18  C   UNL     1      13.011   8.115  19.476  0.00  0.00    +0.128 C 
ATOM     19  C   UNL     1      11.936   9.144  21.464  0.00  0.00    +0.302 C 
ATOM     22  H   UNL     1      13.039  10.017  23.028  0.00  0.00    +0.150 HD
ENDROOT
BRANCH   3   8
ATOM      8  C   UNL     1      18.775   6.869  20.299  0.00  0.00    +0.078 C 
ATOM     10  C   UNL     1      19.114   5.393  20.526  0.00  0.00    +0.022 C 
ATOM     11  C   UNL     1      19.553   7.774  21.258  0.00  0.00    +0.022 C 
ATOM     15  C   UNL     1      20.618   5.144  20.445  0.00  0.00    +0.002 C 
ATOM     16  C   UNL     1      21.056   7.521  21.174  0.00  0.00    +0.002 C 
ATOM     17  C   UNL     1      21.393   6.050  21.398  0.00  0.00    +0.000 C 
ENDBRANCH   3   8
BRANCH   6  20
ATOM     20  C   UNL     1      11.008  10.201  23.509  0.00  0.00    +0.102 C 
ATOM     21  C   UNL     1      11.001  11.695  23.759  0.00  0.00    +0.024 C 
ENDBRANCH   6  20
TORSDOF 2
ENDMDL
MODEL 2
REMARK VINA RESULT:      -5.9     16.876     18.674
REMARK  Name = 75537020
REMARK  3 active torsions:
REMARK  status: ('A' for Active; 'I' for Inactive)
REMARK    1  A    between atoms: N_3  and  C_8
REMARK    2  A    between atoms: N_6  and  C_20
REMARK    3  A    between atoms: C_20  and  C_21
REMARK                            x       y       z     vdW  Elec       q    Type
REMARK                         _______ _______ _______ _____ _____    ______ ____
ROOT
ATOM      1  O   UNL     1       9.833   7.316   0.971  0.00  0.00    -0.252 OA
ATOM      2  O   UNL     1       8.334   7.675   7.712  0.00  0.00    -0.253 OA
ATOM      3  N   UNL     1      11.014   5.476   1.853  0.00  0.00    -0.281 N 
ATOM      4  N   UNL     1       9.733   6.700   3.237  0.00  0.00    -0.278 N 
ATOM      5  N   UNL     1       9.751   7.021   5.999  0.00  0.00    -0.282 N 
ATOM      6  N   UNL     1       9.563   5.761   7.990  0.00  0.00    -0.300 N 
ATOM      7  C   UNL     1      10.210   5.598   4.056  0.00  0.00    +0.112 C 
ATOM      9  C   UNL     1      11.246   4.910   3.170  0.00  0.00    +0.133 C 
ATOM     12  C   UNL     1      10.751   6.125   5.382  0.00  0.00    +0.133 C 
ATOM     13  C   UNL     1      10.149   6.587   1.903  0.00  0.00    +0.305 C 
ATOM     14  C   UNL     1       8.841   7.694   3.807  0.00  0.00    +0.128 C 
ATOM     18  C   UNL     1       9.381   8.169   5.156  0.00  0.00    +0.128 C 
ATOM     19  C   UNL     1       9.161   6.874   7.264  0.00  0.00    +0.302 C 
ATOM     22  H   UNL     1      10.210   5.084   7.611  0.00  0.00    +0.150 HD
ENDROOT
BRANCH   3   8
ATOM      8  C   UNL     1      11.723   5.011   0.686  0.00  0.00    +0.078 C 
ATOM     10  C   UNL     1      10.762   4.319  -0.285  0.00  0.00    +0.022 C 
ATOM     11  C   UNL     1      12.874   4.084   1.085  0.00  0.00    +0.022 C 
ATOM     15  C   UNL     1      11.496   3.770  -1.506  0.00  0.00    +0.002 C 
ATOM     16  C   UNL     1      13.605   3.536  -0.138  0.00  0.00    +0.002 C 
ATOM     17  C   UNL     1      12.645   2.850  -1.106  0.00  0.00    +0.000 C 
ENDBRANCH   3   8
BRANCH   6  20
ATOM     20  C   UNL     1       9.042   5.471   9.307  0.00  0.00    +0.102 C 
ATOM     21  C   UNL     1       9.375   4.056   9.736  0.00  0.00    +0.024 C 
ENDBRANCH   6  20
TORSDOF 2
ENDMDL
MODEL 3
REMARK VINA RESULT:      -5.9     27.070     29.050
REMARK  Name = 75537020
REMARK  3 active torsions:
REMARK  status: ('A' for Active; 'I' for Inactive)
REMARK    1  A    between atoms: N_3  and  C_8
REMARK    2  A    between atoms: N_6  and  C_20
REMARK    3  A    between atoms: C_20  and  C_21
REMARK                            x       y       z     vdW  Elec       q    Type
REMARK                         _______ _______ _______ _____ _____    ______ ____
ROOT
ATOM      1  O   UNL     1      -5.480 -12.326  18.476  0.00  0.00    -0.252 OA
ATOM      2  O   UNL     1     -11.123  -8.381  17.840  0.00  0.00    -0.253 OA
ATOM      3  N   UNL     1      -4.939 -10.958  16.632  0.00  0.00    -0.281 N 
ATOM      4  N   UNL     1      -6.889 -10.614  17.696  0.00  0.00    -0.278 N 
ATOM      5  N   UNL     1      -9.252  -9.380  16.906  0.00  0.00    -0.282 N 
ATOM      6  N   UNL     1     -10.059  -7.301  16.120  0.00  0.00    -0.300 N 
ATOM      7  C   UNL     1      -6.814  -9.547  16.712  0.00  0.00    +0.112 C 
ATOM      9  C   UNL     1      -5.605  -9.925  15.859  0.00  0.00    +0.133 C 
ATOM     12  C   UNL     1      -8.130  -9.445  15.947  0.00  0.00    +0.133 C 
ATOM     13  C   UNL     1      -5.736 -11.412  17.703  0.00  0.00    +0.305 C 
ATOM     14  C   UNL     1      -8.025 -10.690  18.598  0.00  0.00    +0.128 C 
ATOM     18  C   UNL     1      -9.328 -10.536  17.813  0.00  0.00    +0.128 C 
ATOM     19  C   UNL     1     -10.208  -8.357  17.011  0.00  0.00    +0.302 C 
ATOM     22  H   UNL     1      -9.290  -7.261  15.467  0.00  0.00    +0.150 HD
ENDROOT
BRANCH   3   8
ATOM      8  C   UNL     1      -3.675 -11.522  16.225  0.00  0.00    +0.078 C 
ATOM     10  C   UNL     1      -2.628 -10.419  16.050  0.00  0.00    +0.022 C 
ATOM     11  C   UNL     1      -3.836 -12.345  14.944  0.00  0.00    +0.022 C 
ATOM     15  C   UNL     1      -1.293 -10.982  15.567  0.00  0.00    +0.002 C 
ATOM     16  C   UNL     1      -2.500 -12.906  14.464  0.00  0.00    +0.002 C 
ATOM     17  C   UNL     1      -1.457 -11.806  14.292  0.00  0.00    +0.000 C 
ENDBRANCH   3   8
BRANCH   6  20
ATOM     20  C   UNL     1     -10.961  -6.172  16.108  0.00  0.00    +0.102 C 
ATOM     21  C   UNL     1     -11.842  -6.179  14.875  0.00  0.00    +0.024 C 
ENDBRANCH   6  20
TORSDOF 2
ENDMDL
MODEL 4
REMARK VINA RESULT:      -5.8     31.404     33.646
REMARK  Name = 75537020
REMARK  3 active torsions:
REMARK  status: ('A' for Active; 'I' for Inactive)
REMARK    1  A    between atoms: N_3  and  C_8
REMARK    2  A    between atoms: N_6  and  C_20
REMARK    3  A    between atoms: C_20  and  C_21
REMARK                            x       y       z     vdW  Elec       q    Type
REMARK                         _______ _______ _______ _____ _____    ______ ____
ROOT
ATOM      1  O   UNL     1     -15.797  -0.386  30.163  0.00  0.00    -0.252 OA
ATOM      2  O   UNL     1     -13.945   4.613  34.567  0.00  0.00    -0.253 OA
ATOM      3  N   UNL     1     -16.140   1.567  28.888  0.00  0.00    -0.281 N 
ATOM      4  N   UNL     1     -15.279   1.765  30.955  0.00  0.00    -0.278 N 
ATOM      5  N   UNL     1     -15.170   3.900  32.733  0.00  0.00    -0.282 N 
ATOM      6  N   UNL     1     -14.360   6.116  32.887  0.00  0.00    -0.300 N 
ATOM      7  C   UNL     1     -15.246   3.113  30.412  0.00  0.00    +0.112 C 
ATOM      9  C   UNL     1     -16.032   2.999  29.109  0.00  0.00    +0.133 C 
ATOM     12  C   UNL     1     -15.823   4.100  31.423  0.00  0.00    +0.133 C 
ATOM     13  C   UNL     1     -15.741   0.828  30.020  0.00  0.00    +0.305 C 
ATOM     14  C   UNL     1     -14.766   1.508  32.289  0.00  0.00    +0.128 C 
ATOM     18  C   UNL     1     -15.321   2.539  33.272  0.00  0.00    +0.128 C 
ATOM     19  C   UNL     1     -14.458   4.859  33.471  0.00  0.00    +0.302 C 
ATOM     22  H   UNL     1     -14.745   6.309  31.974  0.00  0.00    +0.150 HD
ENDROOT
BRANCH   3   8
ATOM      8  C   UNL     1     -16.730   1.022  27.690  0.00  0.00    +0.078 C 
ATOM     10  C   UNL     1     -16.531   1.978  26.511  0.00  0.00    +0.022 C 
ATOM     11  C   UNL     1     -18.213   0.710  27.909  0.00  0.00    +0.022 C 
ATOM     15  C   UNL     1     -17.192   1.449  25.240  0.00  0.00    +0.002 C 
ATOM     16  C   UNL     1     -18.871   0.182  26.637  0.00  0.00    +0.002 C 
ATOM     17  C   UNL     1     -18.669   1.135  25.462  0.00  0.00    +0.000 C 
ENDBRANCH   3   8
BRANCH   6  20
ATOM     20  C   UNL     1     -13.655   7.206  33.522  0.00  0.00    +0.102 C 
ATOM     21  C   UNL     1     -12.643   7.833  32.584  0.00  0.00    +0.024 C 
ENDBRANCH   6  20
TORSDOF 2
ENDMDL
MODEL 5
REMARK VINA RESULT:      -5.8      2.391      7.815
REMARK  Name = 75537020
REMARK  3 active torsions:
REMARK  status: ('A' for Active; 'I' for Inactive)
REMARK    1  A    between atoms: N_3  and  C_8
REMARK    2  A    between atoms: N_6  and  C_20
REMARK    3  A    between atoms: C_20  and  C_21
REMARK                            x       y       z     vdW  Elec       q    Type
REMARK                         _______ _______ _______ _____ _____    ______ ____
ROOT
ATOM      1  O   UNL     1      15.238   9.395  21.642  0.00  0.00    -0.252 OA
ATOM      2  O   UNL     1      21.714   6.970  21.567  0.00  0.00    -0.253 OA
ATOM      3  N   UNL     1      14.971   7.262  20.673  0.00  0.00    -0.281 N 
ATOM      4  N   UNL     1      17.017   7.882  21.370  0.00  0.00    -0.278 N 
ATOM      5  N   UNL     1      19.564   6.992  20.701  0.00  0.00    -0.282 N 
ATOM      6  N   UNL     1      20.874   5.024  20.695  0.00  0.00    -0.300 N 
ATOM      7  C   UNL     1      17.175   6.500  20.948  0.00  0.00    +0.112 C 
ATOM      9  C   UNL     1      15.845   6.171  20.276  0.00  0.00    +0.133 C 
ATOM     12  C   UNL     1      18.399   6.364  20.046  0.00  0.00    +0.133 C 
ATOM     13  C   UNL     1      15.686   8.315  21.279  0.00  0.00    +0.305 C 
ATOM     14  C   UNL     1      18.151   8.609  21.914  0.00  0.00    +0.128 C 
ATOM     18  C   UNL     1      19.374   8.417  21.017  0.00  0.00    +0.128 C 
ATOM     19  C   UNL     1      20.781   6.370  21.023  0.00  0.00    +0.302 C 
ATOM     22  H   UNL     1      20.100   4.522  20.285  0.00  0.00    +0.150 HD
ENDROOT
BRANCH   3   8
ATOM      8  C   UNL     1      13.570   7.281  20.332  0.00  0.00    +0.078 C 
ATOM     10  C   UNL     1      13.268   8.434  19.370  0.00  0.00    +0.022 C 
ATOM     11  C   UNL     1      12.706   7.367  21.593  0.00  0.00    +0.022 C 
ATOM     15  C   UNL     1      11.780   8.510  19.034  0.00  0.00    +0.002 C 
ATOM     16  C   UNL     1      11.220   7.443  21.252  0.00  0.00    +0.002 C 
ATOM     17  C   UNL     1      10.921   8.591  20.292  0.00  0.00    +0.000 C 
ENDBRANCH   3   8
BRANCH   6  20
ATOM     20  C   UNL     1      22.061   4.246  20.967  0.00  0.00    +0.102 C 
ATOM     21  C   UNL     1      21.983   3.572  22.323  0.00  0.00    +0.024 C 
ENDBRANCH   6  20
TORSDOF 2
ENDMDL
MODEL 6
REMARK VINA RESULT:      -5.8     28.281     30.376
REMARK  Name = 75537020
REMARK  3 active torsions:
REMARK  status: ('A' for Active; 'I' for Inactive)
REMARK    1  A    between atoms: N_3  and  C_8
REMARK    2  A    between atoms: N_6  and  C_20
REMARK    3  A    between atoms: C_20  and  C_21
REMARK                            x       y       z     vdW  Elec       q    Type
REMARK                         _______ _______ _______ _____ _____    ______ ____
ROOT
ATOM      1  O   UNL     1      -5.463 -10.779   6.941  0.00  0.00    -0.252 OA
ATOM      2  O   UNL     1     -10.797  -6.406   6.458  0.00  0.00    -0.253 OA
ATOM      3  N   UNL     1      -5.327  -9.587   8.971  0.00  0.00    -0.281 N 
ATOM      4  N   UNL     1      -7.033  -9.149   7.574  0.00  0.00    -0.278 N 
ATOM      5  N   UNL     1      -8.711  -6.947   7.311  0.00  0.00    -0.282 N 
ATOM      6  N   UNL     1     -10.255  -5.663   8.558  0.00  0.00    -0.300 N 
ATOM      7  C   UNL     1      -7.312  -8.350   8.755  0.00  0.00    +0.112 C 
ATOM      9  C   UNL     1      -6.042  -8.486   9.592  0.00  0.00    +0.133 C 
ATOM     12  C   UNL     1      -7.663  -6.921   8.352  0.00  0.00    +0.133 C 
ATOM     13  C   UNL     1      -5.891  -9.947   7.730  0.00  0.00    +0.305 C 
ATOM     14  C   UNL     1      -7.958  -9.134   6.453  0.00  0.00    +0.128 C 
ATOM     18  C   UNL     1      -8.330  -7.694   6.102  0.00  0.00    +0.128 C 
ATOM     19  C   UNL     1      -9.976  -6.342   7.379  0.00  0.00    +0.302 C 
ATOM     22  H   UNL     1      -9.601  -5.641   9.327  0.00  0.00    +0.150 HD
ENDROOT
BRANCH   3   8
ATOM      8  C   UNL     1      -4.106 -10.116   9.527  0.00  0.00    +0.078 C 
ATOM     10  C   UNL     1      -4.403 -11.324  10.420  0.00  0.00    +0.022 C 
ATOM     11  C   UNL     1      -3.345  -9.031  10.294  0.00  0.00    +0.022 C 
ATOM     15  C   UNL     1      -3.132 -11.872  11.065  0.00  0.00    +0.002 C 
ATOM     16  C   UNL     1      -2.076  -9.583  10.938  0.00  0.00    +0.002 C 
ATOM     17  C   UNL     1      -2.373 -10.788  11.825  0.00  0.00    +0.000 C 
ENDBRANCH   3   8
BRANCH   6  20
ATOM     20  C   UNL     1     -11.516  -4.992   8.780  0.00  0.00    +0.102 C 
ATOM     21  C   UNL     1     -11.316  -3.521   9.083  0.00  0.00    +0.024 C 
ENDBRANCH   6  20
TORSDOF 2
ENDMDL
MODEL 7
REMARK VINA RESULT:      -5.6     27.546     29.040
REMARK  Name = 75537020
REMARK  3 active torsions:
REMARK  status: ('A' for Active; 'I' for Inactive)
REMARK    1  A    between atoms: N_3  and  C_8
REMARK    2  A    between atoms: N_6  and  C_20
REMARK    3  A    between atoms: C_20  and  C_21
REMARK                            x       y       z     vdW  Elec       q    Type
REMARK                         _______ _______ _______ _____ _____    ______ ____
ROOT
ATOM      1  O   UNL     1      -2.150 -10.885  15.275  0.00  0.00    -0.252 OA
ATOM      2  O   UNL     1      -4.259 -10.370   8.710  0.00  0.00    -0.253 OA
ATOM      3  N   UNL     1      -4.483 -10.633  15.509  0.00  0.00    -0.281 N 
ATOM      4  N   UNL     1      -3.612 -10.751  13.440  0.00  0.00    -0.278 N 
ATOM      5  N   UNL     1      -4.571  -9.927  10.963  0.00  0.00    -0.282 N 
ATOM      6  N   UNL     1      -6.405 -10.256   9.508  0.00  0.00    -0.300 N 
ATOM      7  C   UNL     1      -5.050 -10.722  13.232  0.00  0.00    +0.112 C 
ATOM      9  C   UNL     1      -5.611 -10.419  14.619  0.00  0.00    +0.133 C 
ATOM     12  C   UNL     1      -5.406  -9.697  12.160  0.00  0.00    +0.133 C 
ATOM     13  C   UNL     1      -3.273 -10.775  14.800  0.00  0.00    +0.305 C 
ATOM     14  C   UNL     1      -2.717 -10.853  12.300  0.00  0.00    +0.128 C 
ATOM     18  C   UNL     1      -3.125  -9.849  11.222  0.00  0.00    +0.128 C 
ATOM     19  C   UNL     1      -5.026 -10.195   9.662  0.00  0.00    +0.302 C 
ATOM     22  H   UNL     1      -7.033 -10.151  10.292  0.00  0.00    +0.150 HD
ENDROOT
BRANCH   3   8
ATOM      8  C   UNL     1      -4.615 -10.553  16.943  0.00  0.00    +0.078 C 
ATOM     10  C   UNL     1      -4.082 -11.829  17.602  0.00  0.00    +0.022 C 
ATOM     11  C   UNL     1      -6.069 -10.288  17.340  0.00  0.00    +0.022 C 
ATOM     15  C   UNL     1      -4.258 -11.794  19.118  0.00  0.00    +0.002 C 
ATOM     16  C   UNL     1      -6.242 -10.254  18.856  0.00  0.00    +0.002 C 
ATOM     17  C   UNL     1      -5.708 -11.525  19.511  0.00  0.00    +0.000 C 
ENDBRANCH   3   8
BRANCH   6  20
ATOM     20  C   UNL     1      -7.025 -10.528   8.230  0.00  0.00    +0.102 C 
ATOM     21  C   UNL     1      -8.031  -9.455   7.864  0.00  0.00    +0.024 C 
ENDBRANCH   6  20
TORSDOF 2
ENDMDL
MODEL 8
REMARK VINA RESULT:      -5.6     27.972     30.797
REMARK  Name = 75537020
REMARK  3 active torsions:
REMARK  status: ('A' for Active; 'I' for Inactive)
REMARK    1  A    between atoms: N_3  and  C_8
REMARK    2  A    between atoms: N_6  and  C_20
REMARK    3  A    between atoms: C_20  and  C_21
REMARK                            x       y       z     vdW  Elec       q    Type
REMARK                         _______ _______ _______ _____ _____    ______ ____
ROOT
ATOM      1  O   UNL     1     -10.578 -10.155  19.274  0.00  0.00    -0.252 OA
ATOM      2  O   UNL     1      -4.011 -11.970  18.097  0.00  0.00    -0.253 OA
ATOM      3  N   UNL     1     -10.077  -8.991  17.286  0.00  0.00    -0.281 N 
ATOM      4  N   UNL     1      -8.517 -10.351  18.161  0.00  0.00    -0.278 N 
ATOM      5  N   UNL     1      -5.756 -10.466  17.851  0.00  0.00    -0.282 N 
ATOM      6  N   UNL     1      -4.112 -10.728  16.173  0.00  0.00    -0.300 N 
ATOM      7  C   UNL     1      -7.945  -9.898  16.905  0.00  0.00    +0.112 C 
ATOM      9  C   UNL     1      -8.912  -8.812  16.438  0.00  0.00    +0.133 C 
ATOM     12  C   UNL     1      -6.510  -9.427  17.120  0.00  0.00    +0.133 C 
ATOM     13  C   UNL     1      -9.820  -9.873  18.355  0.00  0.00    +0.305 C 
ATOM     14  C   UNL     1      -7.781 -11.283  18.999  0.00  0.00    +0.128 C 
ATOM     18  C   UNL     1      -6.335 -10.813  19.158  0.00  0.00    +0.128 C 
ATOM     19  C   UNL     1      -4.586 -11.112  17.421  0.00  0.00    +0.302 C 
ATOM     22  H   UNL     1      -4.601 -10.055  15.602  0.00  0.00    +0.150 HD
ENDROOT
BRANCH   3   8
ATOM      8  C   UNL     1     -11.283  -8.222  17.099  0.00  0.00    +0.078 C 
ATOM     10  C   UNL     1     -12.385  -9.092  16.487  0.00  0.00    +0.022 C 
ATOM     11  C   UNL     1     -11.010  -6.985  16.240  0.00  0.00    +0.022 C 
ATOM     15  C   UNL     1     -13.657  -8.289  16.228  0.00  0.00    +0.002 C 
ATOM     16  C   UNL     1     -12.284  -6.185  15.983  0.00  0.00    +0.002 C 
ATOM     17  C   UNL     1     -13.381  -7.054  15.376  0.00  0.00    +0.000 C 
ENDBRANCH   3   8
BRANCH   6  20
ATOM     20  C   UNL     1      -2.921 -11.306  15.592  0.00  0.00    +0.102 C 
ATOM     21  C   UNL     1      -1.689 -10.489  15.926  0.00  0.00    +0.024 C 
ENDBRANCH   6  20
TORSDOF 2
ENDMDL
MODEL 9
REMARK VINA RESULT:      -5.6     27.156     28.977
REMARK  Name = 75537020
REMARK  3 active torsions:
REMARK  status: ('A' for Active; 'I' for Inactive)
REMARK    1  A    between atoms: N_3  and  C_8
REMARK    2  A    between atoms: N_6  and  C_20
REMARK    3  A    between atoms: C_20  and  C_21
REMARK                            x       y       z     vdW  Elec       q    Type
REMARK                         _______ _______ _______ _____ _____    ______ ____
ROOT
ATOM      1  O   UNL     1      -1.854 -10.510  14.019  0.00  0.00    -0.252 OA
ATOM      2  O   UNL     1      -5.896 -11.170  19.590  0.00  0.00    -0.253 OA
ATOM      3  N   UNL     1      -4.005 -10.687  13.068  0.00  0.00    -0.281 N 
ATOM      4  N   UNL     1      -3.814 -10.660  15.308  0.00  0.00    -0.278 N 
ATOM      5  N   UNL     1      -5.505 -11.533  17.334  0.00  0.00    -0.282 N 
ATOM      6  N   UNL     1      -7.693 -11.197  18.166  0.00  0.00    -0.300 N 
ATOM      7  C   UNL     1      -5.247 -10.653  15.061  0.00  0.00    +0.112 C 
ATOM      9  C   UNL     1      -5.357 -10.896  13.558  0.00  0.00    +0.133 C 
ATOM     12  C   UNL     1      -5.934 -11.701  15.931  0.00  0.00    +0.133 C 
ATOM     13  C   UNL     1      -3.071 -10.603  14.120  0.00  0.00    +0.305 C 
ATOM     14  C   UNL     1      -3.313 -10.619  16.671  0.00  0.00    +0.128 C 
ATOM     18  C   UNL     1      -4.052 -11.645  17.531  0.00  0.00    +0.128 C 
ATOM     19  C   UNL     1      -6.335 -11.294  18.442  0.00  0.00    +0.302 C 
ATOM     22  H   UNL     1      -8.050 -11.259  17.224  0.00  0.00    +0.150 HD
ENDROOT
BRANCH   3   8
ATOM      8  C   UNL     1      -3.690 -10.718  11.661  0.00  0.00    +0.078 C 
ATOM     10  C   UNL     1      -4.049  -9.383  11.002  0.00  0.00    +0.022 C 
ATOM     11  C   UNL     1      -4.397 -11.887  10.972  0.00  0.00    +0.022 C 
ATOM     15  C   UNL     1      -3.774  -9.406   9.500  0.00  0.00    +0.002 C 
ATOM     16  C   UNL     1      -4.121 -11.906   9.471  0.00  0.00    +0.002 C 
ATOM     17  C   UNL     1      -4.477 -10.575   8.816  0.00  0.00    +0.000 C 
ENDBRANCH   3   8
BRANCH   6  20
ATOM     20  C   UNL     1      -8.672 -10.948  19.200  0.00  0.00    +0.102 C 
ATOM     21  C   UNL     1      -9.265 -12.241  19.724  0.00  0.00    +0.024 C 
ENDBRANCH   6  20
TORSDOF 2
ENDMDL
MODEL 10
REMARK VINA RESULT:      -5.6     28.306     31.677
REMARK  Name = 75537020
REMARK  3 active torsions:
REMARK  status: ('A' for Active; 'I' for Inactive)
REMARK    1  A    between atoms: N_3  and  C_8
REMARK    2  A    between atoms: N_6  and  C_20
REMARK    3  A    between atoms: C_20  and  C_21
REMARK                            x       y       z     vdW  Elec       q    Type
REMARK                         _______ _______ _______ _____ _____    ______ ____
ROOT
ATOM      1  O   UNL     1     -15.645   8.272  23.145  0.00  0.00    -0.252 OA
ATOM      2  O   UNL     1     -18.408   2.578  25.930  0.00  0.00    -0.253 OA
ATOM      3  N   UNL     1     -14.565   6.548  21.953  0.00  0.00    -0.281 N 
ATOM      4  N   UNL     1     -16.142   5.996  23.457  0.00  0.00    -0.278 N 
ATOM      5  N   UNL     1     -16.662   3.637  24.834  0.00  0.00    -0.282 N 
ATOM      6  N   UNL     1     -17.163   1.360  24.441  0.00  0.00    -0.300 N 
ATOM      7  C   UNL     1     -15.776   4.737  22.830  0.00  0.00    +0.112 C 
ATOM      9  C   UNL     1     -14.560   5.096  21.981  0.00  0.00    +0.133 C 
ATOM     12  C   UNL     1     -15.522   3.674  23.895  0.00  0.00    +0.133 C 
ATOM     13  C   UNL     1     -15.477   7.088  22.883  0.00  0.00    +0.305 C 
ATOM     14  C   UNL     1     -17.173   6.024  24.480  0.00  0.00    +0.128 C 
ATOM     18  C   UNL     1     -16.922   4.919  25.507  0.00  0.00    +0.128 C 
ATOM     19  C   UNL     1     -17.473   2.528  25.124  0.00  0.00    +0.302 C 
ATOM     22  H   UNL     1     -16.424   1.327  23.754  0.00  0.00    +0.150 HD
ENDROOT
BRANCH   3   8
ATOM      8  C   UNL     1     -13.626   7.301  21.158  0.00  0.00    +0.078 C 
ATOM     10  C   UNL     1     -14.180   7.528  19.748  0.00  0.00    +0.022 C 
ATOM     11  C   UNL     1     -12.266   6.599  21.116  0.00  0.00    +0.022 C 
ATOM     15  C   UNL     1     -13.183   8.277  18.867  0.00  0.00    +0.002 C 
ATOM     16  C   UNL     1     -11.273   7.351  20.234  0.00  0.00    +0.002 C 
ATOM     17  C   UNL     1     -11.826   7.579  18.830  0.00  0.00    +0.000 C 
ENDBRANCH   3   8
BRANCH   6  20
ATOM     20  C   UNL     1     -17.909   0.136  24.629  0.00  0.00    +0.102 C 
ATOM     21  C   UNL     1     -18.278  -0.497  23.303  0.00  0.00    +0.024 C 
ENDBRANCH   6  20
TORSDOF 2
ENDMDL
