MODEL 1
REMARK VINA RESULT:      -7.6      0.000      0.000
REMARK  Name = 7155478
REMARK  4 active torsions:
REMARK  status: ('A' for Active; 'I' for Inactive)
REMARK    1  A    between atoms: N_6  and  C_18
REMARK    2  A    between atoms: C_17  and  C_20
REMARK    3  A    between atoms: C_24  and  C_28
REMARK    4  A    between atoms: C_36  and  C_37
REMARK                            x       y       z     vdW  Elec       q    Type
REMARK                         _______ _______ _______ _____ _____    ______ ____
ROOT
ATOM      1  O   UNL     1     -12.410  -7.386   9.358  0.00  0.00    -0.266 OA
ATOM      2  O   UNL     1     -16.868  -4.918  10.257  0.00  0.00    -0.270 OA
ATOM      4  N   UNL     1     -15.326  -4.208  11.867  0.00  0.00    -0.297 N 
ATOM      5  N   UNL     1     -12.686  -5.722  10.974  0.00  0.00    -0.310 N 
ATOM      8  C   UNL     1     -14.140  -6.043  13.059  0.00  0.00    +0.027 C 
ATOM      9  C   UNL     1     -13.001  -3.894  12.679  0.00  0.00    +0.054 C 
ATOM     10  C   UNL     1     -13.207  -5.017  13.694  0.00  0.00    +0.018 C 
ATOM     11  C   UNL     1     -15.492  -5.395  12.706  0.00  0.00    +0.113 C 
ATOM     12  C   UNL     1     -13.449  -6.643  11.827  0.00  0.00    +0.130 C 
ATOM     13  C   UNL     1     -14.354  -3.223  12.368  0.00  0.00    +0.117 C 
ATOM     14  C   UNL     1     -12.386  -4.423  11.397  0.00  0.00    +0.027 A 
ATOM     15  C   UNL     1     -11.590  -3.637  10.654  0.00  0.00    +0.024 A 
ATOM     16  C   UNL     1     -12.188  -6.245   9.763  0.00  0.00    +0.273 A 
ATOM     17  C   UNL     1     -16.055  -4.099  10.680  0.00  0.00    +0.247 C 
ATOM     18  C   UNL     1     -11.328  -5.328   8.951  0.00  0.00    +0.099 A 
ATOM     19  C   UNL     1     -11.052  -4.101   9.406  0.00  0.00    +0.030 A 
ENDROOT
BRANCH  17  20
ATOM     20  C   UNL     1     -15.830  -2.917   9.842  0.00  0.00    +0.037 A 
ATOM     21  C   UNL     1     -14.721  -2.865   9.001  0.00  0.00    +0.021 A 
ATOM     22  C   UNL     1     -16.725  -1.855   9.890  0.00  0.00    +0.013 A 
ATOM     23  C   UNL     1     -14.490  -1.740   8.192  0.00  0.00    -0.017 A 
ATOM     25  C   UNL     1     -16.512  -0.730   9.094  0.00  0.00    +0.009 A 
ATOM     26  C   UNL     1     -15.400  -0.656   8.239  0.00  0.00    -0.018 A 
ATOM     27  C   UNL     1     -13.379  -1.667   7.338  0.00  0.00    +0.008 A 
ATOM     29  C   UNL     1     -15.171   0.468   7.430  0.00  0.00    +0.008 A 
ATOM     30  C   UNL     1     -13.166  -0.542   6.541  0.00  0.00    +0.001 A 
ATOM     31  C   UNL     1     -14.060   0.524   6.587  0.00  0.00    +0.001 A 
ENDBRANCH  17  20
BRANCH  18   6
ATOM      3  O   UNL     1      -8.995  -6.933   8.595  0.00  0.00    -0.270 OA
ATOM      6  N   UNL     1     -10.843  -5.789   7.764  0.00  0.00    -0.277 N 
ATOM     24  C   UNL     1      -9.699  -6.569   7.655  0.00  0.00    +0.248 C 
ATOM     38  H   UNL     1     -11.287  -5.404   6.937  0.00  0.00    +0.155 HD
BRANCH  24  28
ATOM     28  C   UNL     1      -9.338  -6.996   6.279  0.00  0.00    +0.037 A 
ATOM     32  C   UNL     1      -8.088  -7.536   6.056  0.00  0.00    +0.014 A 
ATOM     33  C   UNL     1     -10.263  -6.840   5.269  0.00  0.00    +0.014 A 
ATOM     34  C   UNL     1      -7.749  -7.936   4.763  0.00  0.00    +0.019 A 
ATOM     35  C   UNL     1      -9.924  -7.240   3.977  0.00  0.00    +0.019 A 
ATOM     36  C   UNL     1      -8.668  -7.788   3.724  0.00  0.00    +0.052 A 
BRANCH  36  37
ATOM      7  N   UNL     1      -8.038  -8.530   1.323  0.00  0.00    -0.191 NA
ATOM     37  C   UNL     1      -8.320  -8.197   2.399  0.00  0.00    +0.099 C 
ENDBRANCH  36  37
ENDBRANCH  24  28
ENDBRANCH  18   6
TORSDOF 4
ENDMDL
MODEL 2
REMARK VINA RESULT:      -7.6     26.861     29.020
REMARK  Name = 7155478
REMARK  4 active torsions:
REMARK  status: ('A' for Active; 'I' for Inactive)
REMARK    1  A    between atoms: N_6  and  C_18
REMARK    2  A    between atoms: C_17  and  C_20
REMARK    3  A    between atoms: C_24  and  C_28
REMARK    4  A    between atoms: C_36  and  C_37
REMARK                            x       y       z     vdW  Elec       q    Type
REMARK                         _______ _______ _______ _____ _____    ______ ____
ROOT
ATOM      1  O   UNL     1      12.743   7.394   3.595  0.00  0.00    -0.266 OA
ATOM      2  O   UNL     1       9.294  10.940   5.112  0.00  0.00    -0.270 OA
ATOM      4  N   UNL     1       8.666   8.892   6.052  0.00  0.00    -0.297 N 
ATOM      5  N   UNL     1      11.018   6.980   5.115  0.00  0.00    -0.310 N 
ATOM      8  C   UNL     1       8.545   6.997   4.443  0.00  0.00    +0.027 C 
ATOM      9  C   UNL     1       9.175   6.575   6.785  0.00  0.00    +0.054 C 
ATOM     10  C   UNL     1       8.368   6.029   5.609  0.00  0.00    +0.018 C 
ATOM     11  C   UNL     1       8.037   8.399   4.827  0.00  0.00    +0.113 C 
ATOM     12  C   UNL     1      10.024   7.011   4.033  0.00  0.00    +0.130 C 
ATOM     13  C   UNL     1       8.627   7.958   7.190  0.00  0.00    +0.117 C 
ATOM     14  C   UNL     1      10.646   6.690   6.432  0.00  0.00    +0.027 A 
ATOM     15  C   UNL     1      11.583   6.552   7.385  0.00  0.00    +0.024 A 
ATOM     16  C   UNL     1      12.366   7.155   4.743  0.00  0.00    +0.273 A 
ATOM     17  C   UNL     1       9.259  10.156   6.058  0.00  0.00    +0.247 C 
ATOM     18  C   UNL     1      13.377   7.020   5.839  0.00  0.00    +0.099 A 
ATOM     19  C   UNL     1      12.976   6.722   7.079  0.00  0.00    +0.030 A 
ENDROOT
BRANCH  17  20
ATOM     20  C   UNL     1       9.920  10.599   7.291  0.00  0.00    +0.037 A 
ATOM     21  C   UNL     1       9.155  10.935   8.405  0.00  0.00    +0.021 A 
ATOM     22  C   UNL     1      11.306  10.682   7.339  0.00  0.00    +0.013 A 
ATOM     23  C   UNL     1       9.773  11.362   9.592  0.00  0.00    -0.017 A 
ATOM     25  C   UNL     1      11.936  11.103   8.510  0.00  0.00    +0.009 A 
ATOM     26  C   UNL     1      11.185  11.447   9.646  0.00  0.00    -0.018 A 
ATOM     27  C   UNL     1       9.020  11.704  10.727  0.00  0.00    +0.008 A 
ATOM     29  C   UNL     1      11.802  11.873  10.832  0.00  0.00    +0.008 A 
ATOM     30  C   UNL     1       9.651  12.126  11.898  0.00  0.00    +0.001 A 
ATOM     31  C   UNL     1      11.039  12.210  11.951  0.00  0.00    +0.001 A 
ENDBRANCH  17  20
BRANCH  18   6
ATOM      3  O   UNL     1      14.941   9.342   6.398  0.00  0.00    -0.270 OA
ATOM      6  N   UNL     1      14.691   7.201   5.523  0.00  0.00    -0.277 N 
ATOM     24  C   UNL     1      15.399   8.357   5.823  0.00  0.00    +0.248 C 
ATOM     38  H   UNL     1      15.090   6.492   4.917  0.00  0.00    +0.155 HD
BRANCH  24  28
ATOM     28  C   UNL     1      16.828   8.361   5.419  0.00  0.00    +0.037 A 
ATOM     32  C   UNL     1      17.789   8.640   6.369  0.00  0.00    +0.014 A 
ATOM     33  C   UNL     1      17.150   8.085   4.106  0.00  0.00    +0.014 A 
ATOM     34  C   UNL     1      19.130   8.644   5.990  0.00  0.00    +0.019 A 
ATOM     35  C   UNL     1      18.492   8.089   3.727  0.00  0.00    +0.019 A 
ATOM     36  C   UNL     1      19.482   8.368   4.668  0.00  0.00    +0.052 A 
BRANCH  36  37
ATOM      7  N   UNL     1      21.975   8.377   3.961  0.00  0.00    -0.191 NA
ATOM     37  C   UNL     1      20.857   8.373   4.278  0.00  0.00    +0.099 C 
ENDBRANCH  36  37
ENDBRANCH  24  28
ENDBRANCH  18   6
TORSDOF 4
ENDMDL
MODEL 3
REMARK VINA RESULT:      -7.5     29.406     32.385
REMARK  Name = 7155478
REMARK  4 active torsions:
REMARK  status: ('A' for Active; 'I' for Inactive)
REMARK    1  A    between atoms: N_6  and  C_18
REMARK    2  A    between atoms: C_17  and  C_20
REMARK    3  A    between atoms: C_24  and  C_28
REMARK    4  A    between atoms: C_36  and  C_37
REMARK                            x       y       z     vdW  Elec       q    Type
REMARK                         _______ _______ _______ _____ _____    ______ ____
ROOT
ATOM      1  O   UNL     1       9.432  -9.413  32.120  0.00  0.00    -0.266 OA
ATOM      2  O   UNL     1       9.146  -8.725  37.240  0.00  0.00    -0.270 OA
ATOM      4  N   UNL     1       8.678  -6.672  36.220  0.00  0.00    -0.297 N 
ATOM      5  N   UNL     1       8.748  -7.426  33.140  0.00  0.00    -0.310 N 
ATOM      8  C   UNL     1      10.336  -5.953  34.509  0.00  0.00    +0.027 C 
ATOM      9  C   UNL     1       7.971  -5.310  34.267  0.00  0.00    +0.054 C 
ATOM     10  C   UNL     1       9.407  -4.815  34.098  0.00  0.00    +0.018 C 
ATOM     11  C   UNL     1      10.084  -6.350  35.975  0.00  0.00    +0.113 C 
ATOM     12  C   UNL     1      10.128  -7.131  33.548  0.00  0.00    +0.130 C 
ATOM     13  C   UNL     1       7.718  -5.661  35.747  0.00  0.00    +0.117 C 
ATOM     14  C   UNL     1       7.708  -6.527  33.401  0.00  0.00    +0.027 A 
ATOM     15  C   UNL     1       6.476  -6.760  32.919  0.00  0.00    +0.024 A 
ATOM     16  C   UNL     1       8.546  -8.601  32.390  0.00  0.00    +0.273 A 
ATOM     17  C   UNL     1       8.348  -7.877  36.843  0.00  0.00    +0.247 C 
ATOM     18  C   UNL     1       7.153  -8.838  31.894  0.00  0.00    +0.099 A 
ATOM     19  C   UNL     1       6.196  -7.941  32.151  0.00  0.00    +0.030 A 
ENDROOT
BRANCH  17  20
ATOM     20  C   UNL     1       6.927  -8.187  37.031  0.00  0.00    +0.037 A 
ATOM     21  C   UNL     1       6.219  -8.834  36.022  0.00  0.00    +0.021 A 
ATOM     22  C   UNL     1       6.295  -7.835  38.218  0.00  0.00    +0.013 A 
ATOM     23  C   UNL     1       4.857  -9.137  36.187  0.00  0.00    -0.017 A 
ATOM     25  C   UNL     1       4.944  -8.128  38.399  0.00  0.00    +0.009 A 
ATOM     26  C   UNL     1       4.210  -8.779  37.394  0.00  0.00    -0.018 A 
ATOM     27  C   UNL     1       4.125  -9.788  35.181  0.00  0.00    +0.008 A 
ATOM     29  C   UNL     1       2.849  -9.083  37.559  0.00  0.00    +0.008 A 
ATOM     30  C   UNL     1       2.773 -10.082  35.363  0.00  0.00    +0.001 A 
ATOM     31  C   UNL     1       2.136  -9.730  36.549  0.00  0.00    +0.001 A 
ENDBRANCH  17  20
BRANCH  18   6
ATOM      3  O   UNL     1       6.491 -11.398  32.971  0.00  0.00    -0.270 OA
ATOM      6  N   UNL     1       6.913  -9.974  31.180  0.00  0.00    -0.277 N 
ATOM     24  C   UNL     1       6.594 -11.193  31.764  0.00  0.00    +0.248 C 
ATOM     38  H   UNL     1       7.126  -9.915  30.190  0.00  0.00    +0.155 HD
BRANCH  24  28
ATOM     28  C   UNL     1       6.345 -12.314  30.821  0.00  0.00    +0.037 A 
ATOM     32  C   UNL     1       7.176 -12.465  29.731  0.00  0.00    +0.014 A 
ATOM     33  C   UNL     1       5.289 -13.168  31.066  0.00  0.00    +0.014 A 
ATOM     34  C   UNL     1       6.941 -13.517  28.846  0.00  0.00    +0.019 A 
ATOM     35  C   UNL     1       5.056 -14.220  30.181  0.00  0.00    +0.019 A 
ATOM     36  C   UNL     1       5.881 -14.395  29.071  0.00  0.00    +0.052 A 
BRANCH  36  37
ATOM      7  N   UNL     1       5.443 -16.348  27.426  0.00  0.00    -0.191 NA
ATOM     37  C   UNL     1       5.639 -15.472  28.164  0.00  0.00    +0.099 C 
ENDBRANCH  36  37
ENDBRANCH  24  28
ENDBRANCH  18   6
TORSDOF 4
ENDMDL
MODEL 4
REMARK VINA RESULT:      -7.5      7.918     12.127
REMARK  Name = 7155478
REMARK  4 active torsions:
REMARK  status: ('A' for Active; 'I' for Inactive)
REMARK    1  A    between atoms: N_6  and  C_18
REMARK    2  A    between atoms: C_17  and  C_20
REMARK    3  A    between atoms: C_24  and  C_28
REMARK    4  A    between atoms: C_36  and  C_37
REMARK                            x       y       z     vdW  Elec       q    Type
REMARK                         _______ _______ _______ _____ _____    ______ ____
ROOT
ATOM      1  O   UNL     1      -8.785  -9.844  16.747  0.00  0.00    -0.266 OA
ATOM      2  O   UNL     1      -3.631 -10.297  16.700  0.00  0.00    -0.270 OA
ATOM      4  N   UNL     1      -4.532 -12.381  16.135  0.00  0.00    -0.297 N 
ATOM      5  N   UNL     1      -7.643 -11.766  16.069  0.00  0.00    -0.310 N 
ATOM      8  C   UNL     1      -6.287 -13.217  17.688  0.00  0.00    +0.027 C 
ATOM      9  C   UNL     1      -6.384 -13.809  15.300  0.00  0.00    +0.054 C 
ATOM     10  C   UNL     1      -6.600 -14.348  16.714  0.00  0.00    +0.018 C 
ATOM     11  C   UNL     1      -4.830 -12.749  17.518  0.00  0.00    +0.113 C 
ATOM     12  C   UNL     1      -7.290 -12.077  17.461  0.00  0.00    +0.130 C 
ATOM     13  C   UNL     1      -4.911 -13.386  15.129  0.00  0.00    +0.117 C 
ATOM     14  C   UNL     1      -7.291 -12.625  15.022  0.00  0.00    +0.027 A 
ATOM     15  C   UNL     1      -7.723 -12.383  13.774  0.00  0.00    +0.024 A 
ATOM     16  C   UNL     1      -8.436 -10.620  15.857  0.00  0.00    +0.273 A 
ATOM     17  C   UNL     1      -3.950 -11.140  15.864  0.00  0.00    +0.247 C 
ATOM     18  C   UNL     1      -8.873 -10.370  14.447  0.00  0.00    +0.099 A 
ATOM     19  C   UNL     1      -8.530 -11.230  13.483  0.00  0.00    +0.030 A 
ENDROOT
BRANCH  17  20
ATOM     20  C   UNL     1      -3.707 -10.786  14.462  0.00  0.00    +0.037 A 
ATOM     21  C   UNL     1      -4.745 -10.279  13.685  0.00  0.00    +0.021 A 
ATOM     22  C   UNL     1      -2.440 -10.958  13.916  0.00  0.00    +0.013 A 
ATOM     23  C   UNL     1      -4.529  -9.937  12.340  0.00  0.00    -0.017 A 
ATOM     25  C   UNL     1      -2.207 -10.622  12.582  0.00  0.00    +0.009 A 
ATOM     26  C   UNL     1      -3.240 -10.110  11.781  0.00  0.00    -0.018 A 
ATOM     27  C   UNL     1      -5.562  -9.424  11.540  0.00  0.00    +0.008 A 
ATOM     29  C   UNL     1      -3.023  -9.766  10.437  0.00  0.00    +0.008 A 
ATOM     30  C   UNL     1      -5.329  -9.088  10.206  0.00  0.00    +0.001 A 
ATOM     31  C   UNL     1      -4.062  -9.258   9.655  0.00  0.00    +0.001 A 
ENDBRANCH  17  20
BRANCH  18   6
ATOM      3  O   UNL     1     -11.720 -10.202  14.580  0.00  0.00    -0.270 OA
ATOM      6  N   UNL     1      -9.626  -9.261  14.198  0.00  0.00    -0.277 N 
ATOM     24  C   UNL     1     -11.012  -9.242  14.280  0.00  0.00    +0.248 C 
ATOM     38  H   UNL     1      -9.120  -8.477  13.800  0.00  0.00    +0.155 HD
BRANCH  24  28
ATOM     28  C   UNL     1     -11.658  -7.935  13.994  0.00  0.00    +0.037 A 
ATOM     32  C   UNL     1     -12.312  -7.765  12.791  0.00  0.00    +0.014 A 
ATOM     33  C   UNL     1     -11.581  -6.934  14.939  0.00  0.00    +0.014 A 
ATOM     34  C   UNL     1     -12.917  -6.537  12.522  0.00  0.00    +0.019 A 
ATOM     35  C   UNL     1     -12.187  -5.707  14.670  0.00  0.00    +0.019 A 
ATOM     36  C   UNL     1     -12.855  -5.508  13.463  0.00  0.00    +0.052 A 
BRANCH  36  37
ATOM      7  N   UNL     1     -13.977  -3.227  12.964  0.00  0.00    -0.191 NA
ATOM     37  C   UNL     1     -13.474  -4.250  13.187  0.00  0.00    +0.099 C 
ENDBRANCH  36  37
ENDBRANCH  24  28
ENDBRANCH  18   6
TORSDOF 4
ENDMDL
MODEL 5
REMARK VINA RESULT:      -7.1      9.322     12.045
REMARK  Name = 7155478
REMARK  4 active torsions:
REMARK  status: ('A' for Active; 'I' for Inactive)
REMARK    1  A    between atoms: N_6  and  C_18
REMARK    2  A    between atoms: C_17  and  C_20
REMARK    3  A    between atoms: C_24  and  C_28
REMARK    4  A    between atoms: C_36  and  C_37
REMARK                            x       y       z     vdW  Elec       q    Type
REMARK                         _______ _______ _______ _____ _____    ______ ____
ROOT
ATOM      1  O   UNL     1      -9.351 -13.518  18.592  0.00  0.00    -0.266 OA
ATOM      2  O   UNL     1     -13.984 -12.796  16.404  0.00  0.00    -0.270 OA
ATOM      4  N   UNL     1     -14.171 -12.230  18.666  0.00  0.00    -0.297 N 
ATOM      5  N   UNL     1     -11.192 -12.592  19.693  0.00  0.00    -0.310 N 
ATOM      8  C   UNL     1     -13.298 -13.942  20.247  0.00  0.00    +0.027 C 
ATOM      9  C   UNL     1     -13.180 -11.556  20.841  0.00  0.00    +0.054 C 
ATOM     10  C   UNL     1     -13.458 -12.952  21.396  0.00  0.00    +0.018 C 
ATOM     11  C   UNL     1     -14.289 -13.617  19.115  0.00  0.00    +0.113 C 
ATOM     12  C   UNL     1     -11.841 -13.908  19.766  0.00  0.00    +0.130 C 
ATOM     13  C   UNL     1     -14.208 -11.224  19.740  0.00  0.00    +0.117 C 
ATOM     14  C   UNL     1     -11.776 -11.462  20.275  0.00  0.00    +0.027 A 
ATOM     15  C   UNL     1     -11.114 -10.294  20.298  0.00  0.00    +0.024 A 
ATOM     16  C   UNL     1      -9.913 -12.548  19.100  0.00  0.00    +0.273 A 
ATOM     17  C   UNL     1     -14.015 -11.960  17.305  0.00  0.00    +0.247 C 
ATOM     18  C   UNL     1      -9.220 -11.221  19.122  0.00  0.00    +0.099 A 
ATOM     19  C   UNL     1      -9.810 -10.174  19.708  0.00  0.00    +0.030 A 
ENDROOT
BRANCH  17  20
ATOM     20  C   UNL     1     -13.854 -10.561  16.896  0.00  0.00    +0.037 A 
ATOM     21  C   UNL     1     -12.604  -9.953  16.982  0.00  0.00    +0.021 A 
ATOM     22  C   UNL     1     -14.950  -9.848  16.425  0.00  0.00    +0.013 A 
ATOM     23  C   UNL     1     -12.434  -8.614  16.595  0.00  0.00    -0.017 A 
ATOM     25  C   UNL     1     -14.799  -8.518  16.036  0.00  0.00    +0.009 A 
ATOM     26  C   UNL     1     -13.548  -7.885  16.114  0.00  0.00    -0.018 A 
ATOM     27  C   UNL     1     -11.182  -7.983  16.673  0.00  0.00    +0.008 A 
ATOM     29  C   UNL     1     -13.377  -6.546  15.726  0.00  0.00    +0.008 A 
ATOM     30  C   UNL     1     -11.031  -6.651  16.284  0.00  0.00    +0.001 A 
ATOM     31  C   UNL     1     -12.126  -5.934  15.811  0.00  0.00    +0.001 A 
ENDBRANCH  17  20
BRANCH  18   6
ATOM      3  O   UNL     1      -6.708 -11.423  20.464  0.00  0.00    -0.270 OA
ATOM      6  N   UNL     1      -7.989 -11.133  18.543  0.00  0.00    -0.277 N 
ATOM     24  C   UNL     1      -6.800 -11.239  19.252  0.00  0.00    +0.248 C 
ATOM     38  H   UNL     1      -7.989 -10.834  17.573  0.00  0.00    +0.155 HD
BRANCH  24  28
ATOM     28  C   UNL     1      -5.557 -11.139  18.444  0.00  0.00    +0.037 A 
ATOM     32  C   UNL     1      -5.574 -10.389  17.286  0.00  0.00    +0.014 A 
ATOM     33  C   UNL     1      -4.426 -11.798  18.878  0.00  0.00    +0.014 A 
ATOM     34  C   UNL     1      -4.407 -10.295  16.528  0.00  0.00    +0.019 A 
ATOM     35  C   UNL     1      -3.259 -11.703  18.119  0.00  0.00    +0.019 A 
ATOM     36  C   UNL     1      -3.249 -10.953  16.945  0.00  0.00    +0.052 A 
BRANCH  36  37
ATOM      7  N   UNL     1      -1.082 -10.780  15.536  0.00  0.00    -0.191 NA
ATOM     37  C   UNL     1      -2.054 -10.858  16.168  0.00  0.00    +0.099 C 
ENDBRANCH  36  37
ENDBRANCH  24  28
ENDBRANCH  18   6
TORSDOF 4
ENDMDL
MODEL 6
REMARK VINA RESULT:      -7.0     30.724     33.730
REMARK  Name = 7155478
REMARK  4 active torsions:
REMARK  status: ('A' for Active; 'I' for Inactive)
REMARK    1  A    between atoms: N_6  and  C_18
REMARK    2  A    between atoms: C_17  and  C_20
REMARK    3  A    between atoms: C_24  and  C_28
REMARK    4  A    between atoms: C_36  and  C_37
REMARK                            x       y       z     vdW  Elec       q    Type
REMARK                         _______ _______ _______ _____ _____    ______ ____
ROOT
ATOM      1  O   UNL     1       4.168 -10.809  38.839  0.00  0.00    -0.266 OA
ATOM      2  O   UNL     1       7.231 -13.469  35.627  0.00  0.00    -0.270 OA
ATOM      4  N   UNL     1       5.013 -13.933  35.041  0.00  0.00    -0.297 N 
ATOM      5  N   UNL     1       3.394 -12.060  37.025  0.00  0.00    -0.310 N 
ATOM      8  C   UNL     1       3.552 -14.616  36.936  0.00  0.00    +0.027 C 
ATOM      9  C   UNL     1       2.592 -13.382  35.035  0.00  0.00    +0.054 C 
ATOM     10  C   UNL     1       2.335 -14.519  36.023  0.00  0.00    +0.018 C 
ATOM     11  C   UNL     1       4.820 -14.909  36.113  0.00  0.00    +0.113 C 
ATOM     12  C   UNL     1       3.673 -13.314  37.739  0.00  0.00    +0.130 C 
ATOM     13  C   UNL     1       3.837 -13.708  34.185  0.00  0.00    +0.117 C 
ATOM     14  C   UNL     1       2.798 -12.065  35.759  0.00  0.00    +0.027 A 
ATOM     15  C   UNL     1       2.445 -10.909  35.173  0.00  0.00    +0.024 A 
ATOM     16  C   UNL     1       3.661 -10.863  37.717  0.00  0.00    +0.273 A 
ATOM     17  C   UNL     1       6.244 -13.285  34.916  0.00  0.00    +0.247 C 
ATOM     18  C   UNL     1       3.278  -9.595  37.019  0.00  0.00    +0.099 A 
ATOM     19  C   UNL     1       2.692  -9.650  35.819  0.00  0.00    +0.030 A 
ENDROOT
BRANCH  17  20
ATOM     20  C   UNL     1       6.388 -12.280  33.858  0.00  0.00    +0.037 A 
ATOM     21  C   UNL     1       6.080 -10.947  34.122  0.00  0.00    +0.021 A 
ATOM     22  C   UNL     1       6.831 -12.661  32.597  0.00  0.00    +0.013 A 
ATOM     23  C   UNL     1       6.211  -9.972  33.120  0.00  0.00    -0.017 A 
ATOM     25  C   UNL     1       6.967 -11.706  31.590  0.00  0.00    +0.009 A 
ATOM     26  C   UNL     1       6.662 -10.357  31.835  0.00  0.00    -0.018 A 
ATOM     27  C   UNL     1       5.906  -8.624  33.366  0.00  0.00    +0.008 A 
ATOM     29  C   UNL     1       6.794  -9.383  30.833  0.00  0.00    +0.008 A 
ATOM     30  C   UNL     1       6.043  -7.669  32.358  0.00  0.00    +0.001 A 
ATOM     31  C   UNL     1       6.486  -8.047  31.094  0.00  0.00    +0.001 A 
ENDBRANCH  17  20
BRANCH  18   6
ATOM      3  O   UNL     1       5.721  -8.123  36.901  0.00  0.00    -0.270 OA
ATOM      6  N   UNL     1       3.537  -8.414  37.649  0.00  0.00    -0.277 N 
ATOM     24  C   UNL     1       4.750  -7.744  37.552  0.00  0.00    +0.248 C 
ATOM     38  H   UNL     1       2.836  -8.121  38.321  0.00  0.00    +0.155 HD
BRANCH  24  28
ATOM     28  C   UNL     1       4.838  -6.459  38.292  0.00  0.00    +0.037 A 
ATOM     32  C   UNL     1       4.086  -6.298  39.437  0.00  0.00    +0.014 A 
ATOM     33  C   UNL     1       5.668  -5.469  37.810  0.00  0.00    +0.014 A 
ATOM     34  C   UNL     1       4.168  -5.091  40.131  0.00  0.00    +0.019 A 
ATOM     35  C   UNL     1       5.750  -4.263  38.505  0.00  0.00    +0.019 A 
ATOM     36  C   UNL     1       5.001  -4.073  39.665  0.00  0.00    +0.052 A 
BRANCH  36  37
ATOM      7  N   UNL     1       5.153  -1.831  40.954  0.00  0.00    -0.191 NA
ATOM     37  C   UNL     1       5.085  -2.836  40.376  0.00  0.00    +0.099 C 
ENDBRANCH  36  37
ENDBRANCH  24  28
ENDBRANCH  18   6
TORSDOF 4
ENDMDL
MODEL 7
REMARK VINA RESULT:      -7.0      8.050     12.194
REMARK  Name = 7155478
REMARK  4 active torsions:
REMARK  status: ('A' for Active; 'I' for Inactive)
REMARK    1  A    between atoms: N_6  and  C_18
REMARK    2  A    between atoms: C_17  and  C_20
REMARK    3  A    between atoms: C_24  and  C_28
REMARK    4  A    between atoms: C_36  and  C_37
REMARK                            x       y       z     vdW  Elec       q    Type
REMARK                         _______ _______ _______ _____ _____    ______ ____
ROOT
ATOM      1  O   UNL     1     -10.403  -9.169  17.988  0.00  0.00    -0.266 OA
ATOM      2  O   UNL     1      -5.338  -9.922  18.734  0.00  0.00    -0.270 OA
ATOM      4  N   UNL     1      -6.317 -12.011  18.348  0.00  0.00    -0.297 N 
ATOM      5  N   UNL     1      -9.335 -11.234  17.757  0.00  0.00    -0.310 N 
ATOM      8  C   UNL     1      -8.321 -12.500  19.741  0.00  0.00    +0.027 C 
ATOM      9  C   UNL     1      -8.150 -13.439  17.471  0.00  0.00    +0.054 C 
ATOM     10  C   UNL     1      -8.591 -13.745  18.901  0.00  0.00    +0.018 C 
ATOM     11  C   UNL     1      -6.822 -12.149  19.714  0.00  0.00    +0.113 C 
ATOM     12  C   UNL     1      -9.193 -11.352  19.214  0.00  0.00    +0.130 C 
ATOM     13  C   UNL     1      -6.638 -13.134  17.451  0.00  0.00    +0.117 C 
ATOM     14  C   UNL     1      -8.917 -12.261  16.903  0.00  0.00    +0.027 A 
ATOM     15  C   UNL     1      -9.161 -12.185  15.584  0.00  0.00    +0.024 A 
ATOM     16  C   UNL     1     -10.001 -10.090  17.275  0.00  0.00    +0.273 A 
ATOM     17  C   UNL     1      -5.610 -10.862  17.990  0.00  0.00    +0.247 C 
ATOM     18  C   UNL     1     -10.229 -10.030  15.797  0.00  0.00    +0.099 A 
ATOM     19  C   UNL     1      -9.830 -11.045  15.022  0.00  0.00    +0.030 A 
ENDROOT
BRANCH  17  20
ATOM     20  C   UNL     1      -5.158 -10.738  16.600  0.00  0.00    +0.037 A 
ATOM     21  C   UNL     1      -6.024 -10.236  15.632  0.00  0.00    +0.021 A 
ATOM     22  C   UNL     1      -3.867 -11.122  16.257  0.00  0.00    +0.013 A 
ATOM     23  C   UNL     1      -5.606 -10.112  14.296  0.00  0.00    -0.017 A 
ATOM     25  C   UNL     1      -3.435 -11.006  14.936  0.00  0.00    +0.009 A 
ATOM     26  C   UNL     1      -4.292 -10.502  13.943  0.00  0.00    -0.018 A 
ATOM     27  C   UNL     1      -6.463  -9.609  13.305  0.00  0.00    +0.008 A 
ATOM     29  C   UNL     1      -3.874 -10.378  12.608  0.00  0.00    +0.008 A 
ATOM     30  C   UNL     1      -6.031  -9.492  11.983  0.00  0.00    +0.001 A 
ATOM     31  C   UNL     1      -4.740  -9.876  11.635  0.00  0.00    +0.001 A 
ENDBRANCH  17  20
BRANCH  18   6
ATOM      3  O   UNL     1     -13.044  -9.696  15.462  0.00  0.00    -0.270 OA
ATOM      6  N   UNL     1     -10.854  -8.930  15.289  0.00  0.00    -0.277 N 
ATOM     24  C   UNL     1     -12.232  -8.827  15.151  0.00  0.00    +0.248 C 
ATOM     38  H   UNL     1     -10.239  -8.238  14.875  0.00  0.00    +0.155 HD
BRANCH  24  28
ATOM     28  C   UNL     1     -12.731  -7.542  14.598  0.00  0.00    +0.037 A 
ATOM     32  C   UNL     1     -14.044  -7.460  14.182  0.00  0.00    +0.014 A 
ATOM     33  C   UNL     1     -11.865  -6.471  14.518  0.00  0.00    +0.014 A 
ATOM     34  C   UNL     1     -14.511  -6.254  13.662  0.00  0.00    +0.019 A 
ATOM     35  C   UNL     1     -12.333  -5.265  13.998  0.00  0.00    +0.019 A 
ATOM     36  C   UNL     1     -13.655  -5.155  13.571  0.00  0.00    +0.052 A 
BRANCH  36  37
ATOM      7  N   UNL     1     -14.523  -2.914  12.603  0.00  0.00    -0.191 NA
ATOM     37  C   UNL     1     -14.134  -3.919  13.037  0.00  0.00    +0.099 C 
ENDBRANCH  36  37
ENDBRANCH  24  28
ENDBRANCH  18   6
TORSDOF 4
ENDMDL
MODEL 8
REMARK VINA RESULT:      -6.7      8.638     12.520
REMARK  Name = 7155478
REMARK  4 active torsions:
REMARK  status: ('A' for Active; 'I' for Inactive)
REMARK    1  A    between atoms: N_6  and  C_18
REMARK    2  A    between atoms: C_17  and  C_20
REMARK    3  A    between atoms: C_24  and  C_28
REMARK    4  A    between atoms: C_36  and  C_37
REMARK                            x       y       z     vdW  Elec       q    Type
REMARK                         _______ _______ _______ _____ _____    ______ ____
ROOT
ATOM      1  O   UNL     1     -10.919  -9.493  17.591  0.00  0.00    -0.266 OA
ATOM      2  O   UNL     1      -6.192 -10.231  19.560  0.00  0.00    -0.270 OA
ATOM      4  N   UNL     1      -7.001 -12.311  18.857  0.00  0.00    -0.297 N 
ATOM      5  N   UNL     1      -9.788 -11.537  17.555  0.00  0.00    -0.310 N 
ATOM      8  C   UNL     1      -9.281 -12.877  19.679  0.00  0.00    +0.027 C 
ATOM      9  C   UNL     1      -8.526 -13.716  17.491  0.00  0.00    +0.054 C 
ATOM     10  C   UNL     1      -9.307 -14.088  18.751  0.00  0.00    +0.018 C 
ATOM     11  C   UNL     1      -7.831 -12.511  20.045  0.00  0.00    +0.113 C 
ATOM     12  C   UNL     1     -10.015 -11.716  18.996  0.00  0.00    +0.130 C 
ATOM     13  C   UNL     1      -7.065 -13.397  17.865  0.00  0.00    +0.117 C 
ATOM     14  C   UNL     1      -9.149 -12.521  16.795  0.00  0.00    +0.027 A 
ATOM     15  C   UNL     1      -9.055 -12.391  15.461  0.00  0.00    +0.024 A 
ATOM     16  C   UNL     1     -10.334 -10.378  16.966  0.00  0.00    +0.273 A 
ATOM     17  C   UNL     1      -6.249 -11.141  18.734  0.00  0.00    +0.247 C 
ATOM     18  C   UNL     1     -10.184 -10.257  15.482  0.00  0.00    +0.099 A 
ATOM     19  C   UNL     1      -9.583 -11.234  14.794  0.00  0.00    +0.030 A 
ENDROOT
BRANCH  17  20
ATOM     20  C   UNL     1      -5.464 -10.954  17.509  0.00  0.00    +0.037 A 
ATOM     21  C   UNL     1      -4.074 -11.020  17.560  0.00  0.00    +0.021 A 
ATOM     22  C   UNL     1      -6.112 -10.711  16.304  0.00  0.00    +0.013 A 
ATOM     23  C   UNL     1      -3.309 -10.842  16.396  0.00  0.00    -0.017 A 
ATOM     25  C   UNL     1      -5.368 -10.532  15.139  0.00  0.00    +0.009 A 
ATOM     26  C   UNL     1      -3.965 -10.595  15.167  0.00  0.00    -0.018 A 
ATOM     27  C   UNL     1      -1.906 -10.906  16.426  0.00  0.00    +0.008 A 
ATOM     29  C   UNL     1      -3.200 -10.417  14.003  0.00  0.00    +0.008 A 
ATOM     30  C   UNL     1      -1.161 -10.727  15.259  0.00  0.00    +0.001 A 
ATOM     31  C   UNL     1      -1.806 -10.483  14.050  0.00  0.00    +0.001 A 
ENDBRANCH  17  20
BRANCH  18   6
ATOM      3  O   UNL     1     -12.797  -9.970  14.369  0.00  0.00    -0.270 OA
ATOM      6  N   UNL     1     -10.682  -9.142  14.877  0.00  0.00    -0.277 N 
ATOM     24  C   UNL     1     -11.966  -9.064  14.354  0.00  0.00    +0.248 C 
ATOM     38  H   UNL     1     -10.004  -8.410  14.696  0.00  0.00    +0.155 HD
BRANCH  24  28
ATOM     28  C   UNL     1     -12.338  -7.757  13.752  0.00  0.00    +0.037 A 
ATOM     32  C   UNL     1     -12.485  -6.662  14.577  0.00  0.00    +0.014 A 
ATOM     33  C   UNL     1     -12.525  -7.682  12.387  0.00  0.00    +0.014 A 
ATOM     34  C   UNL     1     -12.835  -5.436  14.011  0.00  0.00    +0.019 A 
ATOM     35  C   UNL     1     -12.874  -6.456  11.823  0.00  0.00    +0.019 A 
ATOM     36  C   UNL     1     -13.030  -5.333  12.633  0.00  0.00    +0.052 A 
BRANCH  36  37
ATOM      7  N   UNL     1     -13.682  -3.057  11.583  0.00  0.00    -0.191 NA
ATOM     37  C   UNL     1     -13.389  -4.078  12.054  0.00  0.00    +0.099 C 
ENDBRANCH  36  37
ENDBRANCH  24  28
ENDBRANCH  18   6
TORSDOF 4
ENDMDL
MODEL 9
REMARK VINA RESULT:      -6.7     30.363     33.704
REMARK  Name = 7155478
REMARK  4 active torsions:
REMARK  status: ('A' for Active; 'I' for Inactive)
REMARK    1  A    between atoms: N_6  and  C_18
REMARK    2  A    between atoms: C_17  and  C_20
REMARK    3  A    between atoms: C_24  and  C_28
REMARK    4  A    between atoms: C_36  and  C_37
REMARK                            x       y       z     vdW  Elec       q    Type
REMARK                         _______ _______ _______ _____ _____    ______ ____
ROOT
ATOM      1  O   UNL     1       6.034 -10.253  34.671  0.00  0.00    -0.266 OA
ATOM      2  O   UNL     1      10.231 -12.796  33.031  0.00  0.00    -0.270 OA
ATOM      4  N   UNL     1       8.838 -12.456  31.181  0.00  0.00    -0.297 N 
ATOM      5  N   UNL     1       6.475 -10.750  32.432  0.00  0.00    -0.310 N 
ATOM      8  C   UNL     1       6.470 -13.143  31.516  0.00  0.00    +0.027 C 
ATOM      9  C   UNL     1       6.998 -11.260  30.020  0.00  0.00    +0.054 C 
ATOM     10  C   UNL     1       6.100 -12.484  30.191  0.00  0.00    +0.018 C 
ATOM     11  C   UNL     1       7.949 -13.570  31.509  0.00  0.00    +0.113 C 
ATOM     12  C   UNL     1       6.157 -12.166  32.658  0.00  0.00    +0.130 C 
ATOM     13  C   UNL     1       8.473 -11.706  29.969  0.00  0.00    +0.117 C 
ATOM     14  C   UNL     1       6.800 -10.275  31.157  0.00  0.00    +0.027 A 
ATOM     15  C   UNL     1       6.974  -8.959  30.948  0.00  0.00    +0.024 A 
ATOM     16  C   UNL     1       6.336  -9.884  33.535  0.00  0.00    +0.273 A 
ATOM     17  C   UNL     1       9.921 -12.173  32.017  0.00  0.00    +0.247 C 
ATOM     18  C   UNL     1       6.565  -8.429  33.268  0.00  0.00    +0.099 A 
ATOM     19  C   UNL     1       6.854  -8.020  32.028  0.00  0.00    +0.030 A 
ENDROOT
BRANCH  17  20
ATOM     20  C   UNL     1      10.764 -11.020  31.682  0.00  0.00    +0.037 A 
ATOM     21  C   UNL     1      10.433  -9.756  32.162  0.00  0.00    +0.021 A 
ATOM     22  C   UNL     1      11.891 -11.197  30.887  0.00  0.00    +0.013 A 
ATOM     23  C   UNL     1      11.230  -8.643  31.849  0.00  0.00    -0.017 A 
ATOM     25  C   UNL     1      12.694 -10.103  30.568  0.00  0.00    +0.009 A 
ATOM     26  C   UNL     1      12.378  -8.818  31.041  0.00  0.00    -0.018 A 
ATOM     27  C   UNL     1      10.913  -7.359  32.323  0.00  0.00    +0.008 A 
ATOM     29  C   UNL     1      13.175  -7.706  30.729  0.00  0.00    +0.008 A 
ATOM     30  C   UNL     1      11.717  -6.264  32.003  0.00  0.00    +0.001 A 
ATOM     31  C   UNL     1      12.846  -6.437  31.208  0.00  0.00    +0.001 A 
ENDBRANCH  17  20
BRANCH  18   6
ATOM      3  O   UNL     1       8.658  -7.687  35.062  0.00  0.00    -0.270 OA
ATOM      6  N   UNL     1       6.458  -7.562  34.314  0.00  0.00    -0.277 N 
ATOM     24  C   UNL     1       7.516  -7.240  35.153  0.00  0.00    +0.248 C 
ATOM     38  H   UNL     1       5.512  -7.272  34.539  0.00  0.00    +0.155 HD
BRANCH  24  28
ATOM     28  C   UNL     1       7.213  -6.258  36.226  0.00  0.00    +0.037 A 
ATOM     32  C   UNL     1       6.510  -6.680  37.336  0.00  0.00    +0.014 A 
ATOM     33  C   UNL     1       7.644  -4.956  36.078  0.00  0.00    +0.014 A 
ATOM     34  C   UNL     1       6.225  -5.758  38.342  0.00  0.00    +0.019 A 
ATOM     35  C   UNL     1       7.359  -4.035  37.085  0.00  0.00    +0.019 A 
ATOM     36  C   UNL     1       6.650  -4.434  38.217  0.00  0.00    +0.052 A 
BRANCH  36  37
ATOM      7  N   UNL     1       6.120  -2.720  40.086  0.00  0.00    -0.191 NA
ATOM     37  C   UNL     1       6.358  -3.489  39.248  0.00  0.00    +0.099 C 
ENDBRANCH  36  37
ENDBRANCH  24  28
ENDBRANCH  18   6
TORSDOF 4
ENDMDL
MODEL 10
REMARK VINA RESULT:      -6.6      9.243     11.651
REMARK  Name = 7155478
REMARK  4 active torsions:
REMARK  status: ('A' for Active; 'I' for Inactive)
REMARK    1  A    between atoms: N_6  and  C_18
REMARK    2  A    between atoms: C_17  and  C_20
REMARK    3  A    between atoms: C_24  and  C_28
REMARK    4  A    between atoms: C_36  and  C_37
REMARK                            x       y       z     vdW  Elec       q    Type
REMARK                         _______ _______ _______ _____ _____    ______ ____
ROOT
ATOM      1  O   UNL     1      -7.173 -13.694  16.759  0.00  0.00    -0.266 OA
ATOM      2  O   UNL     1     -12.327 -13.396  16.417  0.00  0.00    -0.270 OA
ATOM      4  N   UNL     1     -11.741 -13.032  18.653  0.00  0.00    -0.297 N 
ATOM      5  N   UNL     1      -8.572 -13.093  18.530  0.00  0.00    -0.310 N 
ATOM      8  C   UNL     1     -10.208 -14.736  19.622  0.00  0.00    +0.027 C 
ATOM      9  C   UNL     1     -10.102 -12.406  20.410  0.00  0.00    +0.054 C 
ATOM     10  C   UNL     1     -10.035 -13.864  20.861  0.00  0.00    +0.018 C 
ATOM     11  C   UNL     1     -11.564 -14.453  18.951  0.00  0.00    +0.113 C 
ATOM     12  C   UNL     1      -9.030 -14.482  18.672  0.00  0.00    +0.130 C 
ATOM     13  C   UNL     1     -11.482 -12.123  19.781  0.00  0.00    +0.117 C 
ATOM     14  C   UNL     1      -9.009 -12.094  19.406  0.00  0.00    +0.027 A 
ATOM     15  C   UNL     1      -8.491 -10.857  19.332  0.00  0.00    +0.024 A 
ATOM     16  C   UNL     1      -7.601 -12.843  17.540  0.00  0.00    +0.273 A 
ATOM     17  C   UNL     1     -12.108 -12.642  17.363  0.00  0.00    +0.247 C 
ATOM     18  C   UNL     1      -7.069 -11.446  17.473  0.00  0.00    +0.099 A 
ATOM     19  C   UNL     1      -7.502 -10.529  18.344  0.00  0.00    +0.030 A 
ENDROOT
BRANCH  17  20
ATOM     20  C   UNL     1     -12.232 -11.206  17.089  0.00  0.00    +0.037 A 
ATOM     21  C   UNL     1     -11.101 -10.463  16.764  0.00  0.00    +0.021 A 
ATOM     22  C   UNL     1     -13.479 -10.596  17.154  0.00  0.00    +0.013 A 
ATOM     23  C   UNL     1     -11.202  -9.087  16.499  0.00  0.00    -0.017 A 
ATOM     25  C   UNL     1     -13.599  -9.231  16.894  0.00  0.00    +0.009 A 
ATOM     26  C   UNL     1     -12.471  -8.462  16.564  0.00  0.00    -0.018 A 
ATOM     27  C   UNL     1     -10.074  -8.320  16.169  0.00  0.00    +0.008 A 
ATOM     29  C   UNL     1     -12.573  -7.087  16.299  0.00  0.00    +0.008 A 
ATOM     30  C   UNL     1     -10.194  -6.954  15.909  0.00  0.00    +0.001 A 
ATOM     31  C   UNL     1     -11.440  -6.338  15.973  0.00  0.00    +0.001 A 
ENDBRANCH  17  20
BRANCH  18   6
ATOM      3  O   UNL     1      -4.234 -11.577  17.782  0.00  0.00    -0.270 OA
ATOM      6  N   UNL     1      -6.141 -11.159  16.516  0.00  0.00    -0.277 N 
ATOM     24  C   UNL     1      -4.771 -11.243  16.729  0.00  0.00    +0.248 C 
ATOM     38  H   UNL     1      -6.509 -10.734  15.672  0.00  0.00    +0.155 HD
BRANCH  24  28
ATOM     28  C   UNL     1      -3.916 -10.912  15.560  0.00  0.00    +0.037 A 
ATOM     32  C   UNL     1      -4.493 -10.853  14.308  0.00  0.00    +0.014 A 
ATOM     33  C   UNL     1      -2.573 -10.675  15.763  0.00  0.00    +0.014 A 
ATOM     34  C   UNL     1      -3.690 -10.544  13.210  0.00  0.00    +0.019 A 
ATOM     35  C   UNL     1      -1.771 -10.365  14.665  0.00  0.00    +0.019 A 
ATOM     36  C   UNL     1      -2.328 -10.299  13.390  0.00  0.00    +0.052 A 
BRANCH  36  37
ATOM      7  N   UNL     1      -0.835  -9.726  11.351  0.00  0.00    -0.191 NA
ATOM     37  C   UNL     1      -1.505  -9.983  12.265  0.00  0.00    +0.099 C 
ENDBRANCH  36  37
ENDBRANCH  24  28
ENDBRANCH  18   6
TORSDOF 4
ENDMDL
