MODEL 1
REMARK VINA RESULT:      -6.8      0.000      0.000
REMARK  Name = 7674053
REMARK  5 active torsions:
REMARK  status: ('A' for Active; 'I' for Inactive)
REMARK    1  A    between atoms: S_1  and  N_8
REMARK    2  A    between atoms: S_1  and  C_22
REMARK    3  A    between atoms: N_10  and  C_18
REMARK    4  A    between atoms: N_12  and  C_29
REMARK    5  A    between atoms: C_13  and  C_17
REMARK                            x       y       z     vdW  Elec       q    Type
REMARK                         _______ _______ _______ _____ _____    ______ ____
ROOT
ATOM      6  O   UNL     1      16.577  10.404   5.156  0.00  0.00    -0.252 OA
ATOM      8  N   UNL     1      12.159   8.135   4.714  0.00  0.00    -0.162 NA
ATOM      9  N   UNL     1      14.929   8.883   4.583  0.00  0.00    -0.282 N 
ATOM     12  N   UNL     1      17.143   8.155   4.941  0.00  0.00    -0.269 N 
ATOM     13  C   UNL     1      12.569   9.520   5.079  0.00  0.00    +0.183 C 
ATOM     14  C   UNL     1      13.909   9.930   4.474  0.00  0.00    +0.139 C 
ATOM     15  C   UNL     1      13.063   7.456   3.752  0.00  0.00    +0.129 C 
ATOM     16  C   UNL     1      14.490   7.514   4.283  0.00  0.00    +0.126 C 
ATOM     21  C   UNL     1      16.259   9.237   4.912  0.00  0.00    +0.307 C 
ATOM     38  H   UNL     1      16.778   7.229   4.749  0.00  0.00    +0.156 HD
ENDROOT
BRANCH  12  29
ATOM     29  C   UNL     1      18.530   8.175   5.235  0.00  0.00    +0.035 A 
ATOM     31  C   UNL     1      18.965   8.504   6.519  0.00  0.00    +0.023 A 
ATOM     32  C   UNL     1      19.459   7.865   4.242  0.00  0.00    +0.023 A 
ATOM     33  C   UNL     1      20.329   8.524   6.810  0.00  0.00    +0.002 A 
ATOM     34  C   UNL     1      20.823   7.885   4.533  0.00  0.00    +0.002 A 
ATOM     35  C   UNL     1      21.258   8.214   5.817  0.00  0.00    +0.000 A 
ENDBRANCH  12  29
BRANCH  13  17
ATOM      3  O   UNL     1      13.345   8.713   7.184  0.00  0.00    -0.274 OA
ATOM     10  N   UNL     1      11.797  10.452   7.142  0.00  0.00    -0.303 N 
ATOM     17  C   UNL     1      12.633   9.506   6.573  0.00  0.00    +0.234 C 
ATOM     36  H   UNL     1      11.276  11.079   6.537  0.00  0.00    +0.149 HD
BRANCH  10  18
ATOM      7  O   UNL     1       9.361   9.945   8.273  0.00  0.00    -0.274 OA
ATOM     11  N   UNL     1       9.798  11.378   9.998  0.00  0.00    -0.314 N 
ATOM     18  C   UNL     1      11.659  10.627   8.565  0.00  0.00    +0.159 C 
ATOM     19  C   UNL     1      12.415  11.862   9.037  0.00  0.00    +0.033 C 
ATOM     20  C   UNL     1      12.108  12.118  10.502  0.00  0.00    +0.021 C 
ATOM     23  C   UNL     1      10.170  10.639   8.894  0.00  0.00    +0.233 C 
ATOM     24  C   UNL     1      10.621  12.373  10.660  0.00  0.00    +0.104 C 
ATOM     37  H   UNL     1       8.817  11.348  10.261  0.00  0.00    +0.149 HD
ENDBRANCH  10  18
ENDBRANCH  13  17
BRANCH   8   1
ATOM      1  S   UNL     1      10.486   7.858   4.501  0.00  0.00    +0.062 S 
ATOM      4  O   UNL     1      10.267   7.265   3.199  0.00  0.00    -0.153 OA
ATOM      5  O   UNL     1       9.757   9.039   4.912  0.00  0.00    -0.153 OA
BRANCH   1  22
ATOM      2  F   UNL     1       9.601   3.674   8.556  0.00  0.00    -0.205 F 
ATOM     22  C   UNL     1      10.221   6.605   5.716  0.00  0.00    +0.106 A 
ATOM     25  C   UNL     1      10.022   5.282   5.321  0.00  0.00    +0.031 A 
ATOM     26  C   UNL     1      10.210   6.939   7.070  0.00  0.00    +0.031 A 
ATOM     27  C   UNL     1       9.812   4.292   6.280  0.00  0.00    +0.040 A 
ATOM     28  C   UNL     1      10.001   5.948   8.030  0.00  0.00    +0.040 A 
ATOM     30  C   UNL     1       9.801   4.625   7.635  0.00  0.00    +0.124 A 
ENDBRANCH   1  22
ENDBRANCH   8   1
TORSDOF 5
ENDMDL
MODEL 2
REMARK VINA RESULT:      -6.8      2.883      5.717
REMARK  Name = 7674053
REMARK  5 active torsions:
REMARK  status: ('A' for Active; 'I' for Inactive)
REMARK    1  A    between atoms: S_1  and  N_8
REMARK    2  A    between atoms: S_1  and  C_22
REMARK    3  A    between atoms: N_10  and  C_18
REMARK    4  A    between atoms: N_12  and  C_29
REMARK    5  A    between atoms: C_13  and  C_17
REMARK                            x       y       z     vdW  Elec       q    Type
REMARK                         _______ _______ _______ _____ _____    ______ ____
ROOT
ATOM      6  O   UNL     1      16.085   8.234   6.234  0.00  0.00    -0.252 OA
ATOM      8  N   UNL     1      11.154   7.944   5.552  0.00  0.00    -0.162 NA
ATOM      9  N   UNL     1      13.820   8.708   6.298  0.00  0.00    -0.282 N 
ATOM     12  N   UNL     1      15.399  10.459   6.286  0.00  0.00    -0.269 N 
ATOM     13  C   UNL     1      12.265   6.958   5.438  0.00  0.00    +0.183 C 
ATOM     14  C   UNL     1      13.457   7.288   6.332  0.00  0.00    +0.139 C 
ATOM     15  C   UNL     1      11.361   8.992   6.582  0.00  0.00    +0.129 C 
ATOM     16  C   UNL     1      12.707   9.665   6.345  0.00  0.00    +0.126 C 
ATOM     21  C   UNL     1      15.186   9.078   6.273  0.00  0.00    +0.307 C 
ATOM     38  H   UNL     1      14.592  11.071   6.294  0.00  0.00    +0.156 HD
ENDROOT
BRANCH  12  29
ATOM     29  C   UNL     1      16.640  11.146   6.268  0.00  0.00    +0.035 A 
ATOM     31  C   UNL     1      17.098  11.788   7.419  0.00  0.00    +0.023 A 
ATOM     32  C   UNL     1      17.402  11.179   5.101  0.00  0.00    +0.023 A 
ATOM     33  C   UNL     1      18.318  12.463   7.403  0.00  0.00    +0.002 A 
ATOM     34  C   UNL     1      18.622  11.855   5.085  0.00  0.00    +0.002 A 
ATOM     35  C   UNL     1      19.080  12.497   6.236  0.00  0.00    +0.000 A 
ENDBRANCH  12  29
BRANCH  13  17
ATOM      3  O   UNL     1      13.043   8.026   3.453  0.00  0.00    -0.274 OA
ATOM     10  N   UNL     1      12.478   5.768   3.374  0.00  0.00    -0.303 N 
ATOM     17  C   UNL     1      12.648   6.995   3.993  0.00  0.00    +0.234 C 
ATOM     36  H   UNL     1      12.174   4.974   3.927  0.00  0.00    +0.149 HD
BRANCH  10  18
ATOM      7  O   UNL     1      10.687   4.300   1.922  0.00  0.00    -0.274 OA
ATOM     11  N   UNL     1      12.315   3.659   0.452  0.00  0.00    -0.314 N 
ATOM     18  C   UNL     1      12.755   5.546   1.978  0.00  0.00    +0.159 C 
ATOM     19  C   UNL     1      14.237   5.277   1.754  0.00  0.00    +0.033 C 
ATOM     20  C   UNL     1      14.469   4.875   0.308  0.00  0.00    +0.021 C 
ATOM     23  C   UNL     1      11.834   4.433   1.489  0.00  0.00    +0.233 C 
ATOM     24  C   UNL     1      13.697   3.601   0.017  0.00  0.00    +0.104 C 
ATOM     37  H   UNL     1      11.688   2.952   0.080  0.00  0.00    +0.149 HD
ENDBRANCH  10  18
ENDBRANCH  13  17
BRANCH   8   1
ATOM      1  S   UNL     1       9.565   7.332   5.407  0.00  0.00    +0.062 S 
ATOM      4  O   UNL     1       9.499   6.451   4.260  0.00  0.00    -0.153 OA
ATOM      5  O   UNL     1       8.624   8.420   5.564  0.00  0.00    -0.153 OA
BRANCH   1  22
ATOM      2  F   UNL     1       9.299   3.993  10.258  0.00  0.00    -0.205 F 
ATOM     22  C   UNL     1       9.485   6.331   6.860  0.00  0.00    +0.106 A 
ATOM     25  C   UNL     1       9.029   6.879   8.059  0.00  0.00    +0.031 A 
ATOM     26  C   UNL     1       9.879   4.994   6.808  0.00  0.00    +0.031 A 
ATOM     27  C   UNL     1       8.966   6.089   9.207  0.00  0.00    +0.040 A 
ATOM     28  C   UNL     1       9.815   4.204   7.956  0.00  0.00    +0.040 A 
ATOM     30  C   UNL     1       9.360   4.752   9.156  0.00  0.00    +0.124 A 
ENDBRANCH   1  22
ENDBRANCH   8   1
TORSDOF 5
ENDMDL
MODEL 3
REMARK VINA RESULT:      -6.7     23.887     26.184
REMARK  Name = 7674053
REMARK  5 active torsions:
REMARK  status: ('A' for Active; 'I' for Inactive)
REMARK    1  A    between atoms: S_1  and  N_8
REMARK    2  A    between atoms: S_1  and  C_22
REMARK    3  A    between atoms: N_10  and  C_18
REMARK    4  A    between atoms: N_12  and  C_29
REMARK    5  A    between atoms: C_13  and  C_17
REMARK                            x       y       z     vdW  Elec       q    Type
REMARK                         _______ _______ _______ _____ _____    ______ ____
ROOT
ATOM      6  O   UNL     1      16.168  -6.644  30.851  0.00  0.00    -0.252 OA
ATOM      8  N   UNL     1      17.636  -5.802  26.161  0.00  0.00    -0.162 NA
ATOM      9  N   UNL     1      16.234  -6.597  28.537  0.00  0.00    -0.282 N 
ATOM     12  N   UNL     1      14.165  -6.538  29.668  0.00  0.00    -0.269 N 
ATOM     13  C   UNL     1      18.339  -5.788  27.474  0.00  0.00    +0.183 C 
ATOM     14  C   UNL     1      17.695  -6.704  28.512  0.00  0.00    +0.139 C 
ATOM     15  C   UNL     1      16.518  -6.775  26.069  0.00  0.00    +0.129 C 
ATOM     16  C   UNL     1      15.562  -6.547  27.233  0.00  0.00    +0.126 C 
ATOM     21  C   UNL     1      15.556  -6.600  29.781  0.00  0.00    +0.307 C 
ATOM     38  H   UNL     1      13.759  -6.480  28.741  0.00  0.00    +0.156 HD
ENDROOT
BRANCH  12  29
ATOM     29  C   UNL     1      13.209  -6.523  30.715  0.00  0.00    +0.035 A 
ATOM     31  C   UNL     1      13.049  -5.378  31.496  0.00  0.00    +0.023 A 
ATOM     32  C   UNL     1      12.429  -7.652  30.965  0.00  0.00    +0.023 A 
ATOM     33  C   UNL     1      12.109  -5.361  32.526  0.00  0.00    +0.002 A 
ATOM     34  C   UNL     1      11.489  -7.635  31.995  0.00  0.00    +0.002 A 
ATOM     35  C   UNL     1      11.329  -6.489  32.776  0.00  0.00    +0.000 A 
ENDBRANCH  12  29
BRANCH  13  17
ATOM      3  O   UNL     1      17.267  -3.864  28.386  0.00  0.00    -0.274 OA
ATOM     10  N   UNL     1      19.481  -3.697  27.682  0.00  0.00    -0.303 N 
ATOM     17  C   UNL     1      18.286  -4.358  27.908  0.00  0.00    +0.234 C 
ATOM     36  H   UNL     1      20.270  -4.216  27.310  0.00  0.00    +0.149 HD
BRANCH  10  18
ATOM      7  O   UNL     1      19.989  -1.976  25.620  0.00  0.00    -0.274 OA
ATOM     11  N   UNL     1      21.105  -0.547  27.011  0.00  0.00    -0.314 N 
ATOM     18  C   UNL     1      19.682  -2.305  27.993  0.00  0.00    +0.159 C 
ATOM     19  C   UNL     1      20.500  -2.145  29.267  0.00  0.00    +0.033 C 
ATOM     20  C   UNL     1      20.843  -0.679  29.471  0.00  0.00    +0.021 C 
ATOM     23  C   UNL     1      20.291  -1.634  26.766  0.00  0.00    +0.233 C 
ATOM     24  C   UNL     1      21.675  -0.196  28.298  0.00  0.00    +0.104 C 
ATOM     37  H   UNL     1      21.471  -0.057  26.200  0.00  0.00    +0.149 HD
ENDBRANCH  10  18
ENDBRANCH  13  17
BRANCH   8   1
ATOM      1  S   UNL     1      18.609  -5.638  24.765  0.00  0.00    +0.062 S 
ATOM      4  O   UNL     1      18.354  -6.751  23.876  0.00  0.00    -0.153 OA
ATOM      5  O   UNL     1      19.958  -5.301  25.167  0.00  0.00    -0.153 OA
BRANCH   1  22
ATOM      2  F   UNL     1      16.174  -0.832  22.372  0.00  0.00    -0.205 F 
ATOM     22  C   UNL     1      17.880  -4.198  24.048  0.00  0.00    +0.106 A 
ATOM     25  C   UNL     1      16.744  -3.631  24.625  0.00  0.00    +0.031 A 
ATOM     26  C   UNL     1      18.440  -3.629  22.904  0.00  0.00    +0.031 A 
ATOM     27  C   UNL     1      16.167  -2.494  24.059  0.00  0.00    +0.040 A 
ATOM     28  C   UNL     1      17.864  -2.491  22.339  0.00  0.00    +0.040 A 
ATOM     30  C   UNL     1      16.727  -1.924  22.915  0.00  0.00    +0.124 A 
ENDBRANCH   1  22
ENDBRANCH   8   1
TORSDOF 5
ENDMDL
MODEL 4
REMARK VINA RESULT:      -6.6     28.362     30.436
REMARK  Name = 7674053
REMARK  5 active torsions:
REMARK  status: ('A' for Active; 'I' for Inactive)
REMARK    1  A    between atoms: S_1  and  N_8
REMARK    2  A    between atoms: S_1  and  C_22
REMARK    3  A    between atoms: N_10  and  C_18
REMARK    4  A    between atoms: N_12  and  C_29
REMARK    5  A    between atoms: C_13  and  C_17
REMARK                            x       y       z     vdW  Elec       q    Type
REMARK                         _______ _______ _______ _____ _____    ______ ____
ROOT
ATOM      6  O   UNL     1      -9.565 -10.958  16.627  0.00  0.00    -0.252 OA
ATOM      8  N   UNL     1     -12.447  -7.596  14.335  0.00  0.00    -0.162 NA
ATOM      9  N   UNL     1     -10.471  -8.948  15.920  0.00  0.00    -0.282 N 
ATOM     12  N   UNL     1      -8.169  -9.106  16.411  0.00  0.00    -0.269 N 
ATOM     13  C   UNL     1     -12.594  -9.052  14.617  0.00  0.00    +0.183 C 
ATOM     14  C   UNL     1     -11.824  -9.506  15.854  0.00  0.00    +0.139 C 
ATOM     15  C   UNL     1     -11.679  -6.843  15.358  0.00  0.00    +0.129 C 
ATOM     16  C   UNL     1     -10.335  -7.528  15.576  0.00  0.00    +0.126 C 
ATOM     21  C   UNL     1      -9.399  -9.768  16.349  0.00  0.00    +0.307 C 
ATOM     38  H   UNL     1      -8.133  -8.131  16.137  0.00  0.00    +0.156 HD
ENDROOT
BRANCH  12  29
ATOM     29  C   UNL     1      -6.915  -9.641  16.799  0.00  0.00    +0.035 A 
ATOM     31  C   UNL     1      -6.725 -10.097  18.104  0.00  0.00    +0.023 A 
ATOM     32  C   UNL     1      -5.871  -9.713  15.877  0.00  0.00    +0.023 A 
ATOM     33  C   UNL     1      -5.492 -10.624  18.487  0.00  0.00    +0.002 A 
ATOM     34  C   UNL     1      -4.638 -10.240  16.259  0.00  0.00    +0.002 A 
ATOM     35  C   UNL     1      -4.448 -10.695  17.565  0.00  0.00    +0.000 A 
ENDBRANCH  12  29
BRANCH  13  17
ATOM      3  O   UNL     1     -12.661 -10.676  12.873  0.00  0.00    -0.274 OA
ATOM     10  N   UNL     1     -10.897  -9.158  12.935  0.00  0.00    -0.303 N 
ATOM     17  C   UNL     1     -12.079  -9.722  13.383  0.00  0.00    +0.234 C 
ATOM     36  H   UNL     1     -10.520  -8.349  13.420  0.00  0.00    +0.149 HD
BRANCH  10  18
ATOM      7  O   UNL     1      -8.245  -9.761  13.210  0.00  0.00    -0.274 OA
ATOM     11  N   UNL     1      -7.864  -9.359  10.993  0.00  0.00    -0.314 N 
ATOM     18  C   UNL     1     -10.185  -9.636  11.778  0.00  0.00    +0.159 C 
ATOM     19  C   UNL     1     -10.614  -8.881  10.527  0.00  0.00    +0.033 C 
ATOM     20  C   UNL     1      -9.726  -9.282   9.361  0.00  0.00    +0.021 C 
ATOM     23  C   UNL     1      -8.692  -9.556  12.079  0.00  0.00    +0.233 C 
ATOM     24  C   UNL     1      -8.289  -8.912   9.681  0.00  0.00    +0.104 C 
ATOM     37  H   UNL     1      -6.864  -9.362  11.173  0.00  0.00    +0.149 HD
ENDBRANCH  10  18
ENDBRANCH  13  17
BRANCH   8   1
ATOM      1  S   UNL     1     -13.808  -6.799  13.676  0.00  0.00    +0.062 S 
ATOM      4  O   UNL     1     -14.448  -6.018  14.713  0.00  0.00    -0.153 OA
ATOM      5  O   UNL     1     -14.566  -7.740  12.879  0.00  0.00    -0.153 OA
BRANCH   1  22
ATOM      2  F   UNL     1     -11.130  -3.051   9.998  0.00  0.00    -0.205 F 
ATOM     22  C   UNL     1     -13.005  -5.677  12.574  0.00  0.00    +0.106 A 
ATOM     25  C   UNL     1     -12.757  -4.364  12.975  0.00  0.00    +0.031 A 
ATOM     26  C   UNL     1     -12.621  -6.103  11.303  0.00  0.00    +0.031 A 
ATOM     27  C   UNL     1     -12.124  -3.477  12.105  0.00  0.00    +0.040 A 
ATOM     28  C   UNL     1     -11.987  -5.216  10.433  0.00  0.00    +0.040 A 
ATOM     30  C   UNL     1     -11.739  -3.903  10.833  0.00  0.00    +0.124 A 
ENDBRANCH   1  22
ENDBRANCH   8   1
TORSDOF 5
ENDMDL
MODEL 5
REMARK VINA RESULT:      -6.6     24.239     26.483
REMARK  Name = 7674053
REMARK  5 active torsions:
REMARK  status: ('A' for Active; 'I' for Inactive)
REMARK    1  A    between atoms: S_1  and  N_8
REMARK    2  A    between atoms: S_1  and  C_22
REMARK    3  A    between atoms: N_10  and  C_18
REMARK    4  A    between atoms: N_12  and  C_29
REMARK    5  A    between atoms: C_13  and  C_17
REMARK                            x       y       z     vdW  Elec       q    Type
REMARK                         _______ _______ _______ _____ _____    ______ ____
ROOT
ATOM      6  O   UNL     1      16.215  -6.163  31.039  0.00  0.00    -0.252 OA
ATOM      8  N   UNL     1      18.125  -5.076  26.563  0.00  0.00    -0.162 NA
ATOM      9  N   UNL     1      16.639  -6.171  28.763  0.00  0.00    -0.282 N 
ATOM     12  N   UNL     1      14.482  -6.680  29.572  0.00  0.00    -0.269 N 
ATOM     13  C   UNL     1      18.574  -4.818  27.960  0.00  0.00    +0.183 C 
ATOM     14  C   UNL     1      18.055  -5.849  28.959  0.00  0.00    +0.139 C 
ATOM     15  C   UNL     1      17.357  -6.334  26.383  0.00  0.00    +0.129 C 
ATOM     16  C   UNL     1      16.200  -6.358  27.375  0.00  0.00    +0.126 C 
ATOM     21  C   UNL     1      15.798  -6.331  29.891  0.00  0.00    +0.307 C 
ATOM     38  H   UNL     1      14.232  -6.771  28.594  0.00  0.00    +0.156 HD
ENDROOT
BRANCH  12  29
ATOM     29  C   UNL     1      13.405  -6.911  30.464  0.00  0.00    +0.035 A 
ATOM     31  C   UNL     1      13.005  -8.217  30.750  0.00  0.00    +0.023 A 
ATOM     32  C   UNL     1      12.745  -5.835  31.056  0.00  0.00    +0.023 A 
ATOM     33  C   UNL     1      11.946  -8.446  31.628  0.00  0.00    +0.002 A 
ATOM     34  C   UNL     1      11.687  -6.064  31.934  0.00  0.00    +0.002 A 
ATOM     35  C   UNL     1      11.287  -7.370  32.220  0.00  0.00    +0.000 A 
ENDBRANCH  12  29
BRANCH  13  17
ATOM      3  O   UNL     1      17.361  -2.824  27.471  0.00  0.00    -0.274 OA
ATOM     10  N   UNL     1      18.451  -3.009  29.520  0.00  0.00    -0.303 N 
ATOM     17  C   UNL     1      18.049  -3.452  28.272  0.00  0.00    +0.234 C 
ATOM     36  H   UNL     1      18.995  -3.628  30.113  0.00  0.00    +0.149 HD
BRANCH  10  18
ATOM      7  O   UNL     1      20.317  -1.014  29.404  0.00  0.00    -0.274 OA
ATOM     11  N   UNL     1      19.385   0.042  31.203  0.00  0.00    -0.314 N 
ATOM     18  C   UNL     1      18.098  -1.716  30.048  0.00  0.00    +0.159 C 
ATOM     19  C   UNL     1      17.290  -1.856  31.331  0.00  0.00    +0.033 C 
ATOM     20  C   UNL     1      17.084  -0.486  31.955  0.00  0.00    +0.021 C 
ATOM     23  C   UNL     1      19.380  -0.904  30.199  0.00  0.00    +0.233 C 
ATOM     24  C   UNL     1      18.436   0.111  32.298  0.00  0.00    +0.104 C 
ATOM     37  H   UNL     1      20.212   0.628  31.276  0.00  0.00    +0.149 HD
ENDBRANCH  10  18
ENDBRANCH  13  17
BRANCH   8   1
ATOM      1  S   UNL     1      19.224  -4.679  25.316  0.00  0.00    +0.062 S 
ATOM      4  O   UNL     1      19.430  -5.842  24.479  0.00  0.00    -0.153 OA
ATOM      5  O   UNL     1      20.347  -3.965  25.886  0.00  0.00    -0.153 OA
BRANCH   1  22
ATOM      2  F   UNL     1      15.979  -0.816  22.269  0.00  0.00    -0.205 F 
ATOM     22  C   UNL     1      18.252  -3.522  24.403  0.00  0.00    +0.106 A 
ATOM     25  C   UNL     1      18.655  -2.190  24.315  0.00  0.00    +0.031 A 
ATOM     26  C   UNL     1      17.081  -3.941  23.771  0.00  0.00    +0.031 A 
ATOM     27  C   UNL     1      17.887  -1.275  23.594  0.00  0.00    +0.040 A 
ATOM     28  C   UNL     1      16.314  -3.027  23.049  0.00  0.00    +0.040 A 
ATOM     30  C   UNL     1      16.716  -1.694  22.961  0.00  0.00    +0.124 A 
ENDBRANCH   1  22
ENDBRANCH   8   1
TORSDOF 5
ENDMDL
MODEL 6
REMARK VINA RESULT:      -6.4      4.523      7.220
REMARK  Name = 7674053
REMARK  5 active torsions:
REMARK  status: ('A' for Active; 'I' for Inactive)
REMARK    1  A    between atoms: S_1  and  N_8
REMARK    2  A    between atoms: S_1  and  C_22
REMARK    3  A    between atoms: N_10  and  C_18
REMARK    4  A    between atoms: N_12  and  C_29
REMARK    5  A    between atoms: C_13  and  C_17
REMARK                            x       y       z     vdW  Elec       q    Type
REMARK                         _______ _______ _______ _____ _____    ______ ____
ROOT
ATOM      6  O   UNL     1       9.650   3.960   1.109  0.00  0.00    -0.252 OA
ATOM      8  N   UNL     1      11.309   7.510   4.191  0.00  0.00    -0.162 NA
ATOM      9  N   UNL     1      11.051   5.381   2.282  0.00  0.00    -0.282 N 
ATOM     12  N   UNL     1      11.645   4.644   0.122  0.00  0.00    -0.269 N 
ATOM     13  C   UNL     1      10.018   6.776   4.073  0.00  0.00    +0.183 C 
ATOM     14  C   UNL     1      10.170   5.389   3.453  0.00  0.00    +0.139 C 
ATOM     15  C   UNL     1      12.505   6.727   3.791  0.00  0.00    +0.129 C 
ATOM     16  C   UNL     1      12.287   6.164   2.393  0.00  0.00    +0.126 C 
ATOM     21  C   UNL     1      10.702   4.601   1.153  0.00  0.00    +0.307 C 
ATOM     38  H   UNL     1      12.468   5.222   0.246  0.00  0.00    +0.156 HD
ENDROOT
BRANCH  12  29
ATOM     29  C   UNL     1      11.593   3.980  -1.130  0.00  0.00    +0.035 A 
ATOM     31  C   UNL     1      10.761   4.463  -2.141  0.00  0.00    +0.023 A 
ATOM     32  C   UNL     1      12.371   2.844  -1.351  0.00  0.00    +0.023 A 
ATOM     33  C   UNL     1      10.709   3.812  -3.373  0.00  0.00    +0.002 A 
ATOM     34  C   UNL     1      12.319   2.193  -2.583  0.00  0.00    +0.002 A 
ATOM     35  C   UNL     1      11.488   2.676  -3.594  0.00  0.00    +0.000 A 
ENDBRANCH  12  29
BRANCH  13  17
ATOM      3  O   UNL     1       9.084   7.502   2.003  0.00  0.00    -0.274 OA
ATOM     10  N   UNL     1       8.531   8.644   3.955  0.00  0.00    -0.303 N 
ATOM     17  C   UNL     1       9.165   7.659   3.219  0.00  0.00    +0.234 C 
ATOM     36  H   UNL     1       8.645   8.660   4.964  0.00  0.00    +0.149 HD
BRANCH  10  18
ATOM      7  O   UNL     1       9.688  10.694   2.565  0.00  0.00    -0.274 OA
ATOM     11  N   UNL     1       7.906  12.062   2.983  0.00  0.00    -0.314 N 
ATOM     18  C   UNL     1       7.670   9.637   3.365  0.00  0.00    +0.159 C 
ATOM     19  C   UNL     1       6.514   9.976   4.296  0.00  0.00    +0.033 C 
ATOM     20  C   UNL     1       5.727  11.145   3.727  0.00  0.00    +0.021 C 
ATOM     23  C   UNL     1       8.531  10.832   2.971  0.00  0.00    +0.233 C 
ATOM     24  C   UNL     1       6.638  12.354   3.625  0.00  0.00    +0.104 C 
ATOM     37  H   UNL     1       8.453  12.857   2.668  0.00  0.00    +0.149 HD
ENDBRANCH  10  18
ENDBRANCH  13  17
BRANCH   8   1
ATOM      1  S   UNL     1      11.494   8.527   5.553  0.00  0.00    +0.062 S 
ATOM      4  O   UNL     1      10.702   9.724   5.361  0.00  0.00    -0.153 OA
ATOM      5  O   UNL     1      12.899   8.612   5.891  0.00  0.00    -0.153 OA
BRANCH   1  22
ATOM      2  F   UNL     1       8.832   5.244   9.661  0.00  0.00    -0.205 F 
ATOM     22  C   UNL     1      10.696   7.544   6.784  0.00  0.00    +0.106 A 
ATOM     25  C   UNL     1      11.304   6.376   7.244  0.00  0.00    +0.031 A 
ATOM     26  C   UNL     1       9.459   7.935   7.294  0.00  0.00    +0.031 A 
ATOM     27  C   UNL     1      10.674   5.599   8.216  0.00  0.00    +0.040 A 
ATOM     28  C   UNL     1       8.829   7.158   8.267  0.00  0.00    +0.040 A 
ATOM     30  C   UNL     1       9.437   5.990   8.727  0.00  0.00    +0.124 A 
ENDBRANCH   1  22
ENDBRANCH   8   1
TORSDOF 5
ENDMDL
MODEL 7
REMARK VINA RESULT:      -6.4     26.220     27.881
REMARK  Name = 7674053
REMARK  5 active torsions:
REMARK  status: ('A' for Active; 'I' for Inactive)
REMARK    1  A    between atoms: S_1  and  N_8
REMARK    2  A    between atoms: S_1  and  C_22
REMARK    3  A    between atoms: N_10  and  C_18
REMARK    4  A    between atoms: N_12  and  C_29
REMARK    5  A    between atoms: C_13  and  C_17
REMARK                            x       y       z     vdW  Elec       q    Type
REMARK                         _______ _______ _______ _____ _____    ______ ____
ROOT
ATOM      6  O   UNL     1      -5.223 -12.276  11.416  0.00  0.00    -0.252 OA
ATOM      8  N   UNL     1      -7.987  -9.365   8.458  0.00  0.00    -0.162 NA
ATOM      9  N   UNL     1      -6.598 -10.573  10.662  0.00  0.00    -0.282 N 
ATOM     12  N   UNL     1      -5.097 -10.189  12.440  0.00  0.00    -0.269 N 
ATOM     13  C   UNL     1      -7.459 -10.752   8.329  0.00  0.00    +0.183 C 
ATOM     14  C   UNL     1      -7.242 -11.442   9.673  0.00  0.00    +0.139 C 
ATOM     15  C   UNL     1      -8.306  -8.952   9.848  0.00  0.00    +0.129 C 
ATOM     16  C   UNL     1      -7.087  -9.191  10.730  0.00  0.00    +0.126 C 
ATOM     21  C   UNL     1      -5.600 -11.106  11.514  0.00  0.00    +0.307 C 
ATOM     38  H   UNL     1      -5.455  -9.241  12.424  0.00  0.00    +0.156 HD
ENDROOT
BRANCH  12  29
ATOM     29  C   UNL     1      -4.098 -10.407  13.423  0.00  0.00    +0.035 A 
ATOM     31  C   UNL     1      -4.466 -10.652  14.747  0.00  0.00    +0.023 A 
ATOM     32  C   UNL     1      -2.750 -10.378  13.068  0.00  0.00    +0.023 A 
ATOM     33  C   UNL     1      -3.485 -10.868  15.715  0.00  0.00    +0.002 A 
ATOM     34  C   UNL     1      -1.770 -10.594  14.036  0.00  0.00    +0.002 A 
ATOM     35  C   UNL     1      -2.137 -10.839  15.360  0.00  0.00    +0.000 A 
ENDBRANCH  12  29
BRANCH  13  17
ATOM      3  O   UNL     1      -5.510  -9.555   7.655  0.00  0.00    -0.274 OA
ATOM     10  N   UNL     1      -5.849 -11.710   6.842  0.00  0.00    -0.303 N 
ATOM     17  C   UNL     1      -6.168 -10.591   7.590  0.00  0.00    +0.234 C 
ATOM     36  H   UNL     1      -6.453 -12.525   6.888  0.00  0.00    +0.149 HD
BRANCH  10  18
ATOM      7  O   UNL     1      -6.088 -11.176   4.171  0.00  0.00    -0.274 OA
ATOM     11  N   UNL     1      -4.285 -12.492   3.686  0.00  0.00    -0.314 N 
ATOM     18  C   UNL     1      -4.668 -11.799   6.022  0.00  0.00    +0.159 C 
ATOM     19  C   UNL     1      -3.811 -12.989   6.432  0.00  0.00    +0.033 C 
ATOM     20  C   UNL     1      -2.670 -13.160   5.443  0.00  0.00    +0.021 C 
ATOM     23  C   UNL     1      -5.110 -11.816   4.562  0.00  0.00    +0.233 C 
ATOM     24  C   UNL     1      -3.244 -13.429   4.064  0.00  0.00    +0.104 C 
ATOM     37  H   UNL     1      -4.538 -12.462   2.703  0.00  0.00    +0.149 HD
ENDBRANCH  10  18
ENDBRANCH  13  17
BRANCH   8   1
ATOM      1  S   UNL     1      -9.073  -8.840   7.247  0.00  0.00    +0.062 S 
ATOM      4  O   UNL     1     -10.262  -9.664   7.288  0.00  0.00    -0.153 OA
ATOM      5  O   UNL     1      -8.344  -8.646   6.012  0.00  0.00    -0.153 OA
BRANCH   1  22
ATOM      2  F   UNL     1     -10.495  -3.527   9.368  0.00  0.00    -0.205 F 
ATOM     22  C   UNL     1      -9.498  -7.248   7.883  0.00  0.00    +0.106 A 
ATOM     25  C   UNL     1     -10.808  -6.987   8.288  0.00  0.00    +0.031 A 
ATOM     26  C   UNL     1      -8.527  -6.253   7.978  0.00  0.00    +0.031 A 
ATOM     27  C   UNL     1     -11.145  -5.730   8.789  0.00  0.00    +0.040 A 
ATOM     28  C   UNL     1      -8.863  -4.996   8.481  0.00  0.00    +0.040 A 
ATOM     30  C   UNL     1     -10.172  -4.734   8.886  0.00  0.00    +0.124 A 
ENDBRANCH   1  22
ENDBRANCH   8   1
TORSDOF 5
ENDMDL
MODEL 8
REMARK VINA RESULT:      -6.4      3.622      6.292
REMARK  Name = 7674053
REMARK  5 active torsions:
REMARK  status: ('A' for Active; 'I' for Inactive)
REMARK    1  A    between atoms: S_1  and  N_8
REMARK    2  A    between atoms: S_1  and  C_22
REMARK    3  A    between atoms: N_10  and  C_18
REMARK    4  A    between atoms: N_12  and  C_29
REMARK    5  A    between atoms: C_13  and  C_17
REMARK                            x       y       z     vdW  Elec       q    Type
REMARK                         _______ _______ _______ _____ _____    ______ ____
ROOT
ATOM      6  O   UNL     1      15.509   8.112   6.478  0.00  0.00    -0.252 OA
ATOM      8  N   UNL     1      10.544   7.822   6.127  0.00  0.00    -0.162 NA
ATOM      9  N   UNL     1      13.252   8.565   6.726  0.00  0.00    -0.282 N 
ATOM     12  N   UNL     1      14.821  10.326   6.700  0.00  0.00    -0.269 N 
ATOM     13  C   UNL     1      11.648   6.852   5.882  0.00  0.00    +0.183 C 
ATOM     14  C   UNL     1      12.898   7.143   6.708  0.00  0.00    +0.139 C 
ATOM     15  C   UNL     1      10.819   8.815   7.197  0.00  0.00    +0.129 C 
ATOM     16  C   UNL     1      12.142   9.509   6.903  0.00  0.00    +0.126 C 
ATOM     21  C   UNL     1      14.612   8.946   6.626  0.00  0.00    +0.307 C 
ATOM     38  H   UNL     1      14.014  10.930   6.798  0.00  0.00    +0.156 HD
ENDROOT
BRANCH  12  29
ATOM     29  C   UNL     1      16.054  11.022   6.633  0.00  0.00    +0.035 A 
ATOM     31  C   UNL     1      16.489  11.777   7.722  0.00  0.00    +0.023 A 
ATOM     32  C   UNL     1      16.834  10.951   5.478  0.00  0.00    +0.023 A 
ATOM     33  C   UNL     1      17.702  12.462   7.658  0.00  0.00    +0.002 A 
ATOM     34  C   UNL     1      18.047  11.636   5.414  0.00  0.00    +0.002 A 
ATOM     35  C   UNL     1      18.481  12.391   6.504  0.00  0.00    +0.000 A 
ENDBRANCH  12  29
BRANCH  13  17
ATOM      3  O   UNL     1      11.887   8.053   3.836  0.00  0.00    -0.274 OA
ATOM     10  N   UNL     1      12.201   5.745   3.836  0.00  0.00    -0.303 N 
ATOM     17  C   UNL     1      11.927   6.971   4.418  0.00  0.00    +0.234 C 
ATOM     36  H   UNL     1      12.238   4.917   4.421  0.00  0.00    +0.149 HD
BRANCH  10  18
ATOM      7  O   UNL     1      11.244   3.517   2.574  0.00  0.00    -0.274 OA
ATOM     11  N   UNL     1      12.908   3.615   1.012  0.00  0.00    -0.314 N 
ATOM     18  C   UNL     1      12.481   5.586   2.432  0.00  0.00    +0.159 C 
ATOM     19  C   UNL     1      13.902   6.028   2.108  0.00  0.00    +0.033 C 
ATOM     20  C   UNL     1      14.226   5.685   0.664  0.00  0.00    +0.021 C 
ATOM     23  C   UNL     1      12.171   4.142   2.052  0.00  0.00    +0.233 C 
ATOM     24  C   UNL     1      14.132   4.182   0.478  0.00  0.00    +0.104 C 
ATOM     37  H   UNL     1      12.671   2.674   0.712  0.00  0.00    +0.149 HD
ENDBRANCH  10  18
ENDBRANCH  13  17
BRANCH   8   1
ATOM      1  S   UNL     1       8.950   7.207   6.061  0.00  0.00    +0.062 S 
ATOM      4  O   UNL     1       8.248   7.581   7.270  0.00  0.00    -0.153 OA
ATOM      5  O   UNL     1       8.995   5.828   5.624  0.00  0.00    -0.153 OA
BRANCH   1  22
ATOM      2  F   UNL     1       6.777  10.443   1.639  0.00  0.00    -0.205 F 
ATOM     22  C   UNL     1       8.299   8.177   4.737  0.00  0.00    +0.106 A 
ATOM     25  C   UNL     1       8.549   7.808   3.415  0.00  0.00    +0.031 A 
ATOM     26  C   UNL     1       7.535   9.310   5.013  0.00  0.00    +0.031 A 
ATOM     27  C   UNL     1       8.035   8.574   2.369  0.00  0.00    +0.040 A 
ATOM     28  C   UNL     1       7.021  10.076   3.966  0.00  0.00    +0.040 A 
ATOM     30  C   UNL     1       7.271   9.708   2.644  0.00  0.00    +0.124 A 
ENDBRANCH   1  22
ENDBRANCH   8   1
TORSDOF 5
ENDMDL
MODEL 9
REMARK VINA RESULT:      -6.4     27.833     31.682
REMARK  Name = 7674053
REMARK  5 active torsions:
REMARK  status: ('A' for Active; 'I' for Inactive)
REMARK    1  A    between atoms: S_1  and  N_8
REMARK    2  A    between atoms: S_1  and  C_22
REMARK    3  A    between atoms: N_10  and  C_18
REMARK    4  A    between atoms: N_12  and  C_29
REMARK    5  A    between atoms: C_13  and  C_17
REMARK                            x       y       z     vdW  Elec       q    Type
REMARK                         _______ _______ _______ _____ _____    ______ ____
ROOT
ATOM      6  O   UNL     1     -11.261 -10.549  15.700  0.00  0.00    -0.252 OA
ATOM      8  N   UNL     1      -6.606 -11.183  17.368  0.00  0.00    -0.162 NA
ATOM      9  N   UNL     1      -8.964 -10.391  15.933  0.00  0.00    -0.282 N 
ATOM     12  N   UNL     1     -10.203  -8.556  15.122  0.00  0.00    -0.269 N 
ATOM     13  C   UNL     1      -7.874 -11.941  17.555  0.00  0.00    +0.183 C 
ATOM     14  C   UNL     1      -8.849 -11.779  16.392  0.00  0.00    +0.139 C 
ATOM     15  C   UNL     1      -6.478 -10.506  16.053  0.00  0.00    +0.129 C 
ATOM     16  C   UNL     1      -7.708  -9.639  15.818  0.00  0.00    +0.126 C 
ATOM     21  C   UNL     1     -10.235  -9.875  15.585  0.00  0.00    +0.307 C 
ATOM     38  H   UNL     1      -9.310  -8.079  15.087  0.00  0.00    +0.156 HD
ENDROOT
BRANCH  12  29
ATOM     29  C   UNL     1     -11.296  -7.759  14.698  0.00  0.00    +0.035 A 
ATOM     31  C   UNL     1     -11.927  -8.031  13.483  0.00  0.00    +0.023 A 
ATOM     32  C   UNL     1     -11.742  -6.705  15.494  0.00  0.00    +0.023 A 
ATOM     33  C   UNL     1     -13.003  -7.248  13.065  0.00  0.00    +0.002 A 
ATOM     34  C   UNL     1     -12.818  -5.922  15.076  0.00  0.00    +0.002 A 
ATOM     35  C   UNL     1     -13.449  -6.194  13.861  0.00  0.00    +0.000 A 
ENDBRANCH  12  29
BRANCH  13  17
ATOM      3  O   UNL     1      -7.740 -10.912  19.701  0.00  0.00    -0.274 OA
ATOM     10  N   UNL     1      -9.827 -11.528  18.872  0.00  0.00    -0.303 N 
ATOM     17  C   UNL     1      -8.450 -11.395  18.823  0.00  0.00    +0.234 C 
ATOM     36  H   UNL     1     -10.316 -11.916  18.072  0.00  0.00    +0.149 HD
BRANCH  10  18
ATOM      7  O   UNL     1     -10.527 -13.396  20.742  0.00  0.00    -0.274 OA
ATOM     11  N   UNL     1     -12.380 -12.195  21.333  0.00  0.00    -0.314 N 
ATOM     18  C   UNL     1     -10.619 -11.101  19.997  0.00  0.00    +0.159 C 
ATOM     19  C   UNL     1     -11.682 -10.100  19.563  0.00  0.00    +0.033 C 
ATOM     20  C   UNL     1     -12.608  -9.803  20.730  0.00  0.00    +0.021 C 
ATOM     23  C   UNL     1     -11.172 -12.346  20.683  0.00  0.00    +0.233 C 
ATOM     24  C   UNL     1     -13.297 -11.086  21.156  0.00  0.00    +0.104 C 
ATOM     37  H   UNL     1     -12.730 -13.002  21.841  0.00  0.00    +0.149 HD
ENDBRANCH  10  18
ENDBRANCH  13  17
BRANCH   8   1
ATOM      1  S   UNL     1      -5.183 -11.899  17.990  0.00  0.00    +0.062 S 
ATOM      4  O   UNL     1      -5.438 -13.296  18.267  0.00  0.00    -0.153 OA
ATOM      5  O   UNL     1      -4.621 -11.030  19.002  0.00  0.00    -0.153 OA
BRANCH   1  22
ATOM      2  F   UNL     1      -1.719 -11.615  13.229  0.00  0.00    -0.205 F 
ATOM     22  C   UNL     1      -4.145 -11.813  16.564  0.00  0.00    +0.106 A 
ATOM     25  C   UNL     1      -4.269 -12.767  15.553  0.00  0.00    +0.031 A 
ATOM     26  C   UNL     1      -3.202 -10.793  16.448  0.00  0.00    +0.031 A 
ATOM     27  C   UNL     1      -3.450 -12.700  14.427  0.00  0.00    +0.040 A 
ATOM     28  C   UNL     1      -2.382 -10.725  15.321  0.00  0.00    +0.040 A 
ATOM     30  C   UNL     1      -2.506 -11.679  14.311  0.00  0.00    +0.124 A 
ENDBRANCH   1  22
ENDBRANCH   8   1
TORSDOF 5
ENDMDL
MODEL 10
REMARK VINA RESULT:      -6.2     25.676     28.545
REMARK  Name = 7674053
REMARK  5 active torsions:
REMARK  status: ('A' for Active; 'I' for Inactive)
REMARK    1  A    between atoms: S_1  and  N_8
REMARK    2  A    between atoms: S_1  and  C_22
REMARK    3  A    between atoms: N_10  and  C_18
REMARK    4  A    between atoms: N_12  and  C_29
REMARK    5  A    between atoms: C_13  and  C_17
REMARK                            x       y       z     vdW  Elec       q    Type
REMARK                         _______ _______ _______ _____ _____    ______ ____
ROOT
ATOM      6  O   UNL     1     -11.497  -8.419   8.760  0.00  0.00    -0.252 OA
ATOM      8  N   UNL     1      -6.907 -10.290   8.217  0.00  0.00    -0.162 NA
ATOM      9  N   UNL     1      -9.240  -8.616   8.287  0.00  0.00    -0.282 N 
ATOM     12  N   UNL     1     -10.119  -6.564   9.047  0.00  0.00    -0.269 N 
ATOM     13  C   UNL     1      -8.256 -10.906   8.360  0.00  0.00    +0.183 C 
ATOM     14  C   UNL     1      -9.384 -10.009   7.857  0.00  0.00    +0.139 C 
ATOM     15  C   UNL     1      -6.897  -8.979   7.520  0.00  0.00    +0.129 C 
ATOM     16  C   UNL     1      -7.890  -8.045   8.201  0.00  0.00    +0.126 C 
ATOM     21  C   UNL     1     -10.383  -7.893   8.705  0.00  0.00    +0.307 C 
ATOM     38  H   UNL     1      -9.163  -6.233   8.991  0.00  0.00    +0.156 HD
ENDROOT
BRANCH  12  29
ATOM     29  C   UNL     1     -11.040  -5.585   9.500  0.00  0.00    +0.035 A 
ATOM     31  C   UNL     1     -11.239  -4.420   8.759  0.00  0.00    +0.023 A 
ATOM     32  C   UNL     1     -11.748  -5.787  10.684  0.00  0.00    +0.023 A 
ATOM     33  C   UNL     1     -12.145  -3.457   9.202  0.00  0.00    +0.002 A 
ATOM     34  C   UNL     1     -12.654  -4.824  11.128  0.00  0.00    +0.002 A 
ATOM     35  C   UNL     1     -12.852  -3.659  10.387  0.00  0.00    +0.000 A 
ENDBRANCH  12  29
BRANCH  13  17
ATOM      3  O   UNL     1      -9.398 -11.688  10.302  0.00  0.00    -0.274 OA
ATOM     10  N   UNL     1      -7.279 -10.751  10.537  0.00  0.00    -0.303 N 
ATOM     17  C   UNL     1      -8.389 -11.172   9.826  0.00  0.00    +0.234 C 
ATOM     36  H   UNL     1      -6.486 -10.365  10.034  0.00  0.00    +0.149 HD
BRANCH  10  18
ATOM      7  O   UNL     1      -6.234  -8.646  11.934  0.00  0.00    -0.274 OA
ATOM     11  N   UNL     1      -5.532 -10.031  13.610  0.00  0.00    -0.314 N 
ATOM     18  C   UNL     1      -7.168 -10.873  11.968  0.00  0.00    +0.159 C 
ATOM     19  C   UNL     1      -6.722 -12.275  12.361  0.00  0.00    +0.033 C 
ATOM     20  C   UNL     1      -6.445 -12.322  13.854  0.00  0.00    +0.021 C 
ATOM     23  C   UNL     1      -6.251  -9.760  12.465  0.00  0.00    +0.233 C 
ATOM     24  C   UNL     1      -5.328 -11.348  14.183  0.00  0.00    +0.104 C 
ATOM     37  H   UNL     1      -4.961  -9.278  13.983  0.00  0.00    +0.149 HD
ENDBRANCH  10  18
ENDBRANCH  13  17
BRANCH   8   1
ATOM      1  S   UNL     1      -5.612 -11.346   7.856  0.00  0.00    +0.062 S 
ATOM      4  O   UNL     1      -5.028 -10.962   6.589  0.00  0.00    -0.153 OA
ATOM      5  O   UNL     1      -6.035 -12.709   8.097  0.00  0.00    -0.153 OA
BRANCH   1  22
ATOM      2  F   UNL     1      -1.828  -9.836  12.115  0.00  0.00    -0.205 F 
ATOM     22  C   UNL     1      -4.479 -10.894   9.132  0.00  0.00    +0.106 A 
ATOM     25  C   UNL     1      -4.066  -9.568   9.260  0.00  0.00    +0.031 A 
ATOM     26  C   UNL     1      -3.996 -11.863  10.011  0.00  0.00    +0.031 A 
ATOM     27  C   UNL     1      -3.170  -9.210  10.267  0.00  0.00    +0.040 A 
ATOM     28  C   UNL     1      -3.101 -11.506  11.019  0.00  0.00    +0.040 A 
ATOM     30  C   UNL     1      -2.687 -10.180  11.147  0.00  0.00    +0.124 A 
ENDBRANCH   1  22
ENDBRANCH   8   1
TORSDOF 5
ENDMDL
