MODEL 1
REMARK VINA RESULT:      -6.9      0.000      0.000
REMARK  Name = 75536570
REMARK  7 active torsions:
REMARK  status: ('A' for Active; 'I' for Inactive)
REMARK    1  A    between atoms: O_3  and  C_8
REMARK    2  A    between atoms: N_5  and  C_16
REMARK    3  A    between atoms: N_6  and  C_9
REMARK    4  A    between atoms: N_6  and  C_18
REMARK    5  A    between atoms: C_7  and  C_16
REMARK    6  A    between atoms: C_10  and  C_17
REMARK    7  A    between atoms: C_18  and  C_19
REMARK                            x       y       z     vdW  Elec       q    Type
REMARK                         _______ _______ _______ _____ _____    ______ ____
ROOT
ATOM      2  O   UNL     1      10.683   8.665  19.984  0.00  0.00    -0.371 OA
ATOM      7  C   UNL     1      10.869   7.722  21.052  0.00  0.00    +0.165 C 
ATOM      8  C   UNL     1      12.292   7.198  20.908  0.00  0.00    +0.164 C 
ATOM      9  C   UNL     1      12.447   7.185  19.398  0.00  0.00    +0.111 C 
ATOM     15  C   UNL     1      11.724   8.465  19.011  0.00  0.00    +0.181 C 
ENDROOT
BRANCH   8   3
ATOM      3  O   UNL     1      12.442   5.915  21.483  0.00  0.00    -0.388 OA
ATOM     27  H   UNL     1      11.591   5.448  21.416  0.00  0.00    +0.210 HD
ENDBRANCH   8   3
BRANCH   9   6
ATOM      6  N   UNL     1      13.831   7.160  18.954  0.00  0.00    -0.305 NA
ATOM     26  H   UNL     1      13.896   7.619  18.045  0.00  0.00    +0.123 HD
BRANCH   6  18
ATOM     18  C   UNL     1      14.699   7.852  19.897  0.00  0.00    +0.119 C 
BRANCH  18  19
ATOM      1  F   UNL     1      16.561   8.454  21.945  0.00  0.00    -0.205 F 
ATOM     19  C   UNL     1      16.055   7.205  19.992  0.00  0.00    +0.002 A 
ATOM     20  C   UNL     1      16.923   7.548  21.027  0.00  0.00    +0.128 A 
ATOM     21  C   UNL     1      16.441   6.259  19.042  0.00  0.00    +0.008 A 
ATOM     22  C   UNL     1      18.179   6.945  21.113  0.00  0.00    +0.038 A 
ATOM     23  C   UNL     1      17.695   5.656  19.128  0.00  0.00    +0.000 A 
ATOM     24  C   UNL     1      18.564   5.999  20.163  0.00  0.00    +0.003 A 
ENDBRANCH  18  19
ENDBRANCH   6  18
ENDBRANCH   9   6
BRANCH   7  16
ATOM     16  C   UNL     1      10.612   8.400  22.386  0.00  0.00    +0.138 C 
BRANCH  16   5
ATOM      4  O   UNL     1      10.986  11.271  22.166  0.00  0.00    -0.276 OA
ATOM      5  N   UNL     1      11.749   9.166  22.810  0.00  0.00    -0.313 N 
ATOM     17  C   UNL     1      11.842  10.545  22.664  0.00  0.00    +0.216 C 
ATOM     25  H   UNL     1      12.518   8.662  23.240  0.00  0.00    +0.149 HD
BRANCH  17  10
ATOM     10  C   UNL     1      13.124  11.096  23.212  0.00  0.00    +0.075 C 
ATOM     11  C   UNL     1      13.077  12.628  23.234  0.00  0.00    +0.013 C 
ATOM     12  C   UNL     1      14.302  10.718  22.313  0.00  0.00    +0.013 C 
ATOM     13  C   UNL     1      14.287  13.094  22.432  0.00  0.00    +0.001 C 
ATOM     14  C   UNL     1      14.551  11.955  21.464  0.00  0.00    +0.001 C 
ENDBRANCH  17  10
ENDBRANCH  16   5
ENDBRANCH   7  16
TORSDOF 7
ENDMDL
MODEL 2
REMARK VINA RESULT:      -6.9      1.526      1.990
REMARK  Name = 75536570
REMARK  7 active torsions:
REMARK  status: ('A' for Active; 'I' for Inactive)
REMARK    1  A    between atoms: O_3  and  C_8
REMARK    2  A    between atoms: N_5  and  C_16
REMARK    3  A    between atoms: N_6  and  C_9
REMARK    4  A    between atoms: N_6  and  C_18
REMARK    5  A    between atoms: C_7  and  C_16
REMARK    6  A    between atoms: C_10  and  C_17
REMARK    7  A    between atoms: C_18  and  C_19
REMARK                            x       y       z     vdW  Elec       q    Type
REMARK                         _______ _______ _______ _____ _____    ______ ____
ROOT
ATOM      2  O   UNL     1      11.349   8.882  20.210  0.00  0.00    -0.371 OA
ATOM      7  C   UNL     1      10.935   7.877  21.150  0.00  0.00    +0.165 C 
ATOM      8  C   UNL     1      12.086   6.884  21.238  0.00  0.00    +0.164 C 
ATOM      9  C   UNL     1      12.597   6.902  19.809  0.00  0.00    +0.111 C 
ATOM     15  C   UNL     1      12.468   8.376  19.462  0.00  0.00    +0.181 C 
ENDROOT
BRANCH   8   3
ATOM      3  O   UNL     1      11.648   5.603  21.645  0.00  0.00    -0.388 OA
ATOM     27  H   UNL     1      12.427   5.026  21.730  0.00  0.00    +0.210 HD
ENDBRANCH   8   3
BRANCH   9   6
ATOM      6  N   UNL     1      13.956   6.404  19.669  0.00  0.00    -0.305 NA
ATOM     26  H   UNL     1      13.970   5.673  18.957  0.00  0.00    +0.123 HD
BRANCH   6  18
ATOM     18  C   UNL     1      14.868   7.469  19.271  0.00  0.00    +0.119 C 
BRANCH  18  19
ATOM      1  F   UNL     1      16.678   5.466  18.416  0.00  0.00    -0.205 F 
ATOM     19  C   UNL     1      16.237   7.289  19.870  0.00  0.00    +0.002 A 
ATOM     20  C   UNL     1      17.079   6.281  19.401  0.00  0.00    +0.128 A 
ATOM     21  C   UNL     1      16.664   8.133  20.895  0.00  0.00    +0.008 A 
ATOM     22  C   UNL     1      18.348   6.117  19.958  0.00  0.00    +0.038 A 
ATOM     23  C   UNL     1      17.932   7.970  21.451  0.00  0.00    +0.000 A 
ATOM     24  C   UNL     1      18.774   6.962  20.982  0.00  0.00    +0.003 A 
ENDBRANCH  18  19
ENDBRANCH   6  18
ENDBRANCH   9   6
BRANCH   7  16
ATOM     16  C   UNL     1      10.599   8.526  22.481  0.00  0.00    +0.138 C 
BRANCH  16   5
ATOM      4  O   UNL     1      11.115  10.399  24.639  0.00  0.00    -0.276 OA
ATOM      5  N   UNL     1      10.667   9.956  22.396  0.00  0.00    -0.313 N 
ATOM     17  C   UNL     1      10.921  10.779  23.488  0.00  0.00    +0.216 C 
ATOM     25  H   UNL     1      10.523  10.379  21.484  0.00  0.00    +0.149 HD
BRANCH  17  10
ATOM     10  C   UNL     1      10.961  12.231  23.118  0.00  0.00    +0.075 C 
ATOM     11  C   UNL     1      11.298  12.391  21.631  0.00  0.00    +0.013 C 
ATOM     12  C   UNL     1      12.069  12.953  23.887  0.00  0.00    +0.013 C 
ATOM     13  C   UNL     1      12.532  13.285  21.577  0.00  0.00    +0.001 C 
ATOM     14  C   UNL     1      13.227  13.039  22.904  0.00  0.00    +0.001 C 
ENDBRANCH  17  10
ENDBRANCH  16   5
ENDBRANCH   7  16
TORSDOF 7
ENDMDL
MODEL 3
REMARK VINA RESULT:      -6.3      3.515      7.767
REMARK  Name = 75536570
REMARK  7 active torsions:
REMARK  status: ('A' for Active; 'I' for Inactive)
REMARK    1  A    between atoms: O_3  and  C_8
REMARK    2  A    between atoms: N_5  and  C_16
REMARK    3  A    between atoms: N_6  and  C_9
REMARK    4  A    between atoms: N_6  and  C_18
REMARK    5  A    between atoms: C_7  and  C_16
REMARK    6  A    between atoms: C_10  and  C_17
REMARK    7  A    between atoms: C_18  and  C_19
REMARK                            x       y       z     vdW  Elec       q    Type
REMARK                         _______ _______ _______ _____ _____    ______ ____
ROOT
ATOM      2  O   UNL     1      17.705   6.709  19.766  0.00  0.00    -0.371 OA
ATOM      7  C   UNL     1      17.457   7.802  20.665  0.00  0.00    +0.165 C 
ATOM      8  C   UNL     1      16.029   7.620  21.163  0.00  0.00    +0.164 C 
ATOM      9  C   UNL     1      15.359   7.046  19.929  0.00  0.00    +0.111 C 
ATOM     15  C   UNL     1      16.445   6.121  19.402  0.00  0.00    +0.181 C 
ENDROOT
BRANCH   8   3
ATOM      3  O   UNL     1      15.454   8.845  21.576  0.00  0.00    -0.388 OA
ATOM     27  H   UNL     1      15.123   9.308  20.787  0.00  0.00    +0.210 HD
ENDBRANCH   8   3
BRANCH   9   6
ATOM      6  N   UNL     1      14.112   6.354  20.210  0.00  0.00    -0.305 NA
ATOM     26  H   UNL     1      13.952   6.353  21.218  0.00  0.00    +0.123 HD
BRANCH   6  18
ATOM     18  C   UNL     1      12.988   7.008  19.554  0.00  0.00    +0.119 C 
BRANCH  18  19
ATOM      1  F   UNL     1      11.236   5.792  21.417  0.00  0.00    -0.205 F 
ATOM     19  C   UNL     1      12.149   7.793  20.526  0.00  0.00    +0.002 A 
ATOM     20  C   UNL     1      11.307   7.131  21.418  0.00  0.00    +0.128 A 
ATOM     21  C   UNL     1      12.217   9.186  20.536  0.00  0.00    +0.008 A 
ATOM     22  C   UNL     1      10.531   7.861  22.319  0.00  0.00    +0.038 A 
ATOM     23  C   UNL     1      11.443   9.917  21.437  0.00  0.00    +0.000 A 
ATOM     24  C   UNL     1      10.600   9.253  22.329  0.00  0.00    +0.003 A 
ENDBRANCH  18  19
ENDBRANCH   6  18
ENDBRANCH   9   6
BRANCH   7  16
ATOM     16  C   UNL     1      18.487   7.794  21.781  0.00  0.00    +0.138 C 
BRANCH  16   5
ATOM      4  O   UNL     1      20.199   6.171  23.472  0.00  0.00    -0.276 OA
ATOM      5  N   UNL     1      19.669   7.079  21.393  0.00  0.00    -0.313 N 
ATOM     17  C   UNL     1      20.431   6.322  22.276  0.00  0.00    +0.216 C 
ATOM     25  H   UNL     1      19.951   7.134  20.419  0.00  0.00    +0.149 HD
BRANCH  17  10
ATOM     10  C   UNL     1      21.598   5.660  21.607  0.00  0.00    +0.075 C 
ATOM     11  C   UNL     1      21.116   4.516  20.708  0.00  0.00    +0.013 C 
ATOM     12  C   UNL     1      22.527   5.026  22.644  0.00  0.00    +0.013 C 
ATOM     13  C   UNL     1      21.856   3.271  21.185  0.00  0.00    +0.001 C 
ATOM     14  C   UNL     1      22.151   3.552  22.647  0.00  0.00    +0.001 C 
ENDBRANCH  17  10
ENDBRANCH  16   5
ENDBRANCH   7  16
TORSDOF 7
ENDMDL
MODEL 4
REMARK VINA RESULT:      -6.1     25.998     29.120
REMARK  Name = 75536570
REMARK  7 active torsions:
REMARK  status: ('A' for Active; 'I' for Inactive)
REMARK    1  A    between atoms: O_3  and  C_8
REMARK    2  A    between atoms: N_5  and  C_16
REMARK    3  A    between atoms: N_6  and  C_9
REMARK    4  A    between atoms: N_6  and  C_18
REMARK    5  A    between atoms: C_7  and  C_16
REMARK    6  A    between atoms: C_10  and  C_17
REMARK    7  A    between atoms: C_18  and  C_19
REMARK                            x       y       z     vdW  Elec       q    Type
REMARK                         _______ _______ _______ _____ _____    ______ ____
ROOT
ATOM      2  O   UNL     1     -15.873   6.560  23.096  0.00  0.00    -0.371 OA
ATOM      7  C   UNL     1     -14.577   6.332  22.520  0.00  0.00    +0.165 C 
ATOM      8  C   UNL     1     -14.338   4.831  22.603  0.00  0.00    +0.164 C 
ATOM      9  C   UNL     1     -15.027   4.497  23.913  0.00  0.00    +0.111 C 
ATOM     15  C   UNL     1     -16.253   5.393  23.844  0.00  0.00    +0.181 C 
ENDROOT
BRANCH   8   3
ATOM      3  O   UNL     1     -12.960   4.515  22.615  0.00  0.00    -0.388 OA
ATOM     27  H   UNL     1     -12.671   4.368  21.697  0.00  0.00    +0.210 HD
ENDBRANCH   8   3
BRANCH   9   6
ATOM      6  N   UNL     1     -15.361   3.089  24.056  0.00  0.00    -0.305 NA
ATOM     26  H   UNL     1     -14.636   2.630  24.608  0.00  0.00    +0.123 HD
BRANCH   6  18
ATOM     18  C   UNL     1     -16.644   2.918  24.725  0.00  0.00    +0.119 C 
BRANCH  18  19
ATOM      1  F   UNL     1     -16.750   0.265  25.710  0.00  0.00    -0.205 F 
ATOM     19  C   UNL     1     -16.476   2.575  26.181  0.00  0.00    +0.002 A 
ATOM     20  C   UNL     1     -16.540   1.246  26.599  0.00  0.00    +0.128 A 
ATOM     21  C   UNL     1     -16.256   3.589  27.113  0.00  0.00    +0.008 A 
ATOM     22  C   UNL     1     -16.383   0.931  27.949  0.00  0.00    +0.038 A 
ATOM     23  C   UNL     1     -16.098   3.274  28.463  0.00  0.00    +0.000 A 
ATOM     24  C   UNL     1     -16.162   1.945  28.880  0.00  0.00    +0.003 A 
ENDBRANCH  18  19
ENDBRANCH   6  18
ENDBRANCH   9   6
BRANCH   7  16
ATOM     16  C   UNL     1     -14.545   6.867  21.099  0.00  0.00    +0.138 C 
BRANCH  16   5
ATOM      4  O   UNL     1     -13.168   9.289  20.282  0.00  0.00    -0.276 OA
ATOM      5  N   UNL     1     -13.199   6.983  20.616  0.00  0.00    -0.313 N 
ATOM     17  C   UNL     1     -12.619   8.191  20.245  0.00  0.00    +0.216 C 
ATOM     25  H   UNL     1     -12.651   6.131  20.548  0.00  0.00    +0.149 HD
BRANCH  17  10
ATOM     10  C   UNL     1     -11.196   8.033  19.800  0.00  0.00    +0.075 C 
ATOM     11  C   UNL     1     -10.553   9.407  19.581  0.00  0.00    +0.013 C 
ATOM     12  C   UNL     1     -11.128   7.310  18.454  0.00  0.00    +0.013 C 
ATOM     13  C   UNL     1     -10.041   9.403  18.145  0.00  0.00    +0.001 C 
ATOM     14  C   UNL     1     -10.950   8.421  17.429  0.00  0.00    +0.001 C 
ENDBRANCH  17  10
ENDBRANCH  16   5
ENDBRANCH   7  16
TORSDOF 7
ENDMDL
MODEL 5
REMARK VINA RESULT:      -5.9      2.326      6.070
REMARK  Name = 75536570
REMARK  7 active torsions:
REMARK  status: ('A' for Active; 'I' for Inactive)
REMARK    1  A    between atoms: O_3  and  C_8
REMARK    2  A    between atoms: N_5  and  C_16
REMARK    3  A    between atoms: N_6  and  C_9
REMARK    4  A    between atoms: N_6  and  C_18
REMARK    5  A    between atoms: C_7  and  C_16
REMARK    6  A    between atoms: C_10  and  C_17
REMARK    7  A    between atoms: C_18  and  C_19
REMARK                            x       y       z     vdW  Elec       q    Type
REMARK                         _______ _______ _______ _____ _____    ______ ____
ROOT
ATOM      2  O   UNL     1      14.383  13.048  21.809  0.00  0.00    -0.371 OA
ATOM      7  C   UNL     1      15.199  12.056  22.453  0.00  0.00    +0.165 C 
ATOM      8  C   UNL     1      14.234  11.030  23.032  0.00  0.00    +0.164 C 
ATOM      9  C   UNL     1      13.070  11.917  23.433  0.00  0.00    +0.111 C 
ATOM     15  C   UNL     1      13.031  12.903  22.276  0.00  0.00    +0.181 C 
ENDROOT
BRANCH   8   3
ATOM      3  O   UNL     1      14.796  10.338  24.129  0.00  0.00    -0.388 OA
ATOM     27  H   UNL     1      14.376   9.461  24.186  0.00  0.00    +0.210 HD
ENDBRANCH   8   3
BRANCH   9   6
ATOM      6  N   UNL     1      11.819  11.197  23.606  0.00  0.00    -0.305 NA
ATOM     26  H   UNL     1      11.228  11.711  24.260  0.00  0.00    +0.123 HD
BRANCH   6  18
ATOM     18  C   UNL     1      11.113  11.058  22.339  0.00  0.00    +0.119 C 
BRANCH  18  19
ATOM      1  F   UNL     1      12.490  10.503  19.927  0.00  0.00    -0.205 F 
ATOM     19  C   UNL     1      11.248   9.671  21.771  0.00  0.00    +0.002 A 
ATOM     20  C   UNL     1      11.940   9.468  20.577  0.00  0.00    +0.128 A 
ATOM     21  C   UNL     1      10.681   8.587  22.440  0.00  0.00    +0.008 A 
ATOM     22  C   UNL     1      12.065   8.181  20.053  0.00  0.00    +0.038 A 
ATOM     23  C   UNL     1      10.806   7.300  21.917  0.00  0.00    +0.000 A 
ATOM     24  C   UNL     1      11.498   7.098  20.723  0.00  0.00    +0.003 A 
ENDBRANCH  18  19
ENDBRANCH   6  18
ENDBRANCH   9   6
BRANCH   7  16
ATOM     16  C   UNL     1      16.174  11.463  21.450  0.00  0.00    +0.138 C 
BRANCH  16   5
ATOM      4  O   UNL     1      15.420   9.328  19.634  0.00  0.00    -0.276 OA
ATOM      5  N   UNL     1      16.334  10.052  21.650  0.00  0.00    -0.313 N 
ATOM     17  C   UNL     1      15.942   9.096  20.720  0.00  0.00    +0.216 C 
ATOM     25  H   UNL     1      16.761   9.748  22.520  0.00  0.00    +0.149 HD
BRANCH  17  10
ATOM     10  C   UNL     1      16.246   7.698  21.169  0.00  0.00    +0.075 C 
ATOM     11  C   UNL     1      17.752   7.428  21.079  0.00  0.00    +0.013 C 
ATOM     12  C   UNL     1      15.573   6.678  20.249  0.00  0.00    +0.013 C 
ATOM     13  C   UNL     1      17.902   6.196  20.191  0.00  0.00    +0.001 C 
ATOM     14  C   UNL     1      16.675   6.230  19.300  0.00  0.00    +0.001 C 
ENDBRANCH  17  10
ENDBRANCH  16   5
ENDBRANCH   7  16
TORSDOF 7
ENDMDL
MODEL 6
REMARK VINA RESULT:      -5.9      3.975      8.209
REMARK  Name = 75536570
REMARK  7 active torsions:
REMARK  status: ('A' for Active; 'I' for Inactive)
REMARK    1  A    between atoms: O_3  and  C_8
REMARK    2  A    between atoms: N_5  and  C_16
REMARK    3  A    between atoms: N_6  and  C_9
REMARK    4  A    between atoms: N_6  and  C_18
REMARK    5  A    between atoms: C_7  and  C_16
REMARK    6  A    between atoms: C_10  and  C_17
REMARK    7  A    between atoms: C_18  and  C_19
REMARK                            x       y       z     vdW  Elec       q    Type
REMARK                         _______ _______ _______ _____ _____    ______ ____
ROOT
ATOM      2  O   UNL     1      16.980   6.059  18.906  0.00  0.00    -0.371 OA
ATOM      7  C   UNL     1      18.069   6.278  19.817  0.00  0.00    +0.165 C 
ATOM      8  C   UNL     1      17.438   6.471  21.189  0.00  0.00    +0.164 C 
ATOM      9  C   UNL     1      16.157   7.196  20.822  0.00  0.00    +0.111 C 
ATOM     15  C   UNL     1      15.760   6.476  19.543  0.00  0.00    +0.181 C 
ENDROOT
BRANCH   8   3
ATOM      3  O   UNL     1      18.266   7.228  22.050  0.00  0.00    -0.388 OA
ATOM     27  H   UNL     1      18.176   6.873  22.951  0.00  0.00    +0.210 HD
ENDBRANCH   8   3
BRANCH   9   6
ATOM      6  N   UNL     1      15.132   7.128  21.851  0.00  0.00    -0.305 NA
ATOM     26  H   UNL     1      15.104   8.017  22.351  0.00  0.00    +0.123 HD
BRANCH   6  18
ATOM     18  C   UNL     1      13.820   6.871  21.270  0.00  0.00    +0.119 C 
BRANCH  18  19
ATOM      1  F   UNL     1      11.110   6.223  21.778  0.00  0.00    -0.205 F 
ATOM     19  C   UNL     1      12.801   7.886  21.714  0.00  0.00    +0.002 A 
ATOM     20  C   UNL     1      11.482   7.499  21.946  0.00  0.00    +0.128 A 
ATOM     21  C   UNL     1      13.178   9.217  21.894  0.00  0.00    +0.008 A 
ATOM     22  C   UNL     1      10.540   8.442  22.359  0.00  0.00    +0.038 A 
ATOM     23  C   UNL     1      12.238  10.160  22.306  0.00  0.00    +0.000 A 
ATOM     24  C   UNL     1      10.918   9.772  22.539  0.00  0.00    +0.003 A 
ENDBRANCH  18  19
ENDBRANCH   6  18
ENDBRANCH   9   6
BRANCH   7  16
ATOM     16  C   UNL     1      19.031   5.104  19.759  0.00  0.00    +0.138 C 
BRANCH  16   5
ATOM      4  O   UNL     1      20.984   3.250  20.843  0.00  0.00    -0.276 OA
ATOM      5  N   UNL     1      20.282   5.423  20.385  0.00  0.00    -0.313 N 
ATOM     17  C   UNL     1      21.160   4.464  20.878  0.00  0.00    +0.216 C 
ATOM     25  H   UNL     1      20.529   6.405  20.464  0.00  0.00    +0.149 HD
BRANCH  17  10
ATOM     10  C   UNL     1      22.403   5.067  21.460  0.00  0.00    +0.075 C 
ATOM     11  C   UNL     1      23.012   4.123  22.502  0.00  0.00    +0.013 C 
ATOM     12  C   UNL     1      22.079   6.367  22.197  0.00  0.00    +0.013 C 
ATOM     13  C   UNL     1      23.118   4.936  23.788  0.00  0.00    +0.001 C 
ATOM     14  C   UNL     1      22.014   5.971  23.665  0.00  0.00    +0.001 C 
ENDBRANCH  17  10
ENDBRANCH  16   5
ENDBRANCH   7  16
TORSDOF 7
ENDMDL
MODEL 7
REMARK VINA RESULT:      -5.9     27.743     29.863
REMARK  Name = 75536570
REMARK  7 active torsions:
REMARK  status: ('A' for Active; 'I' for Inactive)
REMARK    1  A    between atoms: O_3  and  C_8
REMARK    2  A    between atoms: N_5  and  C_16
REMARK    3  A    between atoms: N_6  and  C_9
REMARK    4  A    between atoms: N_6  and  C_18
REMARK    5  A    between atoms: C_7  and  C_16
REMARK    6  A    between atoms: C_10  and  C_17
REMARK    7  A    between atoms: C_18  and  C_19
REMARK                            x       y       z     vdW  Elec       q    Type
REMARK                         _______ _______ _______ _____ _____    ______ ____
ROOT
ATOM      2  O   UNL     1     -11.130  -9.918  15.524  0.00  0.00    -0.371 OA
ATOM      7  C   UNL     1     -11.434  -8.514  15.559  0.00  0.00    +0.165 C 
ATOM      8  C   UNL     1     -10.305  -7.858  16.341  0.00  0.00    +0.164 C 
ATOM      9  C   UNL     1      -9.993  -8.935  17.363  0.00  0.00    +0.111 C 
ATOM     15  C   UNL     1     -10.135 -10.195  16.524  0.00  0.00    +0.181 C 
ENDROOT
BRANCH   8   3
ATOM      3  O   UNL     1     -10.712  -6.642  16.937  0.00  0.00    -0.388 OA
ATOM     27  H   UNL     1     -10.025  -5.973  16.768  0.00  0.00    +0.210 HD
ENDBRANCH   8   3
BRANCH   9   6
ATOM      6  N   UNL     1      -8.677  -8.803  17.968  0.00  0.00    -0.305 NA
ATOM     26  H   UNL     1      -8.641  -9.376  18.812  0.00  0.00    +0.123 HD
BRANCH   6  18
ATOM     18  C   UNL     1      -7.631  -9.241  17.053  0.00  0.00    +0.119 C 
BRANCH  18  19
ATOM      1  F   UNL     1      -5.149  -9.926  15.874  0.00  0.00    -0.205 F 
ATOM     19  C   UNL     1      -6.598 -10.088  17.746  0.00  0.00    +0.002 A 
ATOM     20  C   UNL     1      -5.396 -10.388  17.107  0.00  0.00    +0.128 A 
ATOM     21  C   UNL     1      -6.844 -10.573  19.031  0.00  0.00    +0.008 A 
ATOM     22  C   UNL     1      -4.439 -11.173  17.753  0.00  0.00    +0.038 A 
ATOM     23  C   UNL     1      -5.889 -11.357  19.676  0.00  0.00    +0.000 A 
ATOM     24  C   UNL     1      -4.686 -11.657  19.037  0.00  0.00    +0.003 A 
ENDBRANCH  18  19
ENDBRANCH   6  18
ENDBRANCH   9   6
BRANCH   7  16
ATOM     16  C   UNL     1     -11.571  -7.983  14.142  0.00  0.00    +0.138 C 
BRANCH  16   5
ATOM      4  O   UNL     1     -13.616  -6.782  12.468  0.00  0.00    -0.276 OA
ATOM      5  N   UNL     1     -12.000  -6.614  14.138  0.00  0.00    -0.313 N 
ATOM     17  C   UNL     1     -12.992  -6.124  13.297  0.00  0.00    +0.216 C 
ATOM     25  H   UNL     1     -11.549  -5.980  14.790  0.00  0.00    +0.149 HD
BRANCH  17  10
ATOM     10  C   UNL     1     -13.263  -4.666  13.514  0.00  0.00    +0.075 C 
ATOM     11  C   UNL     1     -14.712  -4.333  13.140  0.00  0.00    +0.013 C 
ATOM     12  C   UNL     1     -12.379  -3.811  12.604  0.00  0.00    +0.013 C 
ATOM     13  C   UNL     1     -14.628  -3.224  12.097  0.00  0.00    +0.001 C 
ATOM     14  C   UNL     1     -13.279  -3.437  11.436  0.00  0.00    +0.001 C 
ENDBRANCH  17  10
ENDBRANCH  16   5
ENDBRANCH   7  16
TORSDOF 7
ENDMDL
MODEL 8
REMARK VINA RESULT:      -5.9     27.111     28.294
REMARK  Name = 75536570
REMARK  7 active torsions:
REMARK  status: ('A' for Active; 'I' for Inactive)
REMARK    1  A    between atoms: O_3  and  C_8
REMARK    2  A    between atoms: N_5  and  C_16
REMARK    3  A    between atoms: N_6  and  C_9
REMARK    4  A    between atoms: N_6  and  C_18
REMARK    5  A    between atoms: C_7  and  C_16
REMARK    6  A    between atoms: C_10  and  C_17
REMARK    7  A    between atoms: C_18  and  C_19
REMARK                            x       y       z     vdW  Elec       q    Type
REMARK                         _______ _______ _______ _____ _____    ______ ____
ROOT
ATOM      2  O   UNL     1      -1.433 -12.129  12.755  0.00  0.00    -0.371 OA
ATOM      7  C   UNL     1      -2.719 -11.764  12.231  0.00  0.00    +0.165 C 
ATOM      8  C   UNL     1      -3.632 -11.592  13.437  0.00  0.00    +0.164 C 
ATOM      9  C   UNL     1      -3.094 -12.664  14.367  0.00  0.00    +0.111 C 
ATOM     15  C   UNL     1      -1.598 -12.552  14.120  0.00  0.00    +0.181 C 
ENDROOT
BRANCH   8   3
ATOM      3  O   UNL     1      -4.992 -11.792  13.104  0.00  0.00    -0.388 OA
ATOM     27  H   UNL     1      -5.069 -12.637  12.627  0.00  0.00    +0.210 HD
ENDBRANCH   8   3
BRANCH   9   6
ATOM      6  N   UNL     1      -3.454 -12.464  15.761  0.00  0.00    -0.305 NA
ATOM     26  H   UNL     1      -2.764 -12.928  16.352  0.00  0.00    +0.123 HD
BRANCH   6  18
ATOM     18  C   UNL     1      -3.488 -11.046  16.097  0.00  0.00    +0.119 C 
BRANCH  18  19
ATOM      1  F   UNL     1      -5.620  -9.487  15.077  0.00  0.00    -0.205 F 
ATOM     19  C   UNL     1      -4.705 -10.690  16.906  0.00  0.00    +0.002 A 
ATOM     20  C   UNL     1      -5.720  -9.918  16.342  0.00  0.00    +0.128 A 
ATOM     21  C   UNL     1      -4.819 -11.134  18.223  0.00  0.00    +0.008 A 
ATOM     22  C   UNL     1      -6.848  -9.590  17.094  0.00  0.00    +0.038 A 
ATOM     23  C   UNL     1      -5.947 -10.807  18.976  0.00  0.00    +0.000 A 
ATOM     24  C   UNL     1      -6.961 -10.035  18.411  0.00  0.00    +0.003 A 
ENDBRANCH  18  19
ENDBRANCH   6  18
ENDBRANCH   9   6
BRANCH   7  16
ATOM     16  C   UNL     1      -2.593 -10.506  11.389  0.00  0.00    +0.138 C 
BRANCH  16   5
ATOM      4  O   UNL     1      -3.690  -8.986   9.173  0.00  0.00    -0.276 OA
ATOM      5  N   UNL     1      -3.825  -9.772  11.362  0.00  0.00    -0.313 N 
ATOM     17  C   UNL     1      -4.274  -9.068  10.250  0.00  0.00    +0.216 C 
ATOM     25  H   UNL     1      -4.391  -9.776  12.205  0.00  0.00    +0.149 HD
BRANCH  17  10
ATOM     10  C   UNL     1      -5.601  -8.411  10.482  0.00  0.00    +0.075 C 
ATOM     11  C   UNL     1      -6.180  -8.845  11.832  0.00  0.00    +0.013 C 
ATOM     12  C   UNL     1      -6.613  -8.849   9.422  0.00  0.00    +0.013 C 
ATOM     13  C   UNL     1      -7.555  -9.430  11.528  0.00  0.00    +0.001 C 
ATOM     14  C   UNL     1      -7.436  -9.934  10.101  0.00  0.00    +0.001 C 
ENDBRANCH  17  10
ENDBRANCH  16   5
ENDBRANCH   7  16
TORSDOF 7
ENDMDL
MODEL 9
REMARK VINA RESULT:      -5.8     27.759     29.714
REMARK  Name = 75536570
REMARK  7 active torsions:
REMARK  status: ('A' for Active; 'I' for Inactive)
REMARK    1  A    between atoms: O_3  and  C_8
REMARK    2  A    between atoms: N_5  and  C_16
REMARK    3  A    between atoms: N_6  and  C_9
REMARK    4  A    between atoms: N_6  and  C_18
REMARK    5  A    between atoms: C_7  and  C_16
REMARK    6  A    between atoms: C_10  and  C_17
REMARK    7  A    between atoms: C_18  and  C_19
REMARK                            x       y       z     vdW  Elec       q    Type
REMARK                         _______ _______ _______ _____ _____    ______ ____
ROOT
ATOM      2  O   UNL     1     -11.790  -7.589  13.873  0.00  0.00    -0.371 OA
ATOM      7  C   UNL     1     -11.968  -6.602  14.902  0.00  0.00    +0.165 C 
ATOM      8  C   UNL     1     -10.665  -6.575  15.689  0.00  0.00    +0.164 C 
ATOM      9  C   UNL     1     -10.260  -8.036  15.634  0.00  0.00    +0.111 C 
ATOM     15  C   UNL     1     -10.655  -8.404  14.213  0.00  0.00    +0.181 C 
ENDROOT
BRANCH   8   3
ATOM      3  O   UNL     1     -10.857  -6.112  17.012  0.00  0.00    -0.388 OA
ATOM     27  H   UNL     1     -11.437  -6.742  17.475  0.00  0.00    +0.210 HD
ENDBRANCH   8   3
BRANCH   9   6
ATOM      6  N   UNL     1      -8.850  -8.262  15.907  0.00  0.00    -0.305 NA
ATOM     26  H   UNL     1      -8.623  -7.878  16.825  0.00  0.00    +0.123 HD
BRANCH   6  18
ATOM     18  C   UNL     1      -8.534  -9.685  15.899  0.00  0.00    +0.119 C 
BRANCH  18  19
ATOM      1  F   UNL     1      -8.845 -10.264  18.654  0.00  0.00    -0.205 F 
ATOM     19  C   UNL     1      -7.378 -10.008  16.806  0.00  0.00    +0.002 A 
ATOM     20  C   UNL     1      -7.602 -10.284  18.154  0.00  0.00    +0.128 A 
ATOM     21  C   UNL     1      -6.079 -10.033  16.296  0.00  0.00    +0.008 A 
ATOM     22  C   UNL     1      -6.528 -10.585  18.993  0.00  0.00    +0.038 A 
ATOM     23  C   UNL     1      -5.006 -10.333  17.134  0.00  0.00    +0.000 A 
ATOM     24  C   UNL     1      -5.230 -10.609  18.483  0.00  0.00    +0.003 A 
ENDBRANCH  18  19
ENDBRANCH   6  18
ENDBRANCH   9   6
BRANCH   7  16
ATOM     16  C   UNL     1     -12.318  -5.264  14.274  0.00  0.00    +0.138 C 
BRANCH  16   5
ATOM      4  O   UNL     1     -12.196  -3.117  12.325  0.00  0.00    -0.276 OA
ATOM      5  N   UNL     1     -12.443  -5.373  12.850  0.00  0.00    -0.313 N 
ATOM     17  C   UNL     1     -12.371  -4.285  11.988  0.00  0.00    +0.216 C 
ATOM     25  H   UNL     1     -12.589  -6.301  12.462  0.00  0.00    +0.149 HD
BRANCH  17  10
ATOM     10  C   UNL     1     -12.509  -4.680  10.548  0.00  0.00    +0.075 C 
ATOM     11  C   UNL     1     -11.568  -5.846  10.226  0.00  0.00    +0.013 C 
ATOM     12  C   UNL     1     -12.094  -3.529   9.631  0.00  0.00    +0.013 C 
ATOM     13  C   UNL     1     -10.702  -5.373   9.062  0.00  0.00    +0.001 C 
ATOM     14  C   UNL     1     -10.669  -3.864   9.214  0.00  0.00    +0.001 C 
ENDBRANCH  17  10
ENDBRANCH  16   5
ENDBRANCH   7  16
TORSDOF 7
ENDMDL
MODEL 10
REMARK VINA RESULT:      -5.8      3.306      6.594
REMARK  Name = 75536570
REMARK  7 active torsions:
REMARK  status: ('A' for Active; 'I' for Inactive)
REMARK    1  A    between atoms: O_3  and  C_8
REMARK    2  A    between atoms: N_5  and  C_16
REMARK    3  A    between atoms: N_6  and  C_9
REMARK    4  A    between atoms: N_6  and  C_18
REMARK    5  A    between atoms: C_7  and  C_16
REMARK    6  A    between atoms: C_10  and  C_17
REMARK    7  A    between atoms: C_18  and  C_19
REMARK                            x       y       z     vdW  Elec       q    Type
REMARK                         _______ _______ _______ _____ _____    ______ ____
ROOT
ATOM      2  O   UNL     1      14.109   8.185  19.559  0.00  0.00    -0.371 OA
ATOM      7  C   UNL     1      12.900   7.446  19.319  0.00  0.00    +0.165 C 
ATOM      8  C   UNL     1      11.901   7.926  20.363  0.00  0.00    +0.164 C 
ATOM      9  C   UNL     1      12.813   8.176  21.549  0.00  0.00    +0.111 C 
ATOM     15  C   UNL     1      14.034   8.774  20.868  0.00  0.00    +0.181 C 
ENDROOT
BRANCH   8   3
ATOM      3  O   UNL     1      10.910   6.954  20.632  0.00  0.00    -0.388 OA
ATOM     27  H   UNL     1      11.347   6.165  20.997  0.00  0.00    +0.210 HD
ENDBRANCH   8   3
BRANCH   9   6
ATOM      6  N   UNL     1      12.238   9.055  22.554  0.00  0.00    -0.305 NA
ATOM     26  H   UNL     1      12.420   8.665  23.480  0.00  0.00    +0.123 HD
BRANCH   6  18
ATOM     18  C   UNL     1      12.819  10.389  22.481  0.00  0.00    +0.119 C 
BRANCH  18  19
ATOM      1  F   UNL     1      11.590  12.414  20.928  0.00  0.00    -0.205 F 
ATOM     19  C   UNL     1      11.905  11.432  23.065  0.00  0.00    +0.002 A 
ATOM     20  C   UNL     1      11.333  12.402  22.243  0.00  0.00    +0.128 A 
ATOM     21  C   UNL     1      11.630  11.427  24.433  0.00  0.00    +0.008 A 
ATOM     22  C   UNL     1      10.485  13.367  22.788  0.00  0.00    +0.038 A 
ATOM     23  C   UNL     1      10.782  12.391  24.978  0.00  0.00    +0.000 A 
ATOM     24  C   UNL     1      10.210  13.362  24.155  0.00  0.00    +0.003 A 
ENDBRANCH  18  19
ENDBRANCH   6  18
ENDBRANCH   9   6
BRANCH   7  16
ATOM     16  C   UNL     1      12.433   7.674  17.892  0.00  0.00    +0.138 C 
BRANCH  16   5
ATOM      4  O   UNL     1      13.689   8.355  15.365  0.00  0.00    -0.276 OA
ATOM      5  N   UNL     1      12.799   8.980  17.426  0.00  0.00    -0.313 N 
ATOM     17  C   UNL     1      13.400   9.214  16.194  0.00  0.00    +0.216 C 
ATOM     25  H   UNL     1      12.601   9.767  18.035  0.00  0.00    +0.149 HD
BRANCH  17  10
ATOM     10  C   UNL     1      13.655  10.670  15.945  0.00  0.00    +0.075 C 
ATOM     11  C   UNL     1      14.948  10.853  15.145  0.00  0.00    +0.013 C 
ATOM     12  C   UNL     1      13.858  11.416  17.265  0.00  0.00    +0.013 C 
ATOM     13  C   UNL     1      15.825  11.783  15.977  0.00  0.00    +0.001 C 
ATOM     14  C   UNL     1      15.368  11.544  17.405  0.00  0.00    +0.001 C 
ENDBRANCH  17  10
ENDBRANCH  16   5
ENDBRANCH   7  16
TORSDOF 7
ENDMDL
