MODEL 1
REMARK VINA RESULT:      -7.3      0.000      0.000
REMARK  Name = 75536730
REMARK  11 active torsions:
REMARK  status: ('A' for Active; 'I' for Inactive)
REMARK    1  A    between atoms: O_2  and  C_9
REMARK    2  A    between atoms: O_4  and  C_21
REMARK    3  A    between atoms: O_4  and  C_24
REMARK    4  A    between atoms: N_5  and  C_8
REMARK    5  A    between atoms: N_5  and  C_13
REMARK    6  A    between atoms: N_6  and  C_12
REMARK    7  A    between atoms: N_7  and  C_18
REMARK    8  A    between atoms: C_10  and  C_12
REMARK    9  A    between atoms: C_13  and  C_14
REMARK   10  A    between atoms: C_18  and  C_22
REMARK   11  A    between atoms: C_18  and  C_23
REMARK                            x       y       z     vdW  Elec       q    Type
REMARK                         _______ _______ _______ _____ _____    ______ ____
ROOT
ATOM      1  O   UNL     1      10.934   8.532  20.368  0.00  0.00    -0.371 OA
ATOM      8  C   UNL     1      12.698   6.953  20.420  0.00  0.00    +0.111 C 
ATOM      9  C   UNL     1      11.662   6.530  21.448  0.00  0.00    +0.164 C 
ATOM     10  C   UNL     1      10.679   7.697  21.514  0.00  0.00    +0.165 C 
ATOM     11  C   UNL     1      11.888   7.876  19.524  0.00  0.00    +0.181 C 
ENDROOT
BRANCH   9   2
ATOM      2  O   UNL     1      10.986   5.378  20.938  0.00  0.00    -0.388 OA
ATOM     26  H   UNL     1      11.090   5.385  19.973  0.00  0.00    +0.210 HD
ENDBRANCH   9   2
BRANCH   8   5
ATOM      5  N   UNL     1      13.808   7.673  21.037  0.00  0.00    -0.305 NA
ATOM     25  H   UNL     1      13.445   8.478  21.549  0.00  0.00    +0.123 HD
BRANCH   5  13
ATOM     13  C   UNL     1      14.751   8.147  20.032  0.00  0.00    +0.116 C 
BRANCH  13  14
ATOM     14  C   UNL     1      16.042   7.373  20.065  0.00  0.00    -0.033 A 
ATOM     16  C   UNL     1      16.974   7.612  21.076  0.00  0.00    +0.008 A 
ATOM     17  C   UNL     1      16.308   6.417  19.085  0.00  0.00    +0.008 A 
ATOM     19  C   UNL     1      18.169   6.895  21.107  0.00  0.00    +0.046 A 
ATOM     20  C   UNL     1      17.504   5.700  19.115  0.00  0.00    +0.046 A 
ATOM     21  C   UNL     1      18.434   5.939  20.127  0.00  0.00    +0.120 A 
BRANCH  21   4
ATOM      4  O   UNL     1      19.601   5.239  20.156  0.00  0.00    -0.495 OA
ATOM     24  C   UNL     1      20.703   5.844  20.832  0.00  0.00    +0.277 C 
ENDBRANCH  21   4
ENDBRANCH  13  14
ENDBRANCH   5  13
ENDBRANCH   8   5
BRANCH  10  12
ATOM     12  C   UNL     1      10.827   8.548  22.767  0.00  0.00    +0.140 C 
BRANCH  12   6
ATOM      3  O   UNL     1      11.080  10.757  24.606  0.00  0.00    -0.253 OA
ATOM      6  N   UNL     1      10.635   9.940  22.477  0.00  0.00    -0.297 N 
ATOM      7  N   UNL     1      10.534  12.210  22.882  0.00  0.00    -0.297 N 
ATOM     15  C   UNL     1      10.777  10.954  23.430  0.00  0.00    +0.300 C 
ATOM     27  H   UNL     1      10.374  10.203  21.531  0.00  0.00    +0.150 HD
ATOM     28  H   UNL     1      10.220  12.264  21.918  0.00  0.00    +0.150 HD
BRANCH   7  18
ATOM     18  C   UNL     1      10.614  13.429  23.653  0.00  0.00    +0.068 C 
ATOM     22  C   UNL     1      12.005  14.041  23.541  0.00  0.00    +0.027 C 
ATOM     23  C   UNL     1       9.541  14.411  23.202  0.00  0.00    +0.027 C 
ENDBRANCH   7  18
ENDBRANCH  12   6
ENDBRANCH  10  12
TORSDOF 8
ENDMDL
MODEL 2
REMARK VINA RESULT:      -7.2      1.915      2.275
REMARK  Name = 75536730
REMARK  11 active torsions:
REMARK  status: ('A' for Active; 'I' for Inactive)
REMARK    1  A    between atoms: O_2  and  C_9
REMARK    2  A    between atoms: O_4  and  C_21
REMARK    3  A    between atoms: O_4  and  C_24
REMARK    4  A    between atoms: N_5  and  C_8
REMARK    5  A    between atoms: N_5  and  C_13
REMARK    6  A    between atoms: N_6  and  C_12
REMARK    7  A    between atoms: N_7  and  C_18
REMARK    8  A    between atoms: C_10  and  C_12
REMARK    9  A    between atoms: C_13  and  C_14
REMARK   10  A    between atoms: C_18  and  C_22
REMARK   11  A    between atoms: C_18  and  C_23
REMARK                            x       y       z     vdW  Elec       q    Type
REMARK                         _______ _______ _______ _____ _____    ______ ____
ROOT
ATOM      1  O   UNL     1      11.116   8.216  19.938  0.00  0.00    -0.371 OA
ATOM      8  C   UNL     1      12.802   6.670  20.547  0.00  0.00    +0.111 C 
ATOM      9  C   UNL     1      11.616   6.456  21.473  0.00  0.00    +0.164 C 
ATOM     10  C   UNL     1      10.671   7.618  21.171  0.00  0.00    +0.165 C 
ATOM     11  C   UNL     1      12.160   7.408  19.384  0.00  0.00    +0.181 C 
ENDROOT
BRANCH   9   2
ATOM      2  O   UNL     1      10.985   5.230  21.095  0.00  0.00    -0.388 OA
ATOM     26  H   UNL     1      10.397   5.426  20.346  0.00  0.00    +0.210 HD
ENDBRANCH   9   2
BRANCH   8   5
ATOM      5  N   UNL     1      13.835   7.491  21.175  0.00  0.00    -0.305 NA
ATOM     25  H   UNL     1      13.394   8.267  21.671  0.00  0.00    +0.123 HD
BRANCH   5  13
ATOM     13  C   UNL     1      14.750   8.035  20.180  0.00  0.00    +0.116 C 
BRANCH  13  14
ATOM     14  C   UNL     1      16.067   7.304  20.171  0.00  0.00    -0.033 A 
ATOM     16  C   UNL     1      17.022   7.574  21.152  0.00  0.00    +0.008 A 
ATOM     17  C   UNL     1      16.332   6.358  19.181  0.00  0.00    +0.008 A 
ATOM     19  C   UNL     1      18.241   6.896  21.143  0.00  0.00    +0.046 A 
ATOM     20  C   UNL     1      17.552   5.681  19.172  0.00  0.00    +0.046 A 
ATOM     21  C   UNL     1      18.506   5.950  20.154  0.00  0.00    +0.120 A 
BRANCH  21   4
ATOM      4  O   UNL     1      19.695   5.289  20.145  0.00  0.00    -0.495 OA
ATOM     24  C   UNL     1      20.757   5.853  20.915  0.00  0.00    +0.277 C 
ENDBRANCH  21   4
ENDBRANCH  13  14
ENDBRANCH   5  13
ENDBRANCH   8   5
BRANCH  10  12
ATOM     12  C   UNL     1      10.665   8.692  22.248  0.00  0.00    +0.140 C 
BRANCH  12   6
ATOM      3  O   UNL     1      12.112  11.176  21.996  0.00  0.00    -0.253 OA
ATOM      6  N   UNL     1      11.992   8.971  22.715  0.00  0.00    -0.297 N 
ATOM      7  N   UNL     1      13.906  10.203  23.099  0.00  0.00    -0.297 N 
ATOM     15  C   UNL     1      12.625  10.207  22.552  0.00  0.00    +0.300 C 
ATOM     27  H   UNL     1      12.503   8.227  23.182  0.00  0.00    +0.150 HD
ATOM     28  H   UNL     1      14.268   9.331  23.474  0.00  0.00    +0.150 HD
BRANCH   7  18
ATOM     18  C   UNL     1      14.774  11.356  23.065  0.00  0.00    +0.068 C 
ATOM     22  C   UNL     1      15.079  11.836  24.478  0.00  0.00    +0.027 C 
ATOM     23  C   UNL     1      16.053  11.033  22.304  0.00  0.00    +0.027 C 
ENDBRANCH   7  18
ENDBRANCH  12   6
ENDBRANCH  10  12
TORSDOF 8
ENDMDL
MODEL 3
REMARK VINA RESULT:      -6.7      3.303      5.045
REMARK  Name = 75536730
REMARK  11 active torsions:
REMARK  status: ('A' for Active; 'I' for Inactive)
REMARK    1  A    between atoms: O_2  and  C_9
REMARK    2  A    between atoms: O_4  and  C_21
REMARK    3  A    between atoms: O_4  and  C_24
REMARK    4  A    between atoms: N_5  and  C_8
REMARK    5  A    between atoms: N_5  and  C_13
REMARK    6  A    between atoms: N_6  and  C_12
REMARK    7  A    between atoms: N_7  and  C_18
REMARK    8  A    between atoms: C_10  and  C_12
REMARK    9  A    between atoms: C_13  and  C_14
REMARK   10  A    between atoms: C_18  and  C_22
REMARK   11  A    between atoms: C_18  and  C_23
REMARK                            x       y       z     vdW  Elec       q    Type
REMARK                         _______ _______ _______ _____ _____    ______ ____
ROOT
ATOM      1  O   UNL     1      11.233   7.156  20.105  0.00  0.00    -0.371 OA
ATOM      8  C   UNL     1      13.419   7.283  21.005  0.00  0.00    +0.111 C 
ATOM      9  C   UNL     1      13.086   8.634  20.396  0.00  0.00    +0.164 C 
ATOM     10  C   UNL     1      11.771   8.413  19.651  0.00  0.00    +0.165 C 
ATOM     11  C   UNL     1      12.038   6.674  21.188  0.00  0.00    +0.181 C 
ENDROOT
BRANCH   9   2
ATOM      2  O   UNL     1      12.866   9.553  21.469  0.00  0.00    -0.388 OA
ATOM     26  H   UNL     1      13.738   9.831  21.795  0.00  0.00    +0.210 HD
ENDBRANCH   9   2
BRANCH   8   5
ATOM      5  N   UNL     1      14.228   6.468  20.101  0.00  0.00    -0.305 NA
ATOM     25  H   UNL     1      14.679   5.722  20.632  0.00  0.00    +0.123 HD
BRANCH   5  13
ATOM     13  C   UNL     1      15.261   7.269  19.456  0.00  0.00    +0.116 C 
BRANCH  13  14
ATOM     14  C   UNL     1      16.645   6.792  19.812  0.00  0.00    -0.033 A 
ATOM     16  C   UNL     1      17.299   7.319  20.926  0.00  0.00    +0.008 A 
ATOM     17  C   UNL     1      17.272   5.825  19.028  0.00  0.00    +0.008 A 
ATOM     19  C   UNL     1      18.580   6.878  21.256  0.00  0.00    +0.046 A 
ATOM     20  C   UNL     1      18.554   5.383  19.358  0.00  0.00    +0.046 A 
ATOM     21  C   UNL     1      19.207   5.910  20.472  0.00  0.00    +0.120 A 
BRANCH  21   4
ATOM      4  O   UNL     1      20.457   5.479  20.794  0.00  0.00    -0.495 OA
ATOM     24  C   UNL     1      21.085   6.091  21.920  0.00  0.00    +0.277 C 
ENDBRANCH  21   4
ENDBRANCH  13  14
ENDBRANCH   5  13
ENDBRANCH   8   5
BRANCH  10  12
ATOM     12  C   UNL     1      11.932   8.345  18.140  0.00  0.00    +0.140 C 
BRANCH  12   6
ATOM      3  O   UNL     1      12.727   8.844  15.411  0.00  0.00    -0.253 OA
ATOM      6  N   UNL     1      12.601   9.508  17.633  0.00  0.00    -0.297 N 
ATOM      7  N   UNL     1      13.591  10.892  16.073  0.00  0.00    -0.297 N 
ATOM     15  C   UNL     1      12.954   9.673  16.290  0.00  0.00    +0.300 C 
ATOM     27  H   UNL     1      12.839  10.248  18.287  0.00  0.00    +0.150 HD
ATOM     28  H   UNL     1      13.797  11.478  16.876  0.00  0.00    +0.150 HD
BRANCH   7  18
ATOM     18  C   UNL     1      14.058  11.310  14.772  0.00  0.00    +0.068 C 
ATOM     22  C   UNL     1      13.917  12.818  14.614  0.00  0.00    +0.027 C 
ATOM     23  C   UNL     1      15.498  10.865  14.559  0.00  0.00    +0.027 C 
ENDBRANCH   7  18
ENDBRANCH  12   6
ENDBRANCH  10  12
TORSDOF 8
ENDMDL
MODEL 4
REMARK VINA RESULT:      -6.7      1.637      2.286
REMARK  Name = 75536730
REMARK  11 active torsions:
REMARK  status: ('A' for Active; 'I' for Inactive)
REMARK    1  A    between atoms: O_2  and  C_9
REMARK    2  A    between atoms: O_4  and  C_21
REMARK    3  A    between atoms: O_4  and  C_24
REMARK    4  A    between atoms: N_5  and  C_8
REMARK    5  A    between atoms: N_5  and  C_13
REMARK    6  A    between atoms: N_6  and  C_12
REMARK    7  A    between atoms: N_7  and  C_18
REMARK    8  A    between atoms: C_10  and  C_12
REMARK    9  A    between atoms: C_13  and  C_14
REMARK   10  A    between atoms: C_18  and  C_22
REMARK   11  A    between atoms: C_18  and  C_23
REMARK                            x       y       z     vdW  Elec       q    Type
REMARK                         _______ _______ _______ _____ _____    ______ ____
ROOT
ATOM      1  O   UNL     1      12.217   9.773  18.908  0.00  0.00    -0.371 OA
ATOM      8  C   UNL     1      13.731   8.201  17.990  0.00  0.00    +0.111 C 
ATOM      9  C   UNL     1      12.530   7.437  18.521  0.00  0.00    +0.164 C 
ATOM     10  C   UNL     1      11.712   8.477  19.284  0.00  0.00    +0.165 C 
ATOM     11  C   UNL     1      13.170   9.607  17.851  0.00  0.00    +0.181 C 
ENDROOT
BRANCH   9   2
ATOM      2  O   UNL     1      11.773   6.982  17.396  0.00  0.00    -0.388 OA
ATOM     26  H   UNL     1      11.585   7.756  16.841  0.00  0.00    +0.210 HD
ENDBRANCH   9   2
BRANCH   8   5
ATOM      5  N   UNL     1      14.844   8.179  18.936  0.00  0.00    -0.305 NA
ATOM     25  H   UNL     1      15.713   8.378  18.439  0.00  0.00    +0.123 HD
BRANCH   5  13
ATOM     13  C   UNL     1      14.963   6.875  19.577  0.00  0.00    +0.116 C 
BRANCH  13  14
ATOM     14  C   UNL     1      16.396   6.526  19.878  0.00  0.00    -0.033 A 
ATOM     16  C   UNL     1      17.131   5.757  18.975  0.00  0.00    +0.008 A 
ATOM     17  C   UNL     1      16.990   6.971  21.059  0.00  0.00    +0.008 A 
ATOM     19  C   UNL     1      18.459   5.434  19.254  0.00  0.00    +0.046 A 
ATOM     20  C   UNL     1      18.318   6.648  21.338  0.00  0.00    +0.046 A 
ATOM     21  C   UNL     1      19.052   5.879  20.435  0.00  0.00    +0.120 A 
BRANCH  21   4
ATOM      4  O   UNL     1      20.348   5.564  20.707  0.00  0.00    -0.495 OA
ATOM     24  C   UNL     1      20.941   6.185  21.847  0.00  0.00    +0.277 C 
ENDBRANCH  21   4
ENDBRANCH  13  14
ENDBRANCH   5  13
ENDBRANCH   8   5
BRANCH  10  12
ATOM     12  C   UNL     1      11.818   8.344  20.796  0.00  0.00    +0.140 C 
BRANCH  12   6
ATOM      3  O   UNL     1      12.884  10.310  22.620  0.00  0.00    -0.253 OA
ATOM      6  N   UNL     1      11.094   9.387  21.464  0.00  0.00    -0.297 N 
ATOM      7  N   UNL     1      10.757  11.206  22.844  0.00  0.00    -0.297 N 
ATOM     15  C   UNL     1      11.688  10.303  22.337  0.00  0.00    +0.300 C 
ATOM     27  H   UNL     1      10.094   9.458  21.299  0.00  0.00    +0.150 HD
ATOM     28  H   UNL     1       9.778  11.075  22.606  0.00  0.00    +0.150 HD
BRANCH   7  18
ATOM     18  C   UNL     1      11.110  12.257  23.769  0.00  0.00    +0.068 C 
ATOM     22  C   UNL     1      10.220  13.476  23.557  0.00  0.00    +0.027 C 
ATOM     23  C   UNL     1      11.020  11.752  25.203  0.00  0.00    +0.027 C 
ENDBRANCH   7  18
ENDBRANCH  12   6
ENDBRANCH  10  12
TORSDOF 8
ENDMDL
MODEL 5
REMARK VINA RESULT:      -6.6      3.664      6.676
REMARK  Name = 75536730
REMARK  11 active torsions:
REMARK  status: ('A' for Active; 'I' for Inactive)
REMARK    1  A    between atoms: O_2  and  C_9
REMARK    2  A    between atoms: O_4  and  C_21
REMARK    3  A    between atoms: O_4  and  C_24
REMARK    4  A    between atoms: N_5  and  C_8
REMARK    5  A    between atoms: N_5  and  C_13
REMARK    6  A    between atoms: N_6  and  C_12
REMARK    7  A    between atoms: N_7  and  C_18
REMARK    8  A    between atoms: C_10  and  C_12
REMARK    9  A    between atoms: C_13  and  C_14
REMARK   10  A    between atoms: C_18  and  C_22
REMARK   11  A    between atoms: C_18  and  C_23
REMARK                            x       y       z     vdW  Elec       q    Type
REMARK                         _______ _______ _______ _____ _____    ______ ____
ROOT
ATOM      1  O   UNL     1      13.102   8.576  22.228  0.00  0.00    -0.371 OA
ATOM      8  C   UNL     1      11.805  10.029  20.882  0.00  0.00    +0.111 C 
ATOM      9  C   UNL     1      10.933   8.846  21.267  0.00  0.00    +0.164 C 
ATOM     10  C   UNL     1      11.887   7.859  21.937  0.00  0.00    +0.165 C 
ATOM     11  C   UNL     1      12.901   9.963  21.933  0.00  0.00    +0.181 C 
ENDROOT
BRANCH   9   2
ATOM      2  O   UNL     1       9.981   9.302  22.231  0.00  0.00    -0.388 OA
ATOM     26  H   UNL     1      10.121  10.256  22.348  0.00  0.00    +0.210 HD
ENDBRANCH   9   2
BRANCH   8   5
ATOM      5  N   UNL     1      12.364   9.873  19.541  0.00  0.00    -0.305 NA
ATOM     25  H   UNL     1      12.826   8.966  19.472  0.00  0.00    +0.123 HD
BRANCH   5  13
ATOM     13  C   UNL     1      13.339  10.916  19.254  0.00  0.00    +0.116 C 
BRANCH  13  14
ATOM     14  C   UNL     1      13.863  10.823  17.846  0.00  0.00    -0.033 A 
ATOM     16  C   UNL     1      14.942  11.614  17.448  0.00  0.00    +0.008 A 
ATOM     17  C   UNL     1      13.270   9.946  16.938  0.00  0.00    +0.008 A 
ATOM     19  C   UNL     1      15.428  11.526  16.144  0.00  0.00    +0.046 A 
ATOM     20  C   UNL     1      13.756   9.859  15.633  0.00  0.00    +0.046 A 
ATOM     21  C   UNL     1      14.834  10.649  15.236  0.00  0.00    +0.120 A 
BRANCH  21   4
ATOM      4  O   UNL     1      15.308  10.564  13.964  0.00  0.00    -0.495 OA
ATOM     24  C   UNL     1      15.454  11.787  13.242  0.00  0.00    +0.277 C 
ENDBRANCH  21   4
ENDBRANCH  13  14
ENDBRANCH   5  13
ENDBRANCH   8   5
BRANCH  10  12
ATOM     12  C   UNL     1      12.237   6.662  21.064  0.00  0.00    +0.140 C 
BRANCH  12   6
ATOM      3  O   UNL     1      14.322   7.500  19.255  0.00  0.00    -0.253 OA
ATOM      6  N   UNL     1      13.633   6.345  21.148  0.00  0.00    -0.297 N 
ATOM      7  N   UNL     1      15.861   6.339  20.545  0.00  0.00    -0.297 N 
ATOM     15  C   UNL     1      14.584   6.793  20.226  0.00  0.00    +0.300 C 
ATOM     27  H   UNL     1      13.947   5.757  21.915  0.00  0.00    +0.150 HD
ATOM     28  H   UNL     1      15.965   5.701  21.327  0.00  0.00    +0.150 HD
BRANCH   7  18
ATOM     18  C   UNL     1      17.025   6.659  19.752  0.00  0.00    +0.068 C 
ATOM     22  C   UNL     1      18.255   6.792  20.641  0.00  0.00    +0.027 C 
ATOM     23  C   UNL     1      17.236   5.606  18.673  0.00  0.00    +0.027 C 
ENDBRANCH   7  18
ENDBRANCH  12   6
ENDBRANCH  10  12
TORSDOF 8
ENDMDL
MODEL 6
REMARK VINA RESULT:      -6.1     26.848     28.084
REMARK  Name = 75536730
REMARK  11 active torsions:
REMARK  status: ('A' for Active; 'I' for Inactive)
REMARK    1  A    between atoms: O_2  and  C_9
REMARK    2  A    between atoms: O_4  and  C_21
REMARK    3  A    between atoms: O_4  and  C_24
REMARK    4  A    between atoms: N_5  and  C_8
REMARK    5  A    between atoms: N_5  and  C_13
REMARK    6  A    between atoms: N_6  and  C_12
REMARK    7  A    between atoms: N_7  and  C_18
REMARK    8  A    between atoms: C_10  and  C_12
REMARK    9  A    between atoms: C_13  and  C_14
REMARK   10  A    between atoms: C_18  and  C_22
REMARK   11  A    between atoms: C_18  and  C_23
REMARK                            x       y       z     vdW  Elec       q    Type
REMARK                         _______ _______ _______ _____ _____    ______ ____
ROOT
ATOM      1  O   UNL     1      -7.049 -12.515  18.225  0.00  0.00    -0.371 OA
ATOM      8  C   UNL     1      -5.250 -12.835  16.719  0.00  0.00    +0.111 C 
ATOM      9  C   UNL     1      -4.665 -12.498  18.080  0.00  0.00    +0.164 C 
ATOM     10  C   UNL     1      -5.867 -12.092  18.932  0.00  0.00    +0.165 C 
ATOM     11  C   UNL     1      -6.653 -13.290  17.087  0.00  0.00    +0.181 C 
ENDROOT
BRANCH   9   2
ATOM      2  O   UNL     1      -4.095 -13.693  18.618  0.00  0.00    -0.388 OA
ATOM     26  H   UNL     1      -3.542 -13.436  19.374  0.00  0.00    +0.210 HD
ENDBRANCH   9   2
BRANCH   8   5
ATOM      5  N   UNL     1      -5.297 -11.664  15.847  0.00  0.00    -0.305 NA
ATOM     25  H   UNL     1      -5.657 -11.939  14.933  0.00  0.00    +0.123 HD
BRANCH   5  13
ATOM     13  C   UNL     1      -3.971 -11.087  15.671  0.00  0.00    +0.116 C 
BRANCH  13  14
ATOM     14  C   UNL     1      -3.693 -10.747  14.230  0.00  0.00    -0.033 A 
ATOM     16  C   UNL     1      -4.750 -10.455  13.367  0.00  0.00    +0.008 A 
ATOM     17  C   UNL     1      -2.381 -10.725  13.759  0.00  0.00    +0.008 A 
ATOM     19  C   UNL     1      -4.492 -10.140  12.032  0.00  0.00    +0.046 A 
ATOM     20  C   UNL     1      -2.124 -10.410  12.425  0.00  0.00    +0.046 A 
ATOM     21  C   UNL     1      -3.180 -10.117  11.562  0.00  0.00    +0.120 A 
BRANCH  21   4
ATOM      4  O   UNL     1      -2.929  -9.809  10.261  0.00  0.00    -0.495 OA
ATOM     24  C   UNL     1      -3.941  -9.090   9.557  0.00  0.00    +0.277 C 
ENDBRANCH  21   4
ENDBRANCH  13  14
ENDBRANCH   5  13
ENDBRANCH   8   5
BRANCH  10  12
ATOM     12  C   UNL     1      -5.965 -10.593  19.171  0.00  0.00    +0.140 C 
BRANCH  12   6
ATOM      3  O   UNL     1      -6.788  -9.231  16.765  0.00  0.00    -0.253 OA
ATOM      6  N   UNL     1      -7.276 -10.100  18.863  0.00  0.00    -0.297 N 
ATOM      7  N   UNL     1      -8.935  -9.075  17.629  0.00  0.00    -0.297 N 
ATOM     15  C   UNL     1      -7.594  -9.447  17.668  0.00  0.00    +0.300 C 
ATOM     27  H   UNL     1      -8.011 -10.225  19.553  0.00  0.00    +0.150 HD
ATOM     28  H   UNL     1      -9.505  -9.234  18.454  0.00  0.00    +0.150 HD
BRANCH   7  18
ATOM     18  C   UNL     1      -9.523  -8.384  16.505  0.00  0.00    +0.068 C 
ATOM     22  C   UNL     1     -10.172  -9.377  15.548  0.00  0.00    +0.027 C 
ATOM     23  C   UNL     1     -10.527  -7.346  16.987  0.00  0.00    +0.027 C 
ENDBRANCH   7  18
ENDBRANCH  12   6
ENDBRANCH  10  12
TORSDOF 8
ENDMDL
MODEL 7
REMARK VINA RESULT:      -6.0     25.909     27.953
REMARK  Name = 75536730
REMARK  11 active torsions:
REMARK  status: ('A' for Active; 'I' for Inactive)
REMARK    1  A    between atoms: O_2  and  C_9
REMARK    2  A    between atoms: O_4  and  C_21
REMARK    3  A    between atoms: O_4  and  C_24
REMARK    4  A    between atoms: N_5  and  C_8
REMARK    5  A    between atoms: N_5  and  C_13
REMARK    6  A    between atoms: N_6  and  C_12
REMARK    7  A    between atoms: N_7  and  C_18
REMARK    8  A    between atoms: C_10  and  C_12
REMARK    9  A    between atoms: C_13  and  C_14
REMARK   10  A    between atoms: C_18  and  C_22
REMARK   11  A    between atoms: C_18  and  C_23
REMARK                            x       y       z     vdW  Elec       q    Type
REMARK                         _______ _______ _______ _____ _____    ______ ____
ROOT
ATOM      1  O   UNL     1      -7.978 -11.818  18.217  0.00  0.00    -0.371 OA
ATOM      8  C   UNL     1      -5.723 -12.348  18.707  0.00  0.00    +0.111 C 
ATOM      9  C   UNL     1      -6.029 -10.992  19.321  0.00  0.00    +0.164 C 
ATOM     10  C   UNL     1      -7.410 -10.622  18.783  0.00  0.00    +0.165 C 
ATOM     11  C   UNL     1      -7.116 -12.924  18.514  0.00  0.00    +0.181 C 
ENDROOT
BRANCH   9   2
ATOM      2  O   UNL     1      -6.111 -11.165  20.738  0.00  0.00    -0.388 OA
ATOM     26  H   UNL     1      -7.027 -11.412  20.947  0.00  0.00    +0.210 HD
ENDBRANCH   9   2
BRANCH   8   5
ATOM      5  N   UNL     1      -5.035 -12.216  17.425  0.00  0.00    -0.305 NA
ATOM     25  H   UNL     1      -4.568 -13.095  17.201  0.00  0.00    +0.123 HD
BRANCH   5  13
ATOM     13  C   UNL     1      -4.036 -11.156  17.471  0.00  0.00    +0.116 C 
BRANCH  13  14
ATOM     14  C   UNL     1      -3.412 -10.913  16.123  0.00  0.00    -0.033 A 
ATOM     16  C   UNL     1      -4.175 -11.060  14.964  0.00  0.00    +0.008 A 
ATOM     17  C   UNL     1      -2.071 -10.542  16.031  0.00  0.00    +0.008 A 
ATOM     19  C   UNL     1      -3.597 -10.835  13.715  0.00  0.00    +0.046 A 
ATOM     20  C   UNL     1      -1.493 -10.316  14.782  0.00  0.00    +0.046 A 
ATOM     21  C   UNL     1      -2.256 -10.463  13.624  0.00  0.00    +0.120 A 
BRANCH  21   4
ATOM      4  O   UNL     1      -1.692 -10.243  12.406  0.00  0.00    -0.495 OA
ATOM     24  C   UNL     1      -2.580 -10.035  11.307  0.00  0.00    +0.277 C 
ENDBRANCH  21   4
ENDBRANCH  13  14
ENDBRANCH   5  13
ENDBRANCH   8   5
BRANCH  10  12
ATOM     12  C   UNL     1      -7.375  -9.553  17.701  0.00  0.00    +0.140 C 
BRANCH  12   6
ATOM      3  O   UNL     1      -9.134  -9.025  15.476  0.00  0.00    -0.253 OA
ATOM      6  N   UNL     1      -8.570  -8.759  17.713  0.00  0.00    -0.297 N 
ATOM      7  N   UNL     1     -10.466  -7.744  16.877  0.00  0.00    -0.297 N 
ATOM     15  C   UNL     1      -9.370  -8.551  16.586  0.00  0.00    +0.300 C 
ATOM     27  H   UNL     1      -8.845  -8.318  18.586  0.00  0.00    +0.150 HD
ATOM     28  H   UNL     1     -10.537  -7.343  17.807  0.00  0.00    +0.150 HD
BRANCH   7  18
ATOM     18  C   UNL     1     -11.451  -7.375  15.888  0.00  0.00    +0.068 C 
ATOM     22  C   UNL     1     -12.827  -7.896  16.283  0.00  0.00    +0.027 C 
ATOM     23  C   UNL     1     -11.468  -5.865  15.695  0.00  0.00    +0.027 C 
ENDBRANCH   7  18
ENDBRANCH  12   6
ENDBRANCH  10  12
TORSDOF 8
ENDMDL
MODEL 8
REMARK VINA RESULT:      -6.0      2.376      3.304
REMARK  Name = 75536730
REMARK  11 active torsions:
REMARK  status: ('A' for Active; 'I' for Inactive)
REMARK    1  A    between atoms: O_2  and  C_9
REMARK    2  A    between atoms: O_4  and  C_21
REMARK    3  A    between atoms: O_4  and  C_24
REMARK    4  A    between atoms: N_5  and  C_8
REMARK    5  A    between atoms: N_5  and  C_13
REMARK    6  A    between atoms: N_6  and  C_12
REMARK    7  A    between atoms: N_7  and  C_18
REMARK    8  A    between atoms: C_10  and  C_12
REMARK    9  A    between atoms: C_13  and  C_14
REMARK   10  A    between atoms: C_18  and  C_22
REMARK   11  A    between atoms: C_18  and  C_23
REMARK                            x       y       z     vdW  Elec       q    Type
REMARK                         _______ _______ _______ _____ _____    ______ ____
ROOT
ATOM      1  O   UNL     1      11.863   8.743  19.528  0.00  0.00    -0.371 OA
ATOM      8  C   UNL     1      12.709   6.660  20.272  0.00  0.00    +0.111 C 
ATOM      9  C   UNL     1      11.725   7.163  21.314  0.00  0.00    +0.164 C 
ATOM     10  C   UNL     1      11.395   8.591  20.882  0.00  0.00    +0.165 C 
ATOM     11  C   UNL     1      12.307   7.468  19.048  0.00  0.00    +0.181 C 
ENDROOT
BRANCH   9   2
ATOM      2  O   UNL     1      10.544   6.363  21.221  0.00  0.00    -0.388 OA
ATOM     26  H   UNL     1       9.843   6.923  20.850  0.00  0.00    +0.210 HD
ENDBRANCH   9   2
BRANCH   8   5
ATOM      5  N   UNL     1      14.090   6.946  20.651  0.00  0.00    -0.305 NA
ATOM     25  H   UNL     1      14.150   7.900  21.011  0.00  0.00    +0.123 HD
BRANCH   5  13
ATOM     13  C   UNL     1      14.986   6.823  19.508  0.00  0.00    +0.116 C 
BRANCH  13  14
ATOM     14  C   UNL     1      16.428   6.746  19.931  0.00  0.00    -0.033 A 
ATOM     16  C   UNL     1      17.290   5.840  19.311  0.00  0.00    +0.008 A 
ATOM     17  C   UNL     1      16.904   7.579  20.943  0.00  0.00    +0.008 A 
ATOM     19  C   UNL     1      18.627   5.769  19.703  0.00  0.00    +0.046 A 
ATOM     20  C   UNL     1      18.241   7.509  21.335  0.00  0.00    +0.046 A 
ATOM     21  C   UNL     1      19.102   6.603  20.714  0.00  0.00    +0.120 A 
BRANCH  21   4
ATOM      4  O   UNL     1      20.406   6.534  21.096  0.00  0.00    -0.495 OA
ATOM     24  C   UNL     1      20.692   5.828  22.303  0.00  0.00    +0.277 C 
ENDBRANCH  21   4
ENDBRANCH  13  14
ENDBRANCH   5  13
ENDBRANCH   8   5
BRANCH  10  12
ATOM     12  C   UNL     1      12.061   9.656  21.740  0.00  0.00    +0.140 C 
BRANCH  12   6
ATOM      3  O   UNL     1      14.477  10.475  23.089  0.00  0.00    -0.253 OA
ATOM      6  N   UNL     1      13.271  10.133  21.133  0.00  0.00    -0.297 N 
ATOM      7  N   UNL     1      15.432  10.934  21.026  0.00  0.00    -0.297 N 
ATOM     15  C   UNL     1      14.403  10.512  21.862  0.00  0.00    +0.300 C 
ATOM     27  H   UNL     1      13.304  10.207  20.121  0.00  0.00    +0.150 HD
ATOM     28  H   UNL     1      15.250  10.997  20.029  0.00  0.00    +0.150 HD
BRANCH   7  18
ATOM     18  C   UNL     1      16.712  11.380  21.525  0.00  0.00    +0.068 C 
ATOM     22  C   UNL     1      17.794  11.183  20.470  0.00  0.00    +0.027 C 
ATOM     23  C   UNL     1      16.631  12.835  21.966  0.00  0.00    +0.027 C 
ENDBRANCH   7  18
ENDBRANCH  12   6
ENDBRANCH  10  12
TORSDOF 8
ENDMDL
MODEL 9
REMARK VINA RESULT:      -6.0     25.955     28.154
REMARK  Name = 75536730
REMARK  11 active torsions:
REMARK  status: ('A' for Active; 'I' for Inactive)
REMARK    1  A    between atoms: O_2  and  C_9
REMARK    2  A    between atoms: O_4  and  C_21
REMARK    3  A    between atoms: O_4  and  C_24
REMARK    4  A    between atoms: N_5  and  C_8
REMARK    5  A    between atoms: N_5  and  C_13
REMARK    6  A    between atoms: N_6  and  C_12
REMARK    7  A    between atoms: N_7  and  C_18
REMARK    8  A    between atoms: C_10  and  C_12
REMARK    9  A    between atoms: C_13  and  C_14
REMARK   10  A    between atoms: C_18  and  C_22
REMARK   11  A    between atoms: C_18  and  C_23
REMARK                            x       y       z     vdW  Elec       q    Type
REMARK                         _______ _______ _______ _____ _____    ______ ____
ROOT
ATOM      1  O   UNL     1      -4.071 -12.237  15.486  0.00  0.00    -0.371 OA
ATOM      8  C   UNL     1      -2.164 -11.232  14.506  0.00  0.00    +0.111 C 
ATOM      9  C   UNL     1      -2.376 -10.600  15.871  0.00  0.00    +0.164 C 
ATOM     10  C   UNL     1      -3.730 -11.129  16.341  0.00  0.00    +0.165 C 
ATOM     11  C   UNL     1      -2.954 -12.524  14.635  0.00  0.00    +0.181 C 
ENDROOT
BRANCH   9   2
ATOM      2  O   UNL     1      -1.355 -11.091  16.742  0.00  0.00    -0.388 OA
ATOM     26  H   UNL     1      -0.527 -10.646  16.498  0.00  0.00    +0.210 HD
ENDBRANCH   9   2
BRANCH   8   5
ATOM      5  N   UNL     1      -2.706 -10.399  13.435  0.00  0.00    -0.305 NA
ATOM     25  H   UNL     1      -3.689 -10.633  13.290  0.00  0.00    +0.123 HD
BRANCH   5  13
ATOM     13  C   UNL     1      -1.987 -10.614  12.186  0.00  0.00    +0.116 C 
BRANCH  13  14
ATOM     14  C   UNL     1      -2.884 -10.456  10.988  0.00  0.00    -0.033 A 
ATOM     16  C   UNL     1      -3.062  -9.198  10.410  0.00  0.00    +0.008 A 
ATOM     17  C   UNL     1      -3.536 -11.567  10.454  0.00  0.00    +0.008 A 
ATOM     19  C   UNL     1      -3.893  -9.053   9.299  0.00  0.00    +0.046 A 
ATOM     20  C   UNL     1      -4.367 -11.421   9.343  0.00  0.00    +0.046 A 
ATOM     21  C   UNL     1      -4.545 -10.164   8.766  0.00  0.00    +0.120 A 
BRANCH  21   4
ATOM      4  O   UNL     1      -5.355 -10.021   7.682  0.00  0.00    -0.495 OA
ATOM     24  C   UNL     1      -6.659  -9.489   7.911  0.00  0.00    +0.277 C 
ENDBRANCH  21   4
ENDBRANCH  13  14
ENDBRANCH   5  13
ENDBRANCH   8   5
BRANCH  10  12
ATOM     12  C   UNL     1      -4.848 -10.101  16.258  0.00  0.00    +0.140 C 
BRANCH  12   6
ATOM      3  O   UNL     1      -5.689 -10.390  19.003  0.00  0.00    -0.253 OA
ATOM      6  N   UNL     1      -6.090 -10.642  16.730  0.00  0.00    -0.297 N 
ATOM      7  N   UNL     1      -7.685 -11.307  18.259  0.00  0.00    -0.297 N 
ATOM     15  C   UNL     1      -6.422 -10.748  18.084  0.00  0.00    +0.300 C 
ATOM     27  H   UNL     1      -6.761 -10.973  16.043  0.00  0.00    +0.150 HD
ATOM     28  H   UNL     1      -8.185 -11.637  17.440  0.00  0.00    +0.150 HD
BRANCH   7  18
ATOM     18  C   UNL     1      -8.268 -11.527  19.562  0.00  0.00    +0.068 C 
ATOM     22  C   UNL     1      -9.685 -10.969  19.614  0.00  0.00    +0.027 C 
ATOM     23  C   UNL     1      -8.247 -13.010  19.908  0.00  0.00    +0.027 C 
ENDBRANCH   7  18
ENDBRANCH  12   6
ENDBRANCH  10  12
TORSDOF 8
ENDMDL
MODEL 10
REMARK VINA RESULT:      -6.0     26.022     28.375
REMARK  Name = 75536730
REMARK  11 active torsions:
REMARK  status: ('A' for Active; 'I' for Inactive)
REMARK    1  A    between atoms: O_2  and  C_9
REMARK    2  A    between atoms: O_4  and  C_21
REMARK    3  A    between atoms: O_4  and  C_24
REMARK    4  A    between atoms: N_5  and  C_8
REMARK    5  A    between atoms: N_5  and  C_13
REMARK    6  A    between atoms: N_6  and  C_12
REMARK    7  A    between atoms: N_7  and  C_18
REMARK    8  A    between atoms: C_10  and  C_12
REMARK    9  A    between atoms: C_13  and  C_14
REMARK   10  A    between atoms: C_18  and  C_22
REMARK   11  A    between atoms: C_18  and  C_23
REMARK                            x       y       z     vdW  Elec       q    Type
REMARK                         _______ _______ _______ _____ _____    ______ ____
ROOT
ATOM      1  O   UNL     1      -3.926 -12.449  15.361  0.00  0.00    -0.371 OA
ATOM      8  C   UNL     1      -1.980 -11.384  14.532  0.00  0.00    +0.111 C 
ATOM      9  C   UNL     1      -2.391 -10.677  15.812  0.00  0.00    +0.164 C 
ATOM     10  C   UNL     1      -3.756 -11.265  16.163  0.00  0.00    +0.165 C 
ATOM     11  C   UNL     1      -2.701 -12.716  14.668  0.00  0.00    +0.181 C 
ENDROOT
BRANCH   9   2
ATOM      2  O   UNL     1      -1.452 -11.037  16.829  0.00  0.00    -0.388 OA
ATOM     26  H   UNL     1      -0.794 -10.324  16.881  0.00  0.00    +0.210 HD
ENDBRANCH   9   2
BRANCH   8   5
ATOM      5  N   UNL     1      -2.441 -10.665  13.347  0.00  0.00    -0.305 NA
ATOM     25  H   UNL     1      -3.449 -10.521  13.410  0.00  0.00    +0.123 HD
BRANCH   5  13
ATOM     13  C   UNL     1      -2.152 -11.415  12.131  0.00  0.00    +0.116 C 
BRANCH  13  14
ATOM     14  C   UNL     1      -2.971 -10.930  10.965  0.00  0.00    -0.033 A 
ATOM     16  C   UNL     1      -3.679 -11.842  10.181  0.00  0.00    +0.008 A 
ATOM     17  C   UNL     1      -3.022  -9.568  10.667  0.00  0.00    +0.008 A 
ATOM     19  C   UNL     1      -4.438 -11.392   9.101  0.00  0.00    +0.046 A 
ATOM     20  C   UNL     1      -3.781  -9.119   9.586  0.00  0.00    +0.046 A 
ATOM     21  C   UNL     1      -4.489 -10.031   8.804  0.00  0.00    +0.120 A 
BRANCH  21   4
ATOM      4  O   UNL     1      -5.229  -9.592   7.750  0.00  0.00    -0.495 OA
ATOM     24  C   UNL     1      -6.353 -10.386   7.371  0.00  0.00    +0.277 C 
ENDBRANCH  21   4
ENDBRANCH  13  14
ENDBRANCH   5  13
ENDBRANCH   8   5
BRANCH  10  12
ATOM     12  C   UNL     1      -4.916 -10.323  15.877  0.00  0.00    +0.140 C 
BRANCH  12   6
ATOM      3  O   UNL     1      -7.430 -10.490  14.470  0.00  0.00    -0.253 OA
ATOM      6  N   UNL     1      -5.129 -10.173  14.466  0.00  0.00    -0.297 N 
ATOM      7  N   UNL     1      -6.306 -10.082  12.483  0.00  0.00    -0.297 N 
ATOM     15  C   UNL     1      -6.386 -10.269  13.860  0.00  0.00    +0.300 C 
ATOM     27  H   UNL     1      -4.323  -9.995  13.874  0.00  0.00    +0.150 HD
ATOM     28  H   UNL     1      -5.388  -9.977  12.062  0.00  0.00    +0.150 HD
BRANCH   7  18
ATOM     18  C   UNL     1      -7.462 -10.132  11.619  0.00  0.00    +0.068 C 
ATOM     22  C   UNL     1      -7.435  -8.978  10.624  0.00  0.00    +0.027 C 
ATOM     23  C   UNL     1      -7.533 -11.475  10.905  0.00  0.00    +0.027 C 
ENDBRANCH   7  18
ENDBRANCH  12   6
ENDBRANCH  10  12
TORSDOF 8
ENDMDL
