MODEL 1
REMARK VINA RESULT:      -7.0      0.000      0.000
REMARK  Name = 56774285
REMARK  10 active torsions:
REMARK  status: ('A' for Active; 'I' for Inactive)
REMARK    1  A    between atoms: O_3  and  C_21
REMARK    2  A    between atoms: N_4  and  C_9
REMARK    3  A    between atoms: N_6  and  C_18
REMARK    4  A    between atoms: C_7  and  C_12
REMARK    5  A    between atoms: C_7  and  C_13
REMARK    6  A    between atoms: C_8  and  C_11
REMARK    7  A    between atoms: C_11  and  C_14
REMARK    8  A    between atoms: C_17  and  C_19
REMARK    9  A    between atoms: C_18  and  C_20
REMARK   10  A    between atoms: C_19  and  C_21
REMARK                            x       y       z     vdW  Elec       q    Type
REMARK                         _______ _______ _______ _____ _____    ______ ____
ROOT
ATOM      7  C   UNL     1      17.220   7.061  20.613  0.00  0.00    -0.013 C 
ATOM      8  C   UNL     1      16.099   6.946  19.558  0.00  0.00    +0.004 C 
ATOM      9  C   UNL     1      18.163   6.433  19.566  0.00  0.00    +0.081 C 
ATOM     10  C   UNL     1      16.911   5.792  18.934  0.00  0.00    +0.027 C 
ATOM     12  C   UNL     1      17.056   6.195  21.849  0.00  0.00    +0.013 C 
ATOM     13  C   UNL     1      17.526   8.486  21.017  0.00  0.00    +0.013 C 
ENDROOT
BRANCH   9   4
ATOM      2  O   UNL     1      20.906   6.922  20.327  0.00  0.00    -0.253 OA
ATOM      4  N   UNL     1      19.130   5.450  20.086  0.00  0.00    -0.296 N 
ATOM      6  N   UNL     1      21.145   4.683  20.892  0.00  0.00    -0.295 N 
ATOM     15  C   UNL     1      20.439   5.788  20.427  0.00  0.00    +0.300 C 
ATOM     27  H   UNL     1      18.858   4.478  20.204  0.00  0.00    +0.151 HD
ATOM     28  H   UNL     1      20.681   3.780  20.917  0.00  0.00    +0.151 HD
BRANCH   6  18
ATOM     18  C   UNL     1      22.524   4.759  21.311  0.00  0.00    +0.141 C 
BRANCH  18  20
ATOM     20  C   UNL     1      22.988   3.483  21.952  0.00  0.00    -0.030 A 
ATOM     22  C   UNL     1      23.751   2.572  21.220  0.00  0.00    +0.005 A 
ATOM     23  C   UNL     1      22.657   3.207  23.278  0.00  0.00    +0.005 A 
ATOM     24  C   UNL     1      24.183   1.386  21.814  0.00  0.00    +0.000 A 
ATOM     25  C   UNL     1      23.089   2.022  23.873  0.00  0.00    +0.000 A 
ATOM     26  C   UNL     1      23.851   1.112  23.141  0.00  0.00    +0.000 A 
ENDBRANCH  18  20
ENDBRANCH   6  18
ENDBRANCH   9   4
BRANCH   8  11
ATOM     11  C   UNL     1      14.724   6.561  20.051  0.00  0.00    +0.063 C 
BRANCH  11  14
ATOM      1  O   UNL     1      11.690   7.643  18.425  0.00  0.00    -0.359 OA
ATOM      5  N   UNL     1      12.388   6.834  19.313  0.00  0.00    -0.083 NA
ATOM     14  C   UNL     1      13.660   7.230  19.213  0.00  0.00    +0.084 A 
ATOM     16  C   UNL     1      13.823   8.274  18.287  0.00  0.00    +0.071 A 
ATOM     17  C   UNL     1      12.555   8.497  17.819  0.00  0.00    +0.140 A 
BRANCH  17  19
ATOM     19  C   UNL     1      11.980   9.430  16.844  0.00  0.00    +0.105 C 
BRANCH  19  21
ATOM     21  C   UNL     1      11.159   8.743  15.735  0.00  0.00    +0.163 C 
BRANCH  21   3
ATOM      3  O   UNL     1      10.052   8.070  16.318  0.00  0.00    -0.395 OA
ATOM     29  H   UNL     1       9.262   8.331  15.815  0.00  0.00    +0.209 HD
ENDBRANCH  21   3
ENDBRANCH  19  21
ENDBRANCH  17  19
ENDBRANCH  11  14
ENDBRANCH   8  11
TORSDOF 8
ENDMDL
MODEL 2
REMARK VINA RESULT:      -6.6     27.486     29.896
REMARK  Name = 56774285
REMARK  10 active torsions:
REMARK  status: ('A' for Active; 'I' for Inactive)
REMARK    1  A    between atoms: O_3  and  C_21
REMARK    2  A    between atoms: N_4  and  C_9
REMARK    3  A    between atoms: N_6  and  C_18
REMARK    4  A    between atoms: C_7  and  C_12
REMARK    5  A    between atoms: C_7  and  C_13
REMARK    6  A    between atoms: C_8  and  C_11
REMARK    7  A    between atoms: C_11  and  C_14
REMARK    8  A    between atoms: C_17  and  C_19
REMARK    9  A    between atoms: C_18  and  C_20
REMARK   10  A    between atoms: C_19  and  C_21
REMARK                            x       y       z     vdW  Elec       q    Type
REMARK                         _______ _______ _______ _____ _____    ______ ____
ROOT
ATOM      7  C   UNL     1      -5.480 -11.190  16.466  0.00  0.00    -0.013 C 
ATOM      8  C   UNL     1      -5.169 -11.421  17.961  0.00  0.00    +0.004 C 
ATOM      9  C   UNL     1      -3.999 -11.521  16.187  0.00  0.00    +0.081 C 
ATOM     10  C   UNL     1      -3.704 -11.065  17.631  0.00  0.00    +0.027 C 
ATOM     12  C   UNL     1      -5.847  -9.770  16.080  0.00  0.00    +0.013 C 
ATOM     13  C   UNL     1      -6.498 -12.159  15.905  0.00  0.00    +0.013 C 
ENDROOT
BRANCH   9   4
ATOM      2  O   UNL     1      -3.046 -12.380  13.600  0.00  0.00    -0.253 OA
ATOM      4  N   UNL     1      -3.344 -10.692  15.161  0.00  0.00    -0.296 N 
ATOM      6  N   UNL     1      -2.331 -10.218  13.149  0.00  0.00    -0.295 N 
ATOM     15  C   UNL     1      -2.917 -11.204  13.937  0.00  0.00    +0.300 C 
ATOM     27  H   UNL     1      -3.177  -9.703  15.332  0.00  0.00    +0.151 HD
ATOM     28  H   UNL     1      -2.249  -9.277  13.522  0.00  0.00    +0.151 HD
BRANCH   6  18
ATOM     18  C   UNL     1      -1.804 -10.483  11.831  0.00  0.00    +0.141 C 
BRANCH  18  20
ATOM     20  C   UNL     1      -2.847 -10.316  10.765  0.00  0.00    -0.030 A 
ATOM     22  C   UNL     1      -3.552 -11.426  10.297  0.00  0.00    +0.005 A 
ATOM     23  C   UNL     1      -3.112  -9.051  10.240  0.00  0.00    +0.005 A 
ATOM     24  C   UNL     1      -4.520 -11.271   9.305  0.00  0.00    +0.000 A 
ATOM     25  C   UNL     1      -4.081  -8.896   9.249  0.00  0.00    +0.000 A 
ATOM     26  C   UNL     1      -4.785 -10.005   8.782  0.00  0.00    +0.000 A 
ENDBRANCH  18  20
ENDBRANCH   6  18
ENDBRANCH   9   4
BRANCH   8  11
ATOM     11  C   UNL     1      -5.837 -10.500  18.956  0.00  0.00    +0.063 C 
BRANCH  11  14
ATOM      1  O   UNL     1      -8.874 -12.051  20.135  0.00  0.00    -0.359 OA
ATOM      5  N   UNL     1      -7.495 -11.876  20.152  0.00  0.00    -0.083 NA
ATOM     14  C   UNL     1      -7.254 -10.951  19.219  0.00  0.00    +0.084 A 
ATOM     16  C   UNL     1      -8.429 -10.511  18.586  0.00  0.00    +0.071 A 
ATOM     17  C   UNL     1      -9.419 -11.234  19.198  0.00  0.00    +0.140 A 
BRANCH  17  19
ATOM     19  C   UNL     1     -10.877 -11.291  19.047  0.00  0.00    +0.105 C 
BRANCH  19  21
ATOM     21  C   UNL     1     -11.648 -10.555  20.161  0.00  0.00    +0.163 C 
BRANCH  21   3
ATOM      3  O   UNL     1     -10.730  -9.827  20.964  0.00  0.00    -0.395 OA
ATOM     29  H   UNL     1     -11.247  -9.390  21.662  0.00  0.00    +0.209 HD
ENDBRANCH  21   3
ENDBRANCH  19  21
ENDBRANCH  17  19
ENDBRANCH  11  14
ENDBRANCH   8  11
TORSDOF 8
ENDMDL
MODEL 3
REMARK VINA RESULT:      -6.4     27.185     29.144
REMARK  Name = 56774285
REMARK  10 active torsions:
REMARK  status: ('A' for Active; 'I' for Inactive)
REMARK    1  A    between atoms: O_3  and  C_21
REMARK    2  A    between atoms: N_4  and  C_9
REMARK    3  A    between atoms: N_6  and  C_18
REMARK    4  A    between atoms: C_7  and  C_12
REMARK    5  A    between atoms: C_7  and  C_13
REMARK    6  A    between atoms: C_8  and  C_11
REMARK    7  A    between atoms: C_11  and  C_14
REMARK    8  A    between atoms: C_17  and  C_19
REMARK    9  A    between atoms: C_18  and  C_20
REMARK   10  A    between atoms: C_19  and  C_21
REMARK                            x       y       z     vdW  Elec       q    Type
REMARK                         _______ _______ _______ _____ _____    ______ ____
ROOT
ATOM      7  C   UNL     1      -4.751 -11.801  18.354  0.00  0.00    -0.013 C 
ATOM      8  C   UNL     1      -5.585 -10.521  18.572  0.00  0.00    +0.004 C 
ATOM      9  C   UNL     1      -4.042 -11.052  17.207  0.00  0.00    +0.081 C 
ATOM     10  C   UNL     1      -5.313 -10.185  17.091  0.00  0.00    +0.027 C 
ATOM     12  C   UNL     1      -5.520 -13.017  17.873  0.00  0.00    +0.013 C 
ATOM     13  C   UNL     1      -3.890 -12.171  19.542  0.00  0.00    +0.013 C 
ENDROOT
BRANCH   9   4
ATOM      2  O   UNL     1      -2.123 -10.456  15.133  0.00  0.00    -0.253 OA
ATOM      4  N   UNL     1      -3.761 -11.850  16.002  0.00  0.00    -0.296 N 
ATOM      6  N   UNL     1      -2.735 -12.396  14.014  0.00  0.00    -0.295 N 
ATOM     15  C   UNL     1      -2.809 -11.475  15.054  0.00  0.00    +0.300 C 
ATOM     27  H   UNL     1      -4.274 -12.710  15.826  0.00  0.00    +0.151 HD
ATOM     28  H   UNL     1      -3.359 -13.197  14.024  0.00  0.00    +0.151 HD
BRANCH   6  18
ATOM     18  C   UNL     1      -1.829 -12.245  12.901  0.00  0.00    +0.141 C 
BRANCH  18  20
ATOM     20  C   UNL     1      -2.355 -11.286  11.874  0.00  0.00    -0.030 A 
ATOM     22  C   UNL     1      -1.715 -10.063  11.667  0.00  0.00    +0.005 A 
ATOM     23  C   UNL     1      -3.484 -11.616  11.125  0.00  0.00    +0.005 A 
ATOM     24  C   UNL     1      -2.204  -9.172  10.712  0.00  0.00    +0.000 A 
ATOM     25  C   UNL     1      -3.973 -10.725  10.169  0.00  0.00    +0.000 A 
ATOM     26  C   UNL     1      -3.333  -9.503   9.963  0.00  0.00    +0.000 A 
ENDBRANCH  18  20
ENDBRANCH   6  18
ENDBRANCH   9   4
BRANCH   8  11
ATOM     11  C   UNL     1      -7.043 -10.698  18.926  0.00  0.00    +0.063 C 
BRANCH  11  14
ATOM      1  O   UNL     1      -9.235 -10.529  16.064  0.00  0.00    -0.359 OA
ATOM      5  N   UNL     1      -8.524 -11.232  17.029  0.00  0.00    -0.083 NA
ATOM     14  C   UNL     1      -7.918 -10.295  17.762  0.00  0.00    +0.084 A 
ATOM     16  C   UNL     1      -8.206  -8.995  17.312  0.00  0.00    +0.071 A 
ATOM     17  C   UNL     1      -9.038  -9.198  16.242  0.00  0.00    +0.140 A 
BRANCH  17  19
ATOM     19  C   UNL     1      -9.722  -8.303  15.302  0.00  0.00    +0.105 C 
BRANCH  19  21
ATOM     21  C   UNL     1     -10.390  -7.087  15.975  0.00  0.00    +0.163 C 
BRANCH  21   3
ATOM      3  O   UNL     1      -9.707  -5.902  15.587  0.00  0.00    -0.395 OA
ATOM     29  H   UNL     1      -9.874  -5.238  16.277  0.00  0.00    +0.209 HD
ENDBRANCH  21   3
ENDBRANCH  19  21
ENDBRANCH  17  19
ENDBRANCH  11  14
ENDBRANCH   8  11
TORSDOF 8
ENDMDL
MODEL 4
REMARK VINA RESULT:      -6.4     30.671     34.571
REMARK  Name = 56774285
REMARK  10 active torsions:
REMARK  status: ('A' for Active; 'I' for Inactive)
REMARK    1  A    between atoms: O_3  and  C_21
REMARK    2  A    between atoms: N_4  and  C_9
REMARK    3  A    between atoms: N_6  and  C_18
REMARK    4  A    between atoms: C_7  and  C_12
REMARK    5  A    between atoms: C_7  and  C_13
REMARK    6  A    between atoms: C_8  and  C_11
REMARK    7  A    between atoms: C_11  and  C_14
REMARK    8  A    between atoms: C_17  and  C_19
REMARK    9  A    between atoms: C_18  and  C_20
REMARK   10  A    between atoms: C_19  and  C_21
REMARK                            x       y       z     vdW  Elec       q    Type
REMARK                         _______ _______ _______ _____ _____    ______ ____
ROOT
ATOM      7  C   UNL     1     -17.779   3.652  24.607  0.00  0.00    -0.013 C 
ATOM      8  C   UNL     1     -17.144   2.653  25.598  0.00  0.00    +0.004 C 
ATOM      9  C   UNL     1     -16.402   3.723  23.916  0.00  0.00    +0.081 C 
ATOM     10  C   UNL     1     -15.787   3.309  25.269  0.00  0.00    +0.027 C 
ATOM     12  C   UNL     1     -18.210   4.983  25.195  0.00  0.00    +0.013 C 
ATOM     13  C   UNL     1     -18.905   3.059  23.790  0.00  0.00    +0.013 C 
ENDROOT
BRANCH   9   4
ATOM      2  O   UNL     1     -16.304   4.690  21.197  0.00  0.00    -0.253 OA
ATOM      4  N   UNL     1     -15.984   5.061  23.463  0.00  0.00    -0.296 N 
ATOM      6  N   UNL     1     -15.538   6.745  21.959  0.00  0.00    -0.295 N 
ATOM     15  C   UNL     1     -15.972   5.433  22.120  0.00  0.00    +0.300 C 
ATOM     27  H   UNL     1     -15.680   5.758  24.139  0.00  0.00    +0.151 HD
ATOM     28  H   UNL     1     -15.262   7.274  22.780  0.00  0.00    +0.151 HD
BRANCH   6  18
ATOM     18  C   UNL     1     -15.432   7.378  20.666  0.00  0.00    +0.141 C 
BRANCH  18  20
ATOM     20  C   UNL     1     -14.015   7.416  20.173  0.00  0.00    -0.030 A 
ATOM     22  C   UNL     1     -12.971   7.036  21.018  0.00  0.00    +0.005 A 
ATOM     23  C   UNL     1     -13.740   7.832  18.870  0.00  0.00    +0.005 A 
ATOM     24  C   UNL     1     -11.654   7.072  20.560  0.00  0.00    +0.000 A 
ATOM     25  C   UNL     1     -12.424   7.868  18.412  0.00  0.00    +0.000 A 
ATOM     26  C   UNL     1     -11.381   7.488  19.256  0.00  0.00    +0.000 A 
ENDBRANCH  18  20
ENDBRANCH   6  18
ENDBRANCH   9   4
BRANCH   8  11
ATOM     11  C   UNL     1     -17.564   2.755  27.046  0.00  0.00    +0.063 C 
BRANCH  11  14
ATOM      1  O   UNL     1     -15.578   0.182  28.613  0.00  0.00    -0.359 OA
ATOM      5  N   UNL     1     -16.455   0.634  27.635  0.00  0.00    -0.083 NA
ATOM     14  C   UNL     1     -16.651   1.925  27.916  0.00  0.00    +0.084 A 
ATOM     16  C   UNL     1     -15.932   2.339  29.051  0.00  0.00    +0.071 A 
ATOM     17  C   UNL     1     -15.274   1.206  29.451  0.00  0.00    +0.140 A 
BRANCH  17  19
ATOM     19  C   UNL     1     -14.352   0.901  30.551  0.00  0.00    +0.105 C 
BRANCH  19  21
ATOM     21  C   UNL     1     -14.921  -0.092  31.584  0.00  0.00    +0.163 C 
BRANCH  21   3
ATOM      3  O   UNL     1     -15.328  -1.280  30.919  0.00  0.00    -0.395 OA
ATOM     29  H   UNL     1     -15.537  -1.035  30.002  0.00  0.00    +0.209 HD
ENDBRANCH  21   3
ENDBRANCH  19  21
ENDBRANCH  17  19
ENDBRANCH  11  14
ENDBRANCH   8  11
TORSDOF 8
ENDMDL
MODEL 5
REMARK VINA RESULT:      -6.1     25.128     30.137
REMARK  Name = 56774285
REMARK  10 active torsions:
REMARK  status: ('A' for Active; 'I' for Inactive)
REMARK    1  A    between atoms: O_3  and  C_21
REMARK    2  A    between atoms: N_4  and  C_9
REMARK    3  A    between atoms: N_6  and  C_18
REMARK    4  A    between atoms: C_7  and  C_12
REMARK    5  A    between atoms: C_7  and  C_13
REMARK    6  A    between atoms: C_8  and  C_11
REMARK    7  A    between atoms: C_11  and  C_14
REMARK    8  A    between atoms: C_17  and  C_19
REMARK    9  A    between atoms: C_18  and  C_20
REMARK   10  A    between atoms: C_19  and  C_21
REMARK                            x       y       z     vdW  Elec       q    Type
REMARK                         _______ _______ _______ _____ _____    ______ ____
ROOT
ATOM      7  C   UNL     1       1.434   3.949  -5.956  0.00  0.00    -0.013 C 
ATOM      8  C   UNL     1       1.255   2.446  -6.258  0.00  0.00    +0.004 C 
ATOM      9  C   UNL     1       2.954   3.708  -6.051  0.00  0.00    +0.081 C 
ATOM     10  C   UNL     1       2.668   2.240  -5.674  0.00  0.00    +0.027 C 
ATOM     12  C   UNL     1       0.996   4.402  -4.576  0.00  0.00    +0.013 C 
ATOM     13  C   UNL     1       0.834   4.852  -7.011  0.00  0.00    +0.013 C 
ENDROOT
BRANCH   9   4
ATOM      2  O   UNL     1       5.351   5.239  -6.552  0.00  0.00    -0.253 OA
ATOM      4  N   UNL     1       3.776   4.422  -5.059  0.00  0.00    -0.296 N 
ATOM      6  N   UNL     1       5.515   5.718  -4.286  0.00  0.00    -0.295 N 
ATOM     15  C   UNL     1       4.922   5.137  -5.403  0.00  0.00    +0.300 C 
ATOM     27  H   UNL     1       3.523   4.401  -4.075  0.00  0.00    +0.151 HD
ATOM     28  H   UNL     1       5.100   5.558  -3.373  0.00  0.00    +0.151 HD
BRANCH   6  18
ATOM     18  C   UNL     1       6.717   6.513  -4.366  0.00  0.00    +0.141 C 
BRANCH  18  20
ATOM     20  C   UNL     1       7.884   5.837  -3.706  0.00  0.00    -0.030 A 
ATOM     22  C   UNL     1       8.319   6.264  -2.451  0.00  0.00    +0.005 A 
ATOM     23  C   UNL     1       8.533   4.782  -4.347  0.00  0.00    +0.005 A 
ATOM     24  C   UNL     1       9.404   5.636  -1.838  0.00  0.00    +0.000 A 
ATOM     25  C   UNL     1       9.616   4.154  -3.734  0.00  0.00    +0.000 A 
ATOM     26  C   UNL     1      10.052   4.580  -2.480  0.00  0.00    +0.000 A 
ENDBRANCH  18  20
ENDBRANCH   6  18
ENDBRANCH   9   4
BRANCH   8  11
ATOM     11  C   UNL     1       0.153   1.720  -5.523  0.00  0.00    +0.063 C 
BRANCH  11  14
ATOM      1  O   UNL     1      -1.767   0.242  -8.198  0.00  0.00    -0.359 OA
ATOM      5  N   UNL     1      -1.170   1.326  -7.566  0.00  0.00    -0.083 NA
ATOM     14  C   UNL     1      -0.602   0.816  -6.469  0.00  0.00    +0.084 A 
ATOM     16  C   UNL     1      -0.806  -0.570  -6.357  0.00  0.00    +0.071 A 
ATOM     17  C   UNL     1      -1.544  -0.882  -7.469  0.00  0.00    +0.140 A 
BRANCH  17  19
ATOM     19  C   UNL     1      -2.109  -2.128  -7.997  0.00  0.00    +0.105 C 
BRANCH  19  21
ATOM     21  C   UNL     1      -2.993  -2.888  -6.988  0.00  0.00    +0.163 C 
BRANCH  21   3
ATOM      3  O   UNL     1      -2.957  -4.277  -7.286  0.00  0.00    -0.395 OA
ATOM     29  H   UNL     1      -2.112  -4.451  -7.733  0.00  0.00    +0.209 HD
ENDBRANCH  21   3
ENDBRANCH  19  21
ENDBRANCH  17  19
ENDBRANCH  11  14
ENDBRANCH   8  11
TORSDOF 8
ENDMDL
MODEL 6
REMARK VINA RESULT:      -6.1     27.006     30.554
REMARK  Name = 56774285
REMARK  10 active torsions:
REMARK  status: ('A' for Active; 'I' for Inactive)
REMARK    1  A    between atoms: O_3  and  C_21
REMARK    2  A    between atoms: N_4  and  C_9
REMARK    3  A    between atoms: N_6  and  C_18
REMARK    4  A    between atoms: C_7  and  C_12
REMARK    5  A    between atoms: C_7  and  C_13
REMARK    6  A    between atoms: C_8  and  C_11
REMARK    7  A    between atoms: C_11  and  C_14
REMARK    8  A    between atoms: C_17  and  C_19
REMARK    9  A    between atoms: C_18  and  C_20
REMARK   10  A    between atoms: C_19  and  C_21
REMARK                            x       y       z     vdW  Elec       q    Type
REMARK                         _______ _______ _______ _____ _____    ______ ____
ROOT
ATOM      7  C   UNL     1     -10.549  -9.265  17.133  0.00  0.00    -0.013 C 
ATOM      8  C   UNL     1     -11.442  -8.064  16.753  0.00  0.00    +0.004 C 
ATOM      9  C   UNL     1      -9.346  -8.305  17.029  0.00  0.00    +0.081 C 
ATOM     10  C   UNL     1     -10.202  -7.460  16.062  0.00  0.00    +0.027 C 
ATOM     12  C   UNL     1     -10.490 -10.392  16.117  0.00  0.00    +0.013 C 
ATOM     13  C   UNL     1     -10.841  -9.823  18.508  0.00  0.00    +0.013 C 
ENDROOT
BRANCH   9   4
ATOM      2  O   UNL     1      -7.221  -9.747  18.348  0.00  0.00    -0.253 OA
ATOM      4  N   UNL     1      -8.134  -8.865  16.408  0.00  0.00    -0.296 N 
ATOM      6  N   UNL     1      -6.121  -9.977  16.317  0.00  0.00    -0.295 N 
ATOM     15  C   UNL     1      -7.161  -9.550  17.135  0.00  0.00    +0.300 C 
ATOM     27  H   UNL     1      -7.974  -8.756  15.410  0.00  0.00    +0.151 HD
ATOM     28  H   UNL     1      -6.148  -9.747  15.328  0.00  0.00    +0.151 HD
BRANCH   6  18
ATOM     18  C   UNL     1      -4.984 -10.710  16.820  0.00  0.00    +0.141 C 
BRANCH  18  20
ATOM     20  C   UNL     1      -3.823 -10.670  15.870  0.00  0.00    -0.030 A 
ATOM     22  C   UNL     1      -4.049 -10.649  14.493  0.00  0.00    +0.005 A 
ATOM     23  C   UNL     1      -2.518 -10.654  16.362  0.00  0.00    +0.005 A 
ATOM     24  C   UNL     1      -2.970 -10.613  13.609  0.00  0.00    +0.000 A 
ATOM     25  C   UNL     1      -1.440 -10.617  15.478  0.00  0.00    +0.000 A 
ATOM     26  C   UNL     1      -1.665 -10.596  14.102  0.00  0.00    +0.000 A 
ENDBRANCH  18  20
ENDBRANCH   6  18
ENDBRANCH   9   4
BRANCH   8  11
ATOM     11  C   UNL     1     -12.611  -8.335  15.835  0.00  0.00    +0.063 C 
BRANCH  11  14
ATOM      1  O   UNL     1     -13.258  -5.146  14.276  0.00  0.00    -0.359 OA
ATOM      5  N   UNL     1     -13.140  -5.970  15.388  0.00  0.00    -0.083 NA
ATOM     14  C   UNL     1     -12.823  -7.171  14.897  0.00  0.00    +0.084 A 
ATOM     16  C   UNL     1     -12.727  -7.166  13.495  0.00  0.00    +0.071 A 
ATOM     17  C   UNL     1     -13.010  -5.869  13.153  0.00  0.00    +0.140 A 
BRANCH  17  19
ATOM     19  C   UNL     1     -13.091  -5.149  11.878  0.00  0.00    +0.105 C 
BRANCH  19  21
ATOM     21  C   UNL     1     -12.014  -4.059  11.709  0.00  0.00    +0.163 C 
BRANCH  21   3
ATOM      3  O   UNL     1     -12.073  -3.165  12.812  0.00  0.00    -0.395 OA
ATOM     29  H   UNL     1     -12.387  -3.677  13.577  0.00  0.00    +0.209 HD
ENDBRANCH  21   3
ENDBRANCH  19  21
ENDBRANCH  17  19
ENDBRANCH  11  14
ENDBRANCH   8  11
TORSDOF 8
ENDMDL
MODEL 7
REMARK VINA RESULT:      -6.1     14.189     18.316
REMARK  Name = 56774285
REMARK  10 active torsions:
REMARK  status: ('A' for Active; 'I' for Inactive)
REMARK    1  A    between atoms: O_3  and  C_21
REMARK    2  A    between atoms: N_4  and  C_9
REMARK    3  A    between atoms: N_6  and  C_18
REMARK    4  A    between atoms: C_7  and  C_12
REMARK    5  A    between atoms: C_7  and  C_13
REMARK    6  A    between atoms: C_8  and  C_11
REMARK    7  A    between atoms: C_11  and  C_14
REMARK    8  A    between atoms: C_17  and  C_19
REMARK    9  A    between atoms: C_18  and  C_20
REMARK   10  A    between atoms: C_19  and  C_21
REMARK                            x       y       z     vdW  Elec       q    Type
REMARK                         _______ _______ _______ _____ _____    ______ ____
ROOT
ATOM      7  C   UNL     1      12.617   8.155   4.515  0.00  0.00    -0.013 C 
ATOM      8  C   UNL     1      11.276   8.409   5.236  0.00  0.00    +0.004 C 
ATOM      9  C   UNL     1      11.858   7.156   3.618  0.00  0.00    +0.081 C 
ATOM     10  C   UNL     1      10.852   6.998   4.776  0.00  0.00    +0.027 C 
ATOM     12  C   UNL     1      13.699   7.492   5.347  0.00  0.00    +0.013 C 
ATOM     13  C   UNL     1      13.173   9.382   3.826  0.00  0.00    +0.013 C 
ENDROOT
BRANCH   9   4
ATOM      2  O   UNL     1      13.656   6.719   1.401  0.00  0.00    -0.253 OA
ATOM      4  N   UNL     1      12.581   5.915   3.292  0.00  0.00    -0.296 N 
ATOM      6  N   UNL     1      13.990   4.533   2.107  0.00  0.00    -0.295 N 
ATOM     15  C   UNL     1      13.431   5.805   2.192  0.00  0.00    +0.300 C 
ATOM     27  H   UNL     1      12.466   5.088   3.872  0.00  0.00    +0.151 HD
ATOM     28  H   UNL     1      13.726   3.835   2.795  0.00  0.00    +0.151 HD
BRANCH   6  18
ATOM     18  C   UNL     1      14.907   4.153   1.059  0.00  0.00    +0.141 C 
BRANCH  18  20
ATOM     20  C   UNL     1      14.203   3.910  -0.244  0.00  0.00    -0.030 A 
ATOM     22  C   UNL     1      14.702   4.468  -1.422  0.00  0.00    +0.005 A 
ATOM     23  C   UNL     1      13.049   3.128  -0.278  0.00  0.00    +0.005 A 
ATOM     24  C   UNL     1      14.047   4.242  -2.633  0.00  0.00    +0.000 A 
ATOM     25  C   UNL     1      12.395   2.902  -1.489  0.00  0.00    +0.000 A 
ATOM     26  C   UNL     1      12.894   3.459  -2.666  0.00  0.00    +0.000 A 
ENDBRANCH  18  20
ENDBRANCH   6  18
ENDBRANCH   9   4
BRANCH   8  11
ATOM     11  C   UNL     1      11.322   8.602   6.733  0.00  0.00    +0.063 C 
BRANCH  11  14
ATOM      1  O   UNL     1       8.832   6.598   8.410  0.00  0.00    -0.359 OA
ATOM      5  N   UNL     1       9.270   7.780   7.825  0.00  0.00    -0.083 NA
ATOM     14  C   UNL     1      10.519   7.526   7.426  0.00  0.00    +0.084 A 
ATOM     16  C   UNL     1      10.921   6.213   7.730  0.00  0.00    +0.071 A 
ATOM     17  C   UNL     1       9.824   5.672   8.348  0.00  0.00    +0.140 A 
BRANCH  17  19
ATOM     19  C   UNL     1       9.528   4.355   8.924  0.00  0.00    +0.105 C 
BRANCH  19  21
ATOM     21  C   UNL     1       9.358   4.370  10.456  0.00  0.00    +0.163 C 
BRANCH  21   3
ATOM      3  O   UNL     1       8.124   4.992  10.786  0.00  0.00    -0.395 OA
ATOM     29  H   UNL     1       8.337   5.840  11.211  0.00  0.00    +0.209 HD
ENDBRANCH  21   3
ENDBRANCH  19  21
ENDBRANCH  17  19
ENDBRANCH  11  14
ENDBRANCH   8  11
TORSDOF 8
ENDMDL
MODEL 8
REMARK VINA RESULT:      -6.1      2.126      2.731
REMARK  Name = 56774285
REMARK  10 active torsions:
REMARK  status: ('A' for Active; 'I' for Inactive)
REMARK    1  A    between atoms: O_3  and  C_21
REMARK    2  A    between atoms: N_4  and  C_9
REMARK    3  A    between atoms: N_6  and  C_18
REMARK    4  A    between atoms: C_7  and  C_12
REMARK    5  A    between atoms: C_7  and  C_13
REMARK    6  A    between atoms: C_8  and  C_11
REMARK    7  A    between atoms: C_11  and  C_14
REMARK    8  A    between atoms: C_17  and  C_19
REMARK    9  A    between atoms: C_18  and  C_20
REMARK   10  A    between atoms: C_19  and  C_21
REMARK                            x       y       z     vdW  Elec       q    Type
REMARK                         _______ _______ _______ _____ _____    ______ ____
ROOT
ATOM      7  C   UNL     1      17.460   6.984  20.756  0.00  0.00    -0.013 C 
ATOM      8  C   UNL     1      16.272   6.932  19.772  0.00  0.00    +0.004 C 
ATOM      9  C   UNL     1      18.328   6.410  19.618  0.00  0.00    +0.081 C 
ATOM     10  C   UNL     1      17.032   5.810  19.035  0.00  0.00    +0.027 C 
ATOM     12  C   UNL     1      17.369   6.053  21.951  0.00  0.00    +0.013 C 
ATOM     13  C   UNL     1      17.803   8.384  21.216  0.00  0.00    +0.013 C 
ENDROOT
BRANCH   9   4
ATOM      2  O   UNL     1      21.114   6.846  20.241  0.00  0.00    -0.253 OA
ATOM      4  N   UNL     1      19.318   5.396  20.020  0.00  0.00    -0.296 N 
ATOM      6  N   UNL     1      21.373   4.576  20.657  0.00  0.00    -0.295 N 
ATOM     15  C   UNL     1      20.647   5.709  20.301  0.00  0.00    +0.300 C 
ATOM     27  H   UNL     1      19.048   4.418  20.095  0.00  0.00    +0.151 HD
ATOM     28  H   UNL     1      20.906   3.675  20.656  0.00  0.00    +0.151 HD
BRANCH   6  18
ATOM     18  C   UNL     1      22.775   4.624  20.997  0.00  0.00    +0.141 C 
BRANCH  18  20
ATOM     20  C   UNL     1      23.251   3.335  21.601  0.00  0.00    -0.030 A 
ATOM     22  C   UNL     1      23.029   3.074  22.954  0.00  0.00    +0.005 A 
ATOM     23  C   UNL     1      23.916   2.398  20.811  0.00  0.00    +0.005 A 
ATOM     24  C   UNL     1      23.472   1.876  23.515  0.00  0.00    +0.000 A 
ATOM     25  C   UNL     1      24.359   1.201  21.372  0.00  0.00    +0.000 A 
ATOM     26  C   UNL     1      24.137   0.940  22.724  0.00  0.00    +0.000 A 
ENDBRANCH  18  20
ENDBRANCH   6  18
ENDBRANCH   9   4
BRANCH   8  11
ATOM     11  C   UNL     1      14.928   6.528  20.331  0.00  0.00    +0.063 C 
BRANCH  11  14
ATOM      1  O   UNL     1      12.753   9.404  20.457  0.00  0.00    -0.359 OA
ATOM      5  N   UNL     1      13.335   8.330  19.795  0.00  0.00    -0.083 NA
ATOM     14  C   UNL     1      14.125   7.751  20.703  0.00  0.00    +0.084 A 
ATOM     16  C   UNL     1      14.083   8.409  21.944  0.00  0.00    +0.071 A 
ATOM     17  C   UNL     1      13.206   9.442  21.736  0.00  0.00    +0.140 A 
BRANCH  17  19
ATOM     19  C   UNL     1      12.688  10.522  22.583  0.00  0.00    +0.105 C 
BRANCH  19  21
ATOM     21  C   UNL     1      11.166  10.731  22.464  0.00  0.00    +0.163 C 
BRANCH  21   3
ATOM      3  O   UNL     1      10.519   9.466  22.436  0.00  0.00    -0.395 OA
ATOM     29  H   UNL     1      10.723   9.061  21.576  0.00  0.00    +0.209 HD
ENDBRANCH  21   3
ENDBRANCH  19  21
ENDBRANCH  17  19
ENDBRANCH  11  14
ENDBRANCH   8  11
TORSDOF 8
ENDMDL
MODEL 9
REMARK VINA RESULT:      -6.1     26.350     30.818
REMARK  Name = 56774285
REMARK  10 active torsions:
REMARK  status: ('A' for Active; 'I' for Inactive)
REMARK    1  A    between atoms: O_3  and  C_21
REMARK    2  A    between atoms: N_4  and  C_9
REMARK    3  A    between atoms: N_6  and  C_18
REMARK    4  A    between atoms: C_7  and  C_12
REMARK    5  A    between atoms: C_7  and  C_13
REMARK    6  A    between atoms: C_8  and  C_11
REMARK    7  A    between atoms: C_11  and  C_14
REMARK    8  A    between atoms: C_17  and  C_19
REMARK    9  A    between atoms: C_18  and  C_20
REMARK   10  A    between atoms: C_19  and  C_21
REMARK                            x       y       z     vdW  Elec       q    Type
REMARK                         _______ _______ _______ _____ _____    ______ ____
ROOT
ATOM      7  C   UNL     1       1.454   3.714  -6.042  0.00  0.00    -0.013 C 
ATOM      8  C   UNL     1       1.311   2.187  -6.220  0.00  0.00    +0.004 C 
ATOM      9  C   UNL     1       2.980   3.489  -6.012  0.00  0.00    +0.081 C 
ATOM     10  C   UNL     1       2.682   2.056  -5.525  0.00  0.00    +0.027 C 
ATOM     12  C   UNL     1       0.918   4.281  -4.741  0.00  0.00    +0.013 C 
ATOM     13  C   UNL     1       0.921   4.511  -7.212  0.00  0.00    +0.013 C 
ENDROOT
BRANCH   9   4
ATOM      2  O   UNL     1       4.021   6.156  -6.393  0.00  0.00    -0.253 OA
ATOM      4  N   UNL     1       3.725   4.301  -5.033  0.00  0.00    -0.296 N 
ATOM      6  N   UNL     1       4.858   6.135  -4.227  0.00  0.00    -0.295 N 
ATOM     15  C   UNL     1       4.187   5.585  -5.315  0.00  0.00    +0.300 C 
ATOM     27  H   UNL     1       3.929   3.928  -4.110  0.00  0.00    +0.151 HD
ATOM     28  H   UNL     1       4.965   5.578  -3.386  0.00  0.00    +0.151 HD
BRANCH   6  18
ATOM     18  C   UNL     1       5.437   7.457  -4.255  0.00  0.00    +0.141 C 
BRANCH  18  20
ATOM     20  C   UNL     1       4.842   8.354  -3.209  0.00  0.00    -0.030 A 
ATOM     22  C   UNL     1       5.145   8.152  -1.862  0.00  0.00    +0.005 A 
ATOM     23  C   UNL     1       3.986   9.390  -3.582  0.00  0.00    +0.005 A 
ATOM     24  C   UNL     1       4.592   8.985  -0.889  0.00  0.00    +0.000 A 
ATOM     25  C   UNL     1       3.434  10.224  -2.610  0.00  0.00    +0.000 A 
ATOM     26  C   UNL     1       3.737  10.021  -1.264  0.00  0.00    +0.000 A 
ENDBRANCH  18  20
ENDBRANCH   6  18
ENDBRANCH   9   4
BRANCH   8  11
ATOM     11  C   UNL     1       0.167   1.512  -5.500  0.00  0.00    +0.063 C 
BRANCH  11  14
ATOM      1  O   UNL     1      -1.828   0.181  -8.196  0.00  0.00    -0.359 OA
ATOM      5  N   UNL     1      -1.180   1.223  -7.543  0.00  0.00    -0.083 NA
ATOM     14  C   UNL     1      -0.631   0.664  -6.461  0.00  0.00    +0.084 A 
ATOM     16  C   UNL     1      -0.895  -0.714  -6.379  0.00  0.00    +0.071 A 
ATOM     17  C   UNL     1      -1.651  -0.968  -7.493  0.00  0.00    +0.140 A 
BRANCH  17  19
ATOM     19  C   UNL     1      -2.273  -2.176  -8.046  0.00  0.00    +0.105 C 
BRANCH  19  21
ATOM     21  C   UNL     1      -3.207  -2.904  -7.058  0.00  0.00    +0.163 C 
BRANCH  21   3
ATOM      3  O   UNL     1      -2.925  -4.296  -7.085  0.00  0.00    -0.395 OA
ATOM     29  H   UNL     1      -2.188  -4.449  -6.470  0.00  0.00    +0.209 HD
ENDBRANCH  21   3
ENDBRANCH  19  21
ENDBRANCH  17  19
ENDBRANCH  11  14
ENDBRANCH   8  11
TORSDOF 8
ENDMDL
MODEL 10
REMARK VINA RESULT:      -6.0     29.694     33.042
REMARK  Name = 56774285
REMARK  10 active torsions:
REMARK  status: ('A' for Active; 'I' for Inactive)
REMARK    1  A    between atoms: O_3  and  C_21
REMARK    2  A    between atoms: N_4  and  C_9
REMARK    3  A    between atoms: N_6  and  C_18
REMARK    4  A    between atoms: C_7  and  C_12
REMARK    5  A    between atoms: C_7  and  C_13
REMARK    6  A    between atoms: C_8  and  C_11
REMARK    7  A    between atoms: C_11  and  C_14
REMARK    8  A    between atoms: C_17  and  C_19
REMARK    9  A    between atoms: C_18  and  C_20
REMARK   10  A    between atoms: C_19  and  C_21
REMARK                            x       y       z     vdW  Elec       q    Type
REMARK                         _______ _______ _______ _____ _____    ______ ____
ROOT
ATOM      7  C   UNL     1     -14.863   6.014  21.751  0.00  0.00    -0.013 C 
ATOM      8  C   UNL     1     -14.468   7.479  21.466  0.00  0.00    +0.004 C 
ATOM      9  C   UNL     1     -15.574   6.534  23.018  0.00  0.00    +0.081 C 
ATOM     10  C   UNL     1     -14.597   7.728  22.983  0.00  0.00    +0.027 C 
ATOM     12  C   UNL     1     -13.718   5.070  22.066  0.00  0.00    +0.013 C 
ATOM     13  C   UNL     1     -15.753   5.411  20.687  0.00  0.00    +0.013 C 
ENDROOT
BRANCH   9   4
ATOM      2  O   UNL     1     -17.437   4.549  23.982  0.00  0.00    -0.253 OA
ATOM      4  N   UNL     1     -15.433   5.692  24.219  0.00  0.00    -0.296 N 
ATOM      6  N   UNL     1     -16.023   4.094  25.767  0.00  0.00    -0.295 N 
ATOM     15  C   UNL     1     -16.394   4.757  24.601  0.00  0.00    +0.300 C 
ATOM     27  H   UNL     1     -14.613   5.783  24.814  0.00  0.00    +0.151 HD
ATOM     28  H   UNL     1     -15.152   4.351  26.221  0.00  0.00    +0.151 HD
BRANCH   6  18
ATOM     18  C   UNL     1     -16.843   3.076  26.379  0.00  0.00    +0.141 C 
BRANCH  18  20
ATOM     20  C   UNL     1     -16.270   2.601  27.683  0.00  0.00    -0.030 A 
ATOM     22  C   UNL     1     -15.566   3.487  28.500  0.00  0.00    +0.005 A 
ATOM     23  C   UNL     1     -16.441   1.275  28.078  0.00  0.00    +0.005 A 
ATOM     24  C   UNL     1     -15.033   3.045  29.711  0.00  0.00    +0.000 A 
ATOM     25  C   UNL     1     -15.910   0.834  29.289  0.00  0.00    +0.000 A 
ATOM     26  C   UNL     1     -15.206   1.718  30.106  0.00  0.00    +0.000 A 
ENDBRANCH  18  20
ENDBRANCH   6  18
ENDBRANCH   9   4
BRANCH   8  11
ATOM     11  C   UNL     1     -13.090   7.725  20.898  0.00  0.00    +0.063 C 
BRANCH  11  14
ATOM      1  O   UNL     1     -14.079   8.334  17.481  0.00  0.00    -0.359 OA
ATOM      5  N   UNL     1     -14.362   8.130  18.826  0.00  0.00    -0.083 NA
ATOM     14  C   UNL     1     -13.172   7.970  19.410  0.00  0.00    +0.084 A 
ATOM     16  C   UNL     1     -12.110   8.061  18.493  0.00  0.00    +0.071 A 
ATOM     17  C   UNL     1     -12.734   8.291  17.294  0.00  0.00    +0.140 A 
BRANCH  17  19
ATOM     19  C   UNL     1     -12.257   8.489  15.921  0.00  0.00    +0.105 C 
BRANCH  19  21
ATOM     21  C   UNL     1     -10.726   8.628  15.809  0.00  0.00    +0.163 C 
BRANCH  21   3
ATOM      3  O   UNL     1     -10.152   7.345  15.601  0.00  0.00    -0.395 OA
ATOM     29  H   UNL     1      -9.189   7.447  15.688  0.00  0.00    +0.209 HD
ENDBRANCH  21   3
ENDBRANCH  19  21
ENDBRANCH  17  19
ENDBRANCH  11  14
ENDBRANCH   8  11
TORSDOF 8
ENDMDL
