MODEL 1
REMARK VINA RESULT:      -7.4      0.000      0.000
REMARK  Name = 45784225
REMARK  4 active torsions:
REMARK  status: ('A' for Active; 'I' for Inactive)
REMARK    1  A    between atoms: N_2  and  C_6
REMARK    2  A    between atoms: C_7  and  C_15
REMARK    3  A    between atoms: C_16  and  C_19
REMARK    4  A    between atoms: C_22  and  C_24
REMARK                            x       y       z     vdW  Elec       q    Type
REMARK                         _______ _______ _______ _____ _____    ______ ____
ROOT
ATOM      2  N   UNL     1      11.171   8.897  21.028  0.00  0.00    -0.299 NA
ATOM      7  C   UNL     1      12.736   7.476  20.010  0.00  0.00    +0.070 C 
ATOM      8  C   UNL     1      12.496   8.940  20.403  0.00  0.00    +0.096 C 
ATOM      9  C   UNL     1      11.192   7.702  21.873  0.00  0.00    +0.085 C 
ATOM     10  C   UNL     1      11.854   6.664  20.976  0.00  0.00    +0.028 C 
ENDROOT
BRANCH   7  15
ATOM      4  N   UNL     1      15.009   7.410  21.072  0.00  0.00    -0.342 N 
ATOM      5  N   UNL     1      14.849   6.459  19.069  0.00  0.00    -0.232 NA
ATOM     15  C   UNL     1      14.199   7.098  20.015  0.00  0.00    +0.113 A 
ATOM     17  C   UNL     1      16.266   6.941  20.788  0.00  0.00    +0.066 A 
ATOM     18  C   UNL     1      16.140   6.352  19.533  0.00  0.00    +0.089 A 
ATOM     20  C   UNL     1      17.465   6.981  21.499  0.00  0.00    +0.031 A 
ATOM     21  C   UNL     1      17.268   5.762  18.937  0.00  0.00    +0.030 A 
ATOM     22  C   UNL     1      18.577   6.388  20.891  0.00  0.00    -0.048 A 
ATOM     23  C   UNL     1      18.483   5.789  19.633  0.00  0.00    +0.005 A 
ATOM     24  C   UNL     1      19.890   6.398  21.603  0.00  0.00    +0.044 C 
ATOM     25  H   UNL     1      14.735   7.898  21.913  0.00  0.00    +0.167 HD
ENDBRANCH   7  15
BRANCH   2   6
ATOM      1  O   UNL     1      13.251  14.013  23.730  0.00  0.00    -0.276 OA
ATOM      3  N   UNL     1      11.731  12.270  23.512  0.00  0.00    -0.302 N 
ATOM      6  C   UNL     1      10.873  10.109  21.786  0.00  0.00    +0.060 C 
ATOM     11  C   UNL     1      11.159   9.882  23.276  0.00  0.00    +0.038 C 
ATOM     12  C   UNL     1      11.706  11.281  21.253  0.00  0.00    +0.038 C 
ATOM     13  C   UNL     1      10.945  11.166  24.077  0.00  0.00    +0.109 C 
ATOM     14  C   UNL     1      11.481  12.537  22.093  0.00  0.00    +0.109 C 
ATOM     16  C   UNL     1      12.629  13.067  24.221  0.00  0.00    +0.212 C 
ATOM     19  C   UNL     1      12.833  12.725  25.675  0.00  0.00    +0.109 C 
ENDBRANCH   2   6
TORSDOF 2
ENDMDL
MODEL 2
REMARK VINA RESULT:      -7.2      3.299      5.713
REMARK  Name = 45784225
REMARK  4 active torsions:
REMARK  status: ('A' for Active; 'I' for Inactive)
REMARK    1  A    between atoms: N_2  and  C_6
REMARK    2  A    between atoms: C_7  and  C_15
REMARK    3  A    between atoms: C_16  and  C_19
REMARK    4  A    between atoms: C_22  and  C_24
REMARK                            x       y       z     vdW  Elec       q    Type
REMARK                         _______ _______ _______ _____ _____    ______ ____
ROOT
ATOM      2  N   UNL     1      16.631   7.331  20.391  0.00  0.00    -0.299 NA
ATOM      7  C   UNL     1      18.843   6.603  20.115  0.00  0.00    +0.070 C 
ATOM      8  C   UNL     1      17.898   7.269  21.124  0.00  0.00    +0.096 C 
ATOM      9  C   UNL     1      16.513   6.031  19.730  0.00  0.00    +0.085 C 
ATOM     10  C   UNL     1      17.916   5.800  19.184  0.00  0.00    +0.028 C 
ENDROOT
BRANCH   7  15
ATOM      4  N   UNL     1      20.463   4.687  20.172  0.00  0.00    -0.342 N 
ATOM      5  N   UNL     1      20.488   6.027  21.944  0.00  0.00    -0.232 NA
ATOM     15  C   UNL     1      19.935   5.793  20.776  0.00  0.00    +0.113 A 
ATOM     17  C   UNL     1      21.422   4.172  21.006  0.00  0.00    +0.066 A 
ATOM     18  C   UNL     1      21.419   5.026  22.105  0.00  0.00    +0.089 A 
ATOM     20  C   UNL     1      22.266   3.067  20.896  0.00  0.00    +0.031 A 
ATOM     21  C   UNL     1      22.303   4.777  23.168  0.00  0.00    +0.030 A 
ATOM     22  C   UNL     1      23.141   2.835  21.963  0.00  0.00    -0.048 A 
ATOM     23  C   UNL     1      23.160   3.673  23.080  0.00  0.00    +0.005 A 
ATOM     24  C   UNL     1      24.070   1.666  21.905  0.00  0.00    +0.044 C 
ATOM     25  H   UNL     1      20.198   4.312  19.271  0.00  0.00    +0.167 HD
ENDBRANCH   7  15
BRANCH   2   6
ATOM      1  O   UNL     1      10.682   8.790  20.920  0.00  0.00    -0.276 OA
ATOM      3  N   UNL     1      12.874   8.771  21.686  0.00  0.00    -0.302 N 
ATOM      6  C   UNL     1      15.495   7.615  21.265  0.00  0.00    +0.060 C 
ATOM     11  C   UNL     1      15.297   9.131  21.395  0.00  0.00    +0.038 C 
ATOM     12  C   UNL     1      14.227   6.954  20.712  0.00  0.00    +0.038 C 
ATOM     13  C   UNL     1      14.057   9.452  22.228  0.00  0.00    +0.109 C 
ATOM     14  C   UNL     1      13.008   7.318  21.558  0.00  0.00    +0.109 C 
ATOM     16  C   UNL     1      11.674   9.391  21.340  0.00  0.00    +0.212 C 
ATOM     19  C   UNL     1      11.617  10.889  21.497  0.00  0.00    +0.109 C 
ENDBRANCH   2   6
TORSDOF 2
ENDMDL
MODEL 3
REMARK VINA RESULT:      -7.1     27.320     30.202
REMARK  Name = 45784225
REMARK  4 active torsions:
REMARK  status: ('A' for Active; 'I' for Inactive)
REMARK    1  A    between atoms: N_2  and  C_6
REMARK    2  A    between atoms: C_7  and  C_15
REMARK    3  A    between atoms: C_16  and  C_19
REMARK    4  A    between atoms: C_22  and  C_24
REMARK                            x       y       z     vdW  Elec       q    Type
REMARK                         _______ _______ _______ _____ _____    ______ ____
ROOT
ATOM      2  N   UNL     1     -17.391   2.870  26.030  0.00  0.00    -0.299 NA
ATOM      7  C   UNL     1     -17.022   4.119  24.079  0.00  0.00    +0.070 C 
ATOM      8  C   UNL     1     -17.000   4.218  25.611  0.00  0.00    +0.096 C 
ATOM      9  C   UNL     1     -16.646   1.970  25.149  0.00  0.00    +0.085 C 
ATOM     10  C   UNL     1     -16.806   2.624  23.783  0.00  0.00    +0.028 C 
ENDROOT
BRANCH   7  15
ATOM      4  N   UNL     1     -14.940   4.563  22.749  0.00  0.00    -0.342 N 
ATOM      5  N   UNL     1     -16.081   6.360  23.389  0.00  0.00    -0.232 NA
ATOM     15  C   UNL     1     -16.031   5.048  23.415  0.00  0.00    +0.113 A 
ATOM     17  C   UNL     1     -14.239   5.635  22.260  0.00  0.00    +0.066 A 
ATOM     18  C   UNL     1     -14.970   6.745  22.672  0.00  0.00    +0.089 A 
ATOM     20  C   UNL     1     -13.062   5.725  21.515  0.00  0.00    +0.031 A 
ATOM     21  C   UNL     1     -14.517   8.030  22.330  0.00  0.00    +0.030 A 
ATOM     22  C   UNL     1     -12.626   7.012  21.183  0.00  0.00    -0.048 A 
ATOM     23  C   UNL     1     -13.338   8.145  21.582  0.00  0.00    +0.005 A 
ATOM     24  C   UNL     1     -11.373   7.175  20.386  0.00  0.00    +0.044 C 
ATOM     25  H   UNL     1     -14.692   3.590  22.635  0.00  0.00    +0.167 HD
ENDBRANCH   7  15
BRANCH   2   6
ATOM      1  O   UNL     1     -13.246   2.565  30.561  0.00  0.00    -0.276 OA
ATOM      3  N   UNL     1     -15.252   1.957  29.558  0.00  0.00    -0.302 N 
ATOM      6  C   UNL     1     -17.112   2.623  27.442  0.00  0.00    +0.060 C 
ATOM     11  C   UNL     1     -16.592   1.192  27.634  0.00  0.00    +0.038 C 
ATOM     12  C   UNL     1     -16.088   3.640  27.962  0.00  0.00    +0.038 C 
ATOM     13  C   UNL     1     -16.204   0.941  29.091  0.00  0.00    +0.109 C 
ATOM     14  C   UNL     1     -15.709   3.340  29.412  0.00  0.00    +0.109 C 
ATOM     16  C   UNL     1     -14.013   1.693  30.142  0.00  0.00    +0.212 C 
ATOM     19  C   UNL     1     -13.614   0.244  30.255  0.00  0.00    +0.109 C 
ENDBRANCH   2   6
TORSDOF 2
ENDMDL
MODEL 4
REMARK VINA RESULT:      -6.9     26.782     29.348
REMARK  Name = 45784225
REMARK  4 active torsions:
REMARK  status: ('A' for Active; 'I' for Inactive)
REMARK    1  A    between atoms: N_2  and  C_6
REMARK    2  A    between atoms: C_7  and  C_15
REMARK    3  A    between atoms: C_16  and  C_19
REMARK    4  A    between atoms: C_22  and  C_24
REMARK                            x       y       z     vdW  Elec       q    Type
REMARK                         _______ _______ _______ _____ _____    ______ ____
ROOT
ATOM      2  N   UNL     1      -4.142 -10.910  15.895  0.00  0.00    -0.299 NA
ATOM      7  C   UNL     1      -5.810 -10.027  17.288  0.00  0.00    +0.070 C 
ATOM      8  C   UNL     1      -5.233  -9.933  15.869  0.00  0.00    +0.096 C 
ATOM      9  C   UNL     1      -4.691 -12.070  16.597  0.00  0.00    +0.085 C 
ATOM     10  C   UNL     1      -5.429 -11.439  17.770  0.00  0.00    +0.028 C 
ENDROOT
BRANCH   7  15
ATOM      4  N   UNL     1      -7.851  -8.797  16.502  0.00  0.00    -0.342 N 
ATOM      5  N   UNL     1      -8.171 -10.241  18.161  0.00  0.00    -0.232 NA
ATOM     15  C   UNL     1      -7.287  -9.712  17.346  0.00  0.00    +0.113 A 
ATOM     17  C   UNL     1      -9.190  -8.730  16.792  0.00  0.00    +0.066 A 
ATOM     18  C   UNL     1      -9.365  -9.641  17.830  0.00  0.00    +0.089 A 
ATOM     20  C   UNL     1     -10.230  -7.975  16.251  0.00  0.00    +0.031 A 
ATOM     21  C   UNL     1     -10.647  -9.821  18.374  0.00  0.00    +0.030 A 
ATOM     22  C   UNL     1     -11.501  -8.168  16.804  0.00  0.00    -0.048 A 
ATOM     23  C   UNL     1     -11.708  -9.074  17.847  0.00  0.00    +0.005 A 
ATOM     24  C   UNL     1     -12.657  -7.389  16.267  0.00  0.00    +0.044 C 
ATOM     25  H   UNL     1      -7.371  -8.263  15.790  0.00  0.00    +0.167 HD
ENDBRANCH   7  15
BRANCH   2   6
ATOM      1  O   UNL     1      -1.397  -9.062  10.714  0.00  0.00    -0.276 OA
ATOM      3  N   UNL     1      -2.851 -10.431  11.900  0.00  0.00    -0.302 N 
ATOM      6  C   UNL     1      -3.662 -11.246  14.557  0.00  0.00    +0.060 C 
ATOM     11  C   UNL     1      -4.687 -10.804  13.504  0.00  0.00    +0.038 C 
ATOM     12  C   UNL     1      -2.307 -10.575  14.300  0.00  0.00    +0.038 C 
ATOM     13  C   UNL     1      -4.165 -11.059  12.090  0.00  0.00    +0.109 C 
ATOM     14  C   UNL     1      -1.832 -10.834  12.871  0.00  0.00    +0.109 C 
ATOM     16  C   UNL     1      -2.520  -9.547  10.873  0.00  0.00    +0.212 C 
ATOM     19  C   UNL     1      -3.626  -9.180   9.915  0.00  0.00    +0.109 C 
ENDBRANCH   2   6
TORSDOF 2
ENDMDL
MODEL 5
REMARK VINA RESULT:      -6.6     26.281     29.339
REMARK  Name = 45784225
REMARK  4 active torsions:
REMARK  status: ('A' for Active; 'I' for Inactive)
REMARK    1  A    between atoms: N_2  and  C_6
REMARK    2  A    between atoms: C_7  and  C_15
REMARK    3  A    between atoms: C_16  and  C_19
REMARK    4  A    between atoms: C_22  and  C_24
REMARK                            x       y       z     vdW  Elec       q    Type
REMARK                         _______ _______ _______ _____ _____    ______ ____
ROOT
ATOM      2  N   UNL     1     -14.536   6.247  21.671  0.00  0.00    -0.299 NA
ATOM      7  C   UNL     1     -15.750   4.466  22.597  0.00  0.00    +0.070 C 
ATOM      8  C   UNL     1     -14.333   5.044  22.482  0.00  0.00    +0.096 C 
ATOM      9  C   UNL     1     -15.747   6.865  22.211  0.00  0.00    +0.085 C 
ATOM     10  C   UNL     1     -16.681   5.677  22.397  0.00  0.00    +0.028 C 
ENDROOT
BRANCH   7  15
ATOM      4  N   UNL     1     -15.787   4.291  25.100  0.00  0.00    -0.342 N 
ATOM      5  N   UNL     1     -16.347   2.447  23.993  0.00  0.00    -0.232 NA
ATOM     15  C   UNL     1     -15.972   3.700  23.881  0.00  0.00    +0.113 A 
ATOM     17  C   UNL     1     -16.062   3.355  26.064  0.00  0.00    +0.066 A 
ATOM     18  C   UNL     1     -16.409   2.212  25.348  0.00  0.00    +0.089 A 
ATOM     20  C   UNL     1     -16.037   3.408  27.458  0.00  0.00    +0.031 A 
ATOM     21  C   UNL     1     -16.755   1.044  26.048  0.00  0.00    +0.030 A 
ATOM     22  C   UNL     1     -16.386   2.236  28.138  0.00  0.00    -0.048 A 
ATOM     23  C   UNL     1     -16.738   1.074  27.448  0.00  0.00    +0.005 A 
ATOM     24  C   UNL     1     -16.379   2.229  29.632  0.00  0.00    +0.044 C 
ATOM     25  H   UNL     1     -15.500   5.246  25.266  0.00  0.00    +0.167 HD
ENDBRANCH   7  15
BRANCH   2   6
ATOM      1  O   UNL     1     -11.638  11.131  19.315  0.00  0.00    -0.276 OA
ATOM      3  N   UNL     1     -11.669   9.091  20.427  0.00  0.00    -0.302 N 
ATOM      6  C   UNL     1     -13.386   7.147  21.712  0.00  0.00    +0.060 C 
ATOM     11  C   UNL     1     -12.356   6.733  20.653  0.00  0.00    +0.038 C 
ATOM     12  C   UNL     1     -13.842   8.593  21.480  0.00  0.00    +0.038 C 
ATOM     13  C   UNL     1     -11.187   7.717  20.613  0.00  0.00    +0.109 C 
ATOM     14  C   UNL     1     -12.644   9.540  21.423  0.00  0.00    +0.109 C 
ATOM     16  C   UNL     1     -11.244   9.967  19.428  0.00  0.00    +0.212 C 
ATOM     19  C   UNL     1     -10.241   9.429  18.439  0.00  0.00    +0.109 C 
ENDBRANCH   2   6
TORSDOF 2
ENDMDL
MODEL 6
REMARK VINA RESULT:      -6.6      1.858      3.034
REMARK  Name = 45784225
REMARK  4 active torsions:
REMARK  status: ('A' for Active; 'I' for Inactive)
REMARK    1  A    between atoms: N_2  and  C_6
REMARK    2  A    between atoms: C_7  and  C_15
REMARK    3  A    between atoms: C_16  and  C_19
REMARK    4  A    between atoms: C_22  and  C_24
REMARK                            x       y       z     vdW  Elec       q    Type
REMARK                         _______ _______ _______ _____ _____    ______ ____
ROOT
ATOM      2  N   UNL     1      14.105   8.840  19.928  0.00  0.00    -0.299 NA
ATOM      7  C   UNL     1      15.902   7.370  19.594  0.00  0.00    +0.070 C 
ATOM      8  C   UNL     1      15.570   8.831  19.926  0.00  0.00    +0.096 C 
ATOM      9  C   UNL     1      13.721   7.619  20.637  0.00  0.00    +0.085 C 
ATOM     10  C   UNL     1      14.664   6.576  20.051  0.00  0.00    +0.028 C 
ENDROOT
BRANCH   7  15
ATOM      4  N   UNL     1      18.010   6.009  19.555  0.00  0.00    -0.342 N 
ATOM      5  N   UNL     1      17.719   7.290  21.347  0.00  0.00    -0.232 NA
ATOM     15  C   UNL     1      17.209   6.911  20.198  0.00  0.00    +0.113 A 
ATOM     17  C   UNL     1      19.112   5.793  20.342  0.00  0.00    +0.066 A 
ATOM     18  C   UNL     1      18.907   6.603  21.455  0.00  0.00    +0.089 A 
ATOM     20  C   UNL     1      20.236   4.982  20.181  0.00  0.00    +0.031 A 
ATOM     21  C   UNL     1      19.870   6.619  22.477  0.00  0.00    +0.030 A 
ATOM     22  C   UNL     1      21.185   5.010  21.209  0.00  0.00    -0.048 A 
ATOM     23  C   UNL     1      21.007   5.814  22.338  0.00  0.00    +0.005 A 
ATOM     24  C   UNL     1      22.410   4.164  21.094  0.00  0.00    +0.044 C 
ATOM     25  H   UNL     1      17.827   5.577  18.659  0.00  0.00    +0.167 HD
ENDBRANCH   7  15
BRANCH   2   6
ATOM      1  O   UNL     1      13.264  12.153  25.039  0.00  0.00    -0.276 OA
ATOM      3  N   UNL     1      12.651  11.461  22.908  0.00  0.00    -0.302 N 
ATOM      6  C   UNL     1      13.556  10.041  20.552  0.00  0.00    +0.060 C 
ATOM     11  C   UNL     1      12.209   9.723  21.214  0.00  0.00    +0.038 C 
ATOM     12  C   UNL     1      14.545  10.595  21.587  0.00  0.00    +0.038 C 
ATOM     13  C   UNL     1      11.661  10.942  21.955  0.00  0.00    +0.109 C 
ATOM     14  C   UNL     1      13.951  11.796  22.321  0.00  0.00    +0.109 C 
ATOM     16  C   UNL     1      12.426  11.681  24.266  0.00  0.00    +0.212 C 
ATOM     19  C   UNL     1      11.064  11.307  24.794  0.00  0.00    +0.109 C 
ENDBRANCH   2   6
TORSDOF 2
ENDMDL
MODEL 7
REMARK VINA RESULT:      -6.6     16.738     19.814
REMARK  Name = 45784225
REMARK  4 active torsions:
REMARK  status: ('A' for Active; 'I' for Inactive)
REMARK    1  A    between atoms: N_2  and  C_6
REMARK    2  A    between atoms: C_7  and  C_15
REMARK    3  A    between atoms: C_16  and  C_19
REMARK    4  A    between atoms: C_22  and  C_24
REMARK                            x       y       z     vdW  Elec       q    Type
REMARK                         _______ _______ _______ _____ _____    ______ ____
ROOT
ATOM      2  N   UNL     1      14.371   6.774   2.622  0.00  0.00    -0.299 NA
ATOM      7  C   UNL     1      13.002   7.762   4.250  0.00  0.00    +0.070 C 
ATOM      8  C   UNL     1      12.990   6.735   3.110  0.00  0.00    +0.096 C 
ATOM      9  C   UNL     1      15.197   6.807   3.829  0.00  0.00    +0.085 C 
ATOM     10  C   UNL     1      14.471   7.817   4.708  0.00  0.00    +0.028 C 
ENDROOT
BRANCH   7  15
ATOM      4  N   UNL     1      12.112   6.295   6.082  0.00  0.00    -0.342 N 
ATOM      5  N   UNL     1      10.978   8.169   5.707  0.00  0.00    -0.232 NA
ATOM     15  C   UNL     1      12.008   7.440   5.343  0.00  0.00    +0.113 A 
ATOM     17  C   UNL     1      11.079   6.284   6.983  0.00  0.00    +0.066 A 
ATOM     18  C   UNL     1      10.386   7.464   6.730  0.00  0.00    +0.089 A 
ATOM     20  C   UNL     1      10.704   5.371   7.969  0.00  0.00    +0.031 A 
ATOM     21  C   UNL     1       9.248   7.768   7.496  0.00  0.00    +0.030 A 
ATOM     22  C   UNL     1       9.569   5.690   8.723  0.00  0.00    -0.048 A 
ATOM     23  C   UNL     1       8.852   6.866   8.491  0.00  0.00    +0.005 A 
ATOM     24  C   UNL     1       9.116   4.752   9.793  0.00  0.00    +0.044 C 
ATOM     25  H   UNL     1      12.821   5.581   5.984  0.00  0.00    +0.167 HD
ENDBRANCH   7  15
BRANCH   2   6
ATOM      1  O   UNL     1      14.050   4.184  -2.945  0.00  0.00    -0.276 OA
ATOM      3  N   UNL     1      14.201   4.079  -0.630  0.00  0.00    -0.302 N 
ATOM      6  C   UNL     1      14.690   5.637   1.761  0.00  0.00    +0.060 C 
ATOM     11  C   UNL     1      13.473   4.710   1.641  0.00  0.00    +0.038 C 
ATOM     12  C   UNL     1      15.125   6.132   0.376  0.00  0.00    +0.038 C 
ATOM     13  C   UNL     1      13.752   3.563   0.670  0.00  0.00    +0.109 C 
ATOM     14  C   UNL     1      15.371   4.958  -0.570  0.00  0.00    +0.109 C 
ATOM     16  C   UNL     1      13.630   3.766  -1.863  0.00  0.00    +0.212 C 
ATOM     19  C   UNL     1      12.427   2.857  -1.839  0.00  0.00    +0.109 C 
ENDBRANCH   2   6
TORSDOF 2
ENDMDL
MODEL 8
REMARK VINA RESULT:      -6.5     27.206     29.659
REMARK  Name = 45784225
REMARK  4 active torsions:
REMARK  status: ('A' for Active; 'I' for Inactive)
REMARK    1  A    between atoms: N_2  and  C_6
REMARK    2  A    between atoms: C_7  and  C_15
REMARK    3  A    between atoms: C_16  and  C_19
REMARK    4  A    between atoms: C_22  and  C_24
REMARK                            x       y       z     vdW  Elec       q    Type
REMARK                         _______ _______ _______ _____ _____    ______ ____
ROOT
ATOM      2  N   UNL     1     -11.529  -8.139  16.033  0.00  0.00    -0.299 NA
ATOM      7  C   UNL     1      -9.593  -9.306  16.659  0.00  0.00    +0.070 C 
ATOM      8  C   UNL     1     -10.561  -9.094  15.488  0.00  0.00    +0.096 C 
ATOM      9  C   UNL     1     -10.722  -7.156  16.757  0.00  0.00    +0.085 C 
ATOM     10  C   UNL     1      -9.720  -8.025  17.505  0.00  0.00    +0.028 C 
ENDROOT
BRANCH   7  15
ATOM      4  N   UNL     1      -7.150  -9.676  17.099  0.00  0.00    -0.342 N 
ATOM      5  N   UNL     1      -7.797  -9.903  14.985  0.00  0.00    -0.232 NA
ATOM     15  C   UNL     1      -8.188  -9.633  16.210  0.00  0.00    +0.113 A 
ATOM     17  C   UNL     1      -6.014  -9.996  16.401  0.00  0.00    +0.066 A 
ATOM     18  C   UNL     1      -6.444 -10.133  15.084  0.00  0.00    +0.089 A 
ATOM     20  C   UNL     1      -4.688 -10.171  16.797  0.00  0.00    +0.031 A 
ATOM     21  C   UNL     1      -5.509 -10.465  14.089  0.00  0.00    +0.030 A 
ATOM     22  C   UNL     1      -3.771 -10.502  15.793  0.00  0.00    -0.048 A 
ATOM     23  C   UNL     1      -4.172 -10.646  14.463  0.00  0.00    +0.005 A 
ATOM     24  C   UNL     1      -2.335 -10.704  16.154  0.00  0.00    +0.044 C 
ATOM     25  H   UNL     1      -7.206  -9.504  18.094  0.00  0.00    +0.167 HD
ENDBRANCH   7  15
BRANCH   2   6
ATOM      1  O   UNL     1     -11.809  -5.277  10.599  0.00  0.00    -0.276 OA
ATOM      3  N   UNL     1     -12.625  -5.754  12.721  0.00  0.00    -0.302 N 
ATOM      6  C   UNL     1     -12.353  -7.526  14.994  0.00  0.00    +0.060 C 
ATOM     11  C   UNL     1     -12.363  -6.001  15.161  0.00  0.00    +0.038 C 
ATOM     12  C   UNL     1     -11.822  -7.910  13.607  0.00  0.00    +0.038 C 
ATOM     13  C   UNL     1     -13.141  -5.331  14.029  0.00  0.00    +0.109 C 
ATOM     14  C   UNL     1     -12.610  -7.202  12.506  0.00  0.00    +0.109 C 
ATOM     16  C   UNL     1     -12.205  -4.897  11.704  0.00  0.00    +0.212 C 
ATOM     19  C   UNL     1     -12.248  -3.420  12.005  0.00  0.00    +0.109 C 
ENDBRANCH   2   6
TORSDOF 2
ENDMDL
MODEL 9
REMARK VINA RESULT:      -6.5     27.776     30.051
REMARK  Name = 45784225
REMARK  4 active torsions:
REMARK  status: ('A' for Active; 'I' for Inactive)
REMARK    1  A    between atoms: N_2  and  C_6
REMARK    2  A    between atoms: C_7  and  C_15
REMARK    3  A    between atoms: C_16  and  C_19
REMARK    4  A    between atoms: C_22  and  C_24
REMARK                            x       y       z     vdW  Elec       q    Type
REMARK                         _______ _______ _______ _____ _____    ______ ____
ROOT
ATOM      2  N   UNL     1     -11.414  -8.061  15.637  0.00  0.00    -0.299 NA
ATOM      7  C   UNL     1     -10.020  -9.478  16.883  0.00  0.00    +0.070 C 
ATOM      8  C   UNL     1     -10.310  -9.006  15.452  0.00  0.00    +0.096 C 
ATOM      9  C   UNL     1     -11.044  -7.276  16.815  0.00  0.00    +0.085 C 
ATOM     10  C   UNL     1     -10.527  -8.334  17.780  0.00  0.00    +0.028 C 
ENDROOT
BRANCH   7  15
ATOM      4  N   UNL     1      -8.188 -10.612  18.170  0.00  0.00    -0.342 N 
ATOM      5  N   UNL     1      -7.556  -9.539  16.330  0.00  0.00    -0.232 NA
ATOM     15  C   UNL     1      -8.573  -9.859  17.096  0.00  0.00    +0.113 A 
ATOM     17  C   UNL     1      -6.831 -10.790  18.091  0.00  0.00    +0.066 A 
ATOM     18  C   UNL     1      -6.460 -10.112  16.934  0.00  0.00    +0.089 A 
ATOM     20  C   UNL     1      -5.925 -11.467  18.907  0.00  0.00    +0.031 A 
ATOM     21  C   UNL     1      -5.108 -10.096  16.553  0.00  0.00    +0.030 A 
ATOM     22  C   UNL     1      -4.582 -11.442  18.512  0.00  0.00    -0.048 A 
ATOM     23  C   UNL     1      -4.179 -10.768  17.357  0.00  0.00    +0.005 A 
ATOM     24  C   UNL     1      -3.563 -12.148  19.345  0.00  0.00    +0.044 C 
ATOM     25  H   UNL     1      -8.793 -10.975  18.895  0.00  0.00    +0.167 HD
ENDBRANCH   7  15
BRANCH   2   6
ATOM      1  O   UNL     1     -14.357  -3.304  13.087  0.00  0.00    -0.276 OA
ATOM      3  N   UNL     1     -13.277  -5.358  12.977  0.00  0.00    -0.302 N 
ATOM      6  C   UNL     1     -11.637  -7.227  14.459  0.00  0.00    +0.060 C 
ATOM     11  C   UNL     1     -12.908  -7.678  13.727  0.00  0.00    +0.038 C 
ATOM     12  C   UNL     1     -11.751  -5.754  14.872  0.00  0.00    +0.038 C 
ATOM     13  C   UNL     1     -13.214  -6.760  12.544  0.00  0.00    +0.109 C 
ATOM     14  C   UNL     1     -12.080  -4.873  13.667  0.00  0.00    +0.109 C 
ATOM     16  C   UNL     1     -14.344  -4.489  12.745  0.00  0.00    +0.212 C 
ATOM     19  C   UNL     1     -15.541  -5.065  12.030  0.00  0.00    +0.109 C 
ENDBRANCH   2   6
TORSDOF 2
ENDMDL
MODEL 10
REMARK VINA RESULT:      -6.5     27.120     29.105
REMARK  Name = 45784225
REMARK  4 active torsions:
REMARK  status: ('A' for Active; 'I' for Inactive)
REMARK    1  A    between atoms: N_2  and  C_6
REMARK    2  A    between atoms: C_7  and  C_15
REMARK    3  A    between atoms: C_16  and  C_19
REMARK    4  A    between atoms: C_22  and  C_24
REMARK                            x       y       z     vdW  Elec       q    Type
REMARK                         _______ _______ _______ _____ _____    ______ ____
ROOT
ATOM      2  N   UNL     1      -4.485 -12.464  17.185  0.00  0.00    -0.299 NA
ATOM      7  C   UNL     1      -3.325 -11.699  15.295  0.00  0.00    +0.070 C 
ATOM      8  C   UNL     1      -4.532 -12.545  15.723  0.00  0.00    +0.096 C 
ATOM      9  C   UNL     1      -4.187 -11.061  17.475  0.00  0.00    +0.085 C 
ATOM     10  C   UNL     1      -3.092 -10.732  16.470  0.00  0.00    +0.028 C 
ENDROOT
BRANCH   7  15
ATOM      4  N   UNL     1      -4.729 -10.511  13.588  0.00  0.00    -0.342 N 
ATOM      5  N   UNL     1      -2.613 -10.875  13.015  0.00  0.00    -0.232 NA
ATOM     15  C   UNL     1      -3.519 -11.033  13.952  0.00  0.00    +0.113 A 
ATOM     17  C   UNL     1      -4.594  -9.980  12.331  0.00  0.00    +0.066 A 
ATOM     18  C   UNL     1      -3.264 -10.220  11.995  0.00  0.00    +0.089 A 
ATOM     20  C   UNL     1      -5.493  -9.331  11.485  0.00  0.00    +0.031 A 
ATOM     21  C   UNL     1      -2.786  -9.793  10.745  0.00  0.00    +0.030 A 
ATOM     22  C   UNL     1      -4.999  -8.912  10.244  0.00  0.00    -0.048 A 
ATOM     23  C   UNL     1      -3.670  -9.138   9.879  0.00  0.00    +0.005 A 
ATOM     24  C   UNL     1      -5.913  -8.211   9.294  0.00  0.00    +0.044 C 
ATOM     25  H   UNL     1      -5.575 -10.513  14.143  0.00  0.00    +0.167 HD
ENDBRANCH   7  15
BRANCH   2   6
ATOM      1  O   UNL     1     -10.557 -11.743  17.824  0.00  0.00    -0.276 OA
ATOM      3  N   UNL     1      -8.467 -12.400  18.597  0.00  0.00    -0.302 N 
ATOM      6  C   UNL     1      -5.729 -12.909  17.808  0.00  0.00    +0.060 C 
ATOM     11  C   UNL     1      -6.066 -12.014  19.008  0.00  0.00    +0.038 C 
ATOM     12  C   UNL     1      -6.869 -12.883  16.783  0.00  0.00    +0.038 C 
ATOM     13  C   UNL     1      -7.413 -12.402  19.619  0.00  0.00    +0.109 C 
ATOM     14  C   UNL     1      -8.200 -13.253  17.437  0.00  0.00    +0.109 C 
ATOM     16  C   UNL     1      -9.670 -11.699  18.680  0.00  0.00    +0.212 C 
ATOM     19  C   UNL     1      -9.869 -10.841  19.904  0.00  0.00    +0.109 C 
ENDBRANCH   2   6
TORSDOF 2
ENDMDL
