MODEL 1
REMARK VINA RESULT:      -6.3      0.000      0.000
REMARK  Name = 38027823
REMARK  13 active torsions:
REMARK  status: ('A' for Active; 'I' for Inactive)
REMARK    1  A    between atoms: O_3  and  C_27
REMARK    2  A    between atoms: O_3  and  C_28
REMARK    3  A    between atoms: N_4  and  C_13
REMARK    4  A    between atoms: N_5  and  C_20
REMARK    5  A    between atoms: C_6  and  C_10
REMARK    6  A    between atoms: C_7  and  C_13
REMARK    7  A    between atoms: C_9  and  C_14
REMARK    8  A    between atoms: C_10  and  C_15
REMARK    9  A    between atoms: C_10  and  C_16
REMARK   10  A    between atoms: C_11  and  C_17
REMARK   11  A    between atoms: C_14  and  C_18
REMARK   12  A    between atoms: C_19  and  C_21
REMARK   13  A    between atoms: C_20  and  C_22
REMARK                            x       y       z     vdW  Elec       q    Type
REMARK                         _______ _______ _______ _____ _____    ______ ____
ROOT
ATOM      6  C   UNL     1      -6.023 -10.475  15.393  0.00  0.00    +0.000 C 
ATOM      7  C   UNL     1      -6.758 -10.489  16.757  0.00  0.00    +0.032 C 
ATOM      8  C   UNL     1      -5.092 -11.690  15.274  0.00  0.00    +0.012 C 
ATOM      9  C   UNL     1      -4.038 -11.729  16.396  0.00  0.00    +0.023 C 
ATOM     11  C   UNL     1      -4.656 -11.483  17.757  0.00  0.00    -0.073 C 
ATOM     12  C   UNL     1      -5.878 -10.940  17.899  0.00  0.00    -0.022 C 
ATOM     17  C   UNL     1      -3.854 -11.917  18.953  0.00  0.00    +0.039 C 
ENDROOT
BRANCH   6  10
ATOM     10  C   UNL     1      -7.005 -10.455  14.218  0.00  0.00    -0.013 C 
ATOM     15  C   UNL     1      -6.401  -9.709  13.033  0.00  0.00    +0.007 C 
ATOM     16  C   UNL     1      -7.392 -11.877  13.824  0.00  0.00    +0.007 C 
ENDBRANCH   6  10
BRANCH   7  13
ATOM     13  C   UNL     1      -7.351  -9.113  17.081  0.00  0.00    +0.112 C 
BRANCH  13   4
ATOM      2  O   UNL     1      -9.664  -7.522  16.341  0.00  0.00    -0.276 OA
ATOM      4  N   UNL     1      -8.686  -9.240  17.576  0.00  0.00    -0.315 N 
ATOM     19  C   UNL     1      -9.743  -8.431  17.164  0.00  0.00    +0.210 C 
ATOM     21  C   UNL     1     -11.046  -8.793  17.825  0.00  0.00    +0.109 C 
ATOM     29  H   UNL     1      -8.886 -10.002  18.217  0.00  0.00    +0.149 HD
ENDBRANCH  13   4
ENDBRANCH   7  13
BRANCH   9  14
ATOM     14  C   UNL     1      -2.901 -10.739  16.121  0.00  0.00    +0.103 C 
BRANCH  14  18
ATOM      1  O   UNL     1      -1.420 -12.102  14.779  0.00  0.00    -0.276 OA
ATOM      5  N   UNL     1      -2.308 -10.152  13.880  0.00  0.00    -0.311 N 
ATOM     18  C   UNL     1      -2.122 -11.100  14.877  0.00  0.00    +0.214 C 
ATOM     30  H   UNL     1      -2.912  -9.355  14.055  0.00  0.00    +0.149 HD
BRANCH   5  20
ATOM     20  C   UNL     1      -1.682 -10.239  12.581  0.00  0.00    +0.139 C 
BRANCH  20  22
ATOM     22  C   UNL     1      -2.693 -10.328  11.475  0.00  0.00    -0.030 A 
ATOM     23  C   UNL     1      -3.507 -11.454  11.362  0.00  0.00    +0.009 A 
ATOM     24  C   UNL     1      -2.818  -9.282  10.560  0.00  0.00    +0.009 A 
ATOM     25  C   UNL     1      -4.446 -11.536  10.334  0.00  0.00    +0.046 A 
ATOM     26  C   UNL     1      -3.757  -9.363   9.532  0.00  0.00    +0.046 A 
ATOM     27  C   UNL     1      -4.572 -10.490   9.419  0.00  0.00    +0.120 A 
BRANCH  27   3
ATOM      3  O   UNL     1      -5.488 -10.570   8.417  0.00  0.00    -0.495 OA
ATOM     28  C   UNL     1      -6.383  -9.468   8.266  0.00  0.00    +0.277 C 
ENDBRANCH  27   3
ENDBRANCH  20  22
ENDBRANCH   5  20
ENDBRANCH  14  18
ENDBRANCH   9  14
TORSDOF 8
ENDMDL
MODEL 2
REMARK VINA RESULT:      -6.2      2.349      7.561
REMARK  Name = 38027823
REMARK  13 active torsions:
REMARK  status: ('A' for Active; 'I' for Inactive)
REMARK    1  A    between atoms: O_3  and  C_27
REMARK    2  A    between atoms: O_3  and  C_28
REMARK    3  A    between atoms: N_4  and  C_13
REMARK    4  A    between atoms: N_5  and  C_20
REMARK    5  A    between atoms: C_6  and  C_10
REMARK    6  A    between atoms: C_7  and  C_13
REMARK    7  A    between atoms: C_9  and  C_14
REMARK    8  A    between atoms: C_10  and  C_15
REMARK    9  A    between atoms: C_10  and  C_16
REMARK   10  A    between atoms: C_11  and  C_17
REMARK   11  A    between atoms: C_14  and  C_18
REMARK   12  A    between atoms: C_19  and  C_21
REMARK   13  A    between atoms: C_20  and  C_22
REMARK                            x       y       z     vdW  Elec       q    Type
REMARK                         _______ _______ _______ _____ _____    ______ ____
ROOT
ATOM      6  C   UNL     1      -5.242 -10.564  10.663  0.00  0.00    +0.000 C 
ATOM      7  C   UNL     1      -4.651  -9.649   9.561  0.00  0.00    +0.032 C 
ATOM      8  C   UNL     1      -4.734 -10.133  12.047  0.00  0.00    +0.012 C 
ATOM      9  C   UNL     1      -3.198 -10.182  12.144  0.00  0.00    +0.023 C 
ATOM     11  C   UNL     1      -2.536  -9.529  10.947  0.00  0.00    -0.073 C 
ATOM     12  C   UNL     1      -3.205  -9.286   9.807  0.00  0.00    -0.022 C 
ATOM     17  C   UNL     1      -1.099  -9.119  11.109  0.00  0.00    +0.039 C 
ENDROOT
BRANCH   6  10
ATOM     10  C   UNL     1      -6.774 -10.556  10.647  0.00  0.00    -0.013 C 
ATOM     15  C   UNL     1      -7.321 -11.583  11.632  0.00  0.00    +0.007 C 
ATOM     16  C   UNL     1      -7.302  -9.162  10.968  0.00  0.00    +0.007 C 
ENDBRANCH   6  10
BRANCH   7  13
ATOM     13  C   UNL     1      -4.788 -10.291   8.176  0.00  0.00    +0.112 C 
BRANCH  13   4
ATOM      2  O   UNL     1      -6.284 -11.073   5.813  0.00  0.00    -0.276 OA
ATOM      4  N   UNL     1      -5.524  -9.440   7.293  0.00  0.00    -0.315 N 
ATOM     19  C   UNL     1      -6.218  -9.901   6.176  0.00  0.00    +0.210 C 
ATOM     21  C   UNL     1      -6.926  -8.799   5.435  0.00  0.00    +0.109 C 
ATOM     29  H   UNL     1      -5.595  -8.455   7.531  0.00  0.00    +0.149 HD
ENDBRANCH  13   4
ENDBRANCH   7  13
BRANCH   9  14
ATOM     14  C   UNL     1      -2.701 -11.620  12.329  0.00  0.00    +0.103 C 
BRANCH  14  18
ATOM      1  O   UNL     1      -2.256 -13.104  14.187  0.00  0.00    -0.276 OA
ATOM      5  N   UNL     1      -2.633 -10.847  14.590  0.00  0.00    -0.311 N 
ATOM     18  C   UNL     1      -2.501 -11.970  13.786  0.00  0.00    +0.214 C 
ATOM     30  H   UNL     1      -2.835  -9.947  14.165  0.00  0.00    +0.149 HD
BRANCH   5  20
ATOM     20  C   UNL     1      -2.494 -10.885  16.028  0.00  0.00    +0.139 C 
BRANCH  20  22
ATOM     22  C   UNL     1      -3.818 -10.759  16.724  0.00  0.00    -0.030 A 
ATOM     23  C   UNL     1      -4.848 -10.023  16.138  0.00  0.00    +0.009 A 
ATOM     24  C   UNL     1      -4.018 -11.380  17.957  0.00  0.00    +0.009 A 
ATOM     25  C   UNL     1      -6.078  -9.907  16.785  0.00  0.00    +0.046 A 
ATOM     26  C   UNL     1      -5.249 -11.264  18.604  0.00  0.00    +0.046 A 
ATOM     27  C   UNL     1      -6.278 -10.528  18.018  0.00  0.00    +0.120 A 
BRANCH  27   3
ATOM      3  O   UNL     1      -7.479 -10.415  18.649  0.00  0.00    -0.495 OA
ATOM     28  C   UNL     1      -7.917 -11.536  19.416  0.00  0.00    +0.277 C 
ENDBRANCH  27   3
ENDBRANCH  20  22
ENDBRANCH   5  20
ENDBRANCH  14  18
ENDBRANCH   9  14
TORSDOF 8
ENDMDL
MODEL 3
REMARK VINA RESULT:      -6.0     19.468     21.391
REMARK  Name = 38027823
REMARK  13 active torsions:
REMARK  status: ('A' for Active; 'I' for Inactive)
REMARK    1  A    between atoms: O_3  and  C_27
REMARK    2  A    between atoms: O_3  and  C_28
REMARK    3  A    between atoms: N_4  and  C_13
REMARK    4  A    between atoms: N_5  and  C_20
REMARK    5  A    between atoms: C_6  and  C_10
REMARK    6  A    between atoms: C_7  and  C_13
REMARK    7  A    between atoms: C_9  and  C_14
REMARK    8  A    between atoms: C_10  and  C_15
REMARK    9  A    between atoms: C_10  and  C_16
REMARK   10  A    between atoms: C_11  and  C_17
REMARK   11  A    between atoms: C_14  and  C_18
REMARK   12  A    between atoms: C_19  and  C_21
REMARK   13  A    between atoms: C_20  and  C_22
REMARK                            x       y       z     vdW  Elec       q    Type
REMARK                         _______ _______ _______ _____ _____    ______ ____
ROOT
ATOM      6  C   UNL     1     -16.454   4.001  28.431  0.00  0.00    +0.000 C 
ATOM      7  C   UNL     1     -16.574   2.577  29.028  0.00  0.00    +0.032 C 
ATOM      8  C   UNL     1     -17.339   4.135  27.183  0.00  0.00    +0.012 C 
ATOM      9  C   UNL     1     -16.965   3.115  26.092  0.00  0.00    +0.023 C 
ATOM     11  C   UNL     1     -16.802   1.719  26.658  0.00  0.00    -0.073 C 
ATOM     12  C   UNL     1     -16.642   1.497  27.974  0.00  0.00    -0.022 C 
ATOM     17  C   UNL     1     -16.872   0.580  25.679  0.00  0.00    +0.039 C 
ENDROOT
BRANCH   6  10
ATOM     10  C   UNL     1     -16.829   5.079  29.453  0.00  0.00    -0.013 C 
ATOM     15  C   UNL     1     -17.055   6.417  28.756  0.00  0.00    +0.007 C 
ATOM     16  C   UNL     1     -18.069   4.661  30.236  0.00  0.00    +0.007 C 
ENDBRANCH   6  10
BRANCH   7  13
ATOM     13  C   UNL     1     -15.417   2.280  29.990  0.00  0.00    +0.112 C 
BRANCH  13   4
ATOM      2  O   UNL     1     -14.810  -0.233  31.310  0.00  0.00    -0.276 OA
ATOM      4  N   UNL     1     -14.606   1.212  29.493  0.00  0.00    -0.315 N 
ATOM     19  C   UNL     1     -14.365   0.034  30.196  0.00  0.00    +0.210 C 
ATOM     21  C   UNL     1     -13.498  -0.932  29.434  0.00  0.00    +0.109 C 
ATOM     29  H   UNL     1     -14.236   1.294  28.551  0.00  0.00    +0.149 HD
ENDBRANCH  13   4
ENDBRANCH   7  13
BRANCH   9  14
ATOM     14  C   UNL     1     -15.706   3.552  25.335  0.00  0.00    +0.103 C 
BRANCH  14  18
ATOM      1  O   UNL     1     -16.289   2.801  23.111  0.00  0.00    -0.276 OA
ATOM      5  N   UNL     1     -15.776   5.039  23.464  0.00  0.00    -0.311 N 
ATOM     18  C   UNL     1     -15.962   3.721  23.855  0.00  0.00    +0.214 C 
ATOM     30  H   UNL     1     -15.507   5.733  24.155  0.00  0.00    +0.149 HD
BRANCH   5  20
ATOM     20  C   UNL     1     -15.950   5.492  22.104  0.00  0.00    +0.139 C 
BRANCH  20  22
ATOM     22  C   UNL     1     -14.681   6.053  21.531  0.00  0.00    -0.030 A 
ATOM     23  C   UNL     1     -13.447   5.548  21.940  0.00  0.00    +0.009 A 
ATOM     24  C   UNL     1     -14.736   7.080  20.589  0.00  0.00    +0.009 A 
ATOM     25  C   UNL     1     -12.268   6.069  21.408  0.00  0.00    +0.046 A 
ATOM     26  C   UNL     1     -13.557   7.603  20.057  0.00  0.00    +0.046 A 
ATOM     27  C   UNL     1     -12.323   7.096  20.466  0.00  0.00    +0.120 A 
BRANCH  27   3
ATOM      3  O   UNL     1     -11.173   7.605  19.946  0.00  0.00    -0.495 OA
ATOM     28  C   UNL     1     -11.296   8.723  19.067  0.00  0.00    +0.277 C 
ENDBRANCH  27   3
ENDBRANCH  20  22
ENDBRANCH   5  20
ENDBRANCH  14  18
ENDBRANCH   9  14
TORSDOF 8
ENDMDL
MODEL 4
REMARK VINA RESULT:      -6.0     28.069     30.564
REMARK  Name = 38027823
REMARK  13 active torsions:
REMARK  status: ('A' for Active; 'I' for Inactive)
REMARK    1  A    between atoms: O_3  and  C_27
REMARK    2  A    between atoms: O_3  and  C_28
REMARK    3  A    between atoms: N_4  and  C_13
REMARK    4  A    between atoms: N_5  and  C_20
REMARK    5  A    between atoms: C_6  and  C_10
REMARK    6  A    between atoms: C_7  and  C_13
REMARK    7  A    between atoms: C_9  and  C_14
REMARK    8  A    between atoms: C_10  and  C_15
REMARK    9  A    between atoms: C_10  and  C_16
REMARK   10  A    between atoms: C_11  and  C_17
REMARK   11  A    between atoms: C_14  and  C_18
REMARK   12  A    between atoms: C_19  and  C_21
REMARK   13  A    between atoms: C_20  and  C_22
REMARK                            x       y       z     vdW  Elec       q    Type
REMARK                         _______ _______ _______ _____ _____    ______ ____
ROOT
ATOM      6  C   UNL     1      19.531   6.481  21.526  0.00  0.00    +0.000 C 
ATOM      7  C   UNL     1      19.881   7.879  22.093  0.00  0.00    +0.032 C 
ATOM      8  C   UNL     1      18.678   6.616  20.257  0.00  0.00    +0.012 C 
ATOM      9  C   UNL     1      17.366   7.380  20.516  0.00  0.00    +0.023 C 
ATOM     11  C   UNL     1      17.601   8.648  21.310  0.00  0.00    -0.073 C 
ATOM     12  C   UNL     1      18.736   8.860  21.998  0.00  0.00    -0.022 C 
ATOM     17  C   UNL     1      16.516   9.689  21.259  0.00  0.00    +0.039 C 
ENDROOT
BRANCH   6  10
ATOM     10  C   UNL     1      20.788   5.660  21.222  0.00  0.00    -0.013 C 
ATOM     15  C   UNL     1      20.426   4.405  20.434  0.00  0.00    +0.007 C 
ATOM     16  C   UNL     1      21.804   6.504  20.459  0.00  0.00    +0.007 C 
ENDBRANCH   6  10
BRANCH   7  13
ATOM     13  C   UNL     1      20.353   7.785  23.549  0.00  0.00    +0.112 C 
BRANCH  13   4
ATOM      2  O   UNL     1      22.217   9.589  24.852  0.00  0.00    -0.276 OA
ATOM      4  N   UNL     1      20.045   8.986  24.261  0.00  0.00    -0.315 N 
ATOM     19  C   UNL     1      21.006   9.797  24.859  0.00  0.00    +0.210 C 
ATOM     21  C   UNL     1      20.412  11.012  25.522  0.00  0.00    +0.109 C 
ATOM     29  H   UNL     1      19.077   9.294  24.278  0.00  0.00    +0.149 HD
ENDBRANCH  13   4
ENDBRANCH   7  13
BRANCH   9  14
ATOM     14  C   UNL     1      16.331   6.484  21.205  0.00  0.00    +0.103 C 
BRANCH  14  18
ATOM      1  O   UNL     1      14.740   6.593  19.385  0.00  0.00    -0.276 OA
ATOM      5  N   UNL     1      13.991   6.807  21.574  0.00  0.00    -0.311 N 
ATOM     18  C   UNL     1      14.956   6.629  20.593  0.00  0.00    +0.214 C 
ATOM     30  H   UNL     1      14.267   6.821  22.551  0.00  0.00    +0.149 HD
BRANCH   5  20
ATOM     20  C   UNL     1      12.587   6.975  21.279  0.00  0.00    +0.139 C 
BRANCH  20  22
ATOM     22  C   UNL     1      12.136   8.393  21.479  0.00  0.00    -0.030 A 
ATOM     23  C   UNL     1      12.606   9.401  20.636  0.00  0.00    +0.009 A 
ATOM     24  C   UNL     1      11.246   8.704  22.507  0.00  0.00    +0.009 A 
ATOM     25  C   UNL     1      12.187  10.718  20.821  0.00  0.00    +0.046 A 
ATOM     26  C   UNL     1      10.827  10.021  22.693  0.00  0.00    +0.046 A 
ATOM     27  C   UNL     1      11.297  11.028  21.850  0.00  0.00    +0.120 A 
BRANCH  27   3
ATOM      3  O   UNL     1      10.888  12.313  22.031  0.00  0.00    -0.495 OA
ATOM     28  C   UNL     1      11.684  13.338  21.438  0.00  0.00    +0.277 C 
ENDBRANCH  27   3
ENDBRANCH  20  22
ENDBRANCH   5  20
ENDBRANCH  14  18
ENDBRANCH   9  14
TORSDOF 8
ENDMDL
MODEL 5
REMARK VINA RESULT:      -5.8     19.311     22.000
REMARK  Name = 38027823
REMARK  13 active torsions:
REMARK  status: ('A' for Active; 'I' for Inactive)
REMARK    1  A    between atoms: O_3  and  C_27
REMARK    2  A    between atoms: O_3  and  C_28
REMARK    3  A    between atoms: N_4  and  C_13
REMARK    4  A    between atoms: N_5  and  C_20
REMARK    5  A    between atoms: C_6  and  C_10
REMARK    6  A    between atoms: C_7  and  C_13
REMARK    7  A    between atoms: C_9  and  C_14
REMARK    8  A    between atoms: C_10  and  C_15
REMARK    9  A    between atoms: C_10  and  C_16
REMARK   10  A    between atoms: C_11  and  C_17
REMARK   11  A    between atoms: C_14  and  C_18
REMARK   12  A    between atoms: C_19  and  C_21
REMARK   13  A    between atoms: C_20  and  C_22
REMARK                            x       y       z     vdW  Elec       q    Type
REMARK                         _______ _______ _______ _____ _____    ______ ____
ROOT
ATOM      6  C   UNL     1     -13.297   8.863  20.644  0.00  0.00    +0.000 C 
ATOM      7  C   UNL     1     -13.571   8.388  22.093  0.00  0.00    +0.032 C 
ATOM      8  C   UNL     1     -12.095   9.819  20.612  0.00  0.00    +0.012 C 
ATOM      9  C   UNL     1     -12.314  11.059  21.500  0.00  0.00    +0.023 C 
ATOM     11  C   UNL     1     -12.844  10.684  22.869  0.00  0.00    -0.073 C 
ATOM     12  C   UNL     1     -13.390   9.481  23.118  0.00  0.00    -0.022 C 
ATOM     17  C   UNL     1     -12.690  11.710  23.958  0.00  0.00    +0.039 C 
ENDROOT
BRANCH   6  10
ATOM     10  C   UNL     1     -13.049   7.686  19.697  0.00  0.00    -0.013 C 
ATOM     15  C   UNL     1     -13.349   8.089  18.256  0.00  0.00    +0.007 C 
ATOM     16  C   UNL     1     -11.614   7.187  19.832  0.00  0.00    +0.007 C 
ENDBRANCH   6  10
BRANCH   7  13
ATOM     13  C   UNL     1     -14.978   7.792  22.223  0.00  0.00    +0.112 C 
BRANCH  13   4
ATOM      2  O   UNL     1     -14.841   4.948  21.658  0.00  0.00    -0.276 OA
ATOM      4  N   UNL     1     -14.989   6.718  23.167  0.00  0.00    -0.315 N 
ATOM     19  C   UNL     1     -14.919   5.374  22.808  0.00  0.00    +0.210 C 
ATOM     21  C   UNL     1     -14.924   4.453  23.998  0.00  0.00    +0.109 C 
ATOM     29  H   UNL     1     -14.985   6.953  24.155  0.00  0.00    +0.149 HD
ENDBRANCH  13   4
ENDBRANCH   7  13
BRANCH   9  14
ATOM     14  C   UNL     1     -13.233  12.074  20.814  0.00  0.00    +0.103 C 
BRANCH  14  18
ATOM      1  O   UNL     1     -13.781  12.018  18.458  0.00  0.00    -0.276 OA
ATOM      5  N   UNL     1     -11.614  12.535  19.116  0.00  0.00    -0.311 N 
ATOM     18  C   UNL     1     -12.942  12.198  19.335  0.00  0.00    +0.214 C 
ATOM     30  H   UNL     1     -10.993  12.665  19.909  0.00  0.00    +0.149 HD
BRANCH   5  20
ATOM     20  C   UNL     1     -11.053  12.717  17.797  0.00  0.00    +0.139 C 
BRANCH  20  22
ATOM     22  C   UNL     1     -10.875  11.412  17.076  0.00  0.00    -0.030 A 
ATOM     23  C   UNL     1     -10.197  10.360  17.693  0.00  0.00    +0.009 A 
ATOM     24  C   UNL     1     -11.390  11.251  15.790  0.00  0.00    +0.009 A 
ATOM     25  C   UNL     1     -10.032   9.148  17.023  0.00  0.00    +0.046 A 
ATOM     26  C   UNL     1     -11.225  10.039  15.119  0.00  0.00    +0.046 A 
ATOM     27  C   UNL     1     -10.547   8.987  15.736  0.00  0.00    +0.120 A 
BRANCH  27   3
ATOM      3  O   UNL     1     -10.387   7.804  15.083  0.00  0.00    -0.495 OA
ATOM     28  C   UNL     1     -10.676   7.790  13.685  0.00  0.00    +0.277 C 
ENDBRANCH  27   3
ENDBRANCH  20  22
ENDBRANCH   5  20
ENDBRANCH  14  18
ENDBRANCH   9  14
TORSDOF 8
ENDMDL
MODEL 6
REMARK VINA RESULT:      -5.8     28.029     30.586
REMARK  Name = 38027823
REMARK  13 active torsions:
REMARK  status: ('A' for Active; 'I' for Inactive)
REMARK    1  A    between atoms: O_3  and  C_27
REMARK    2  A    between atoms: O_3  and  C_28
REMARK    3  A    between atoms: N_4  and  C_13
REMARK    4  A    between atoms: N_5  and  C_20
REMARK    5  A    between atoms: C_6  and  C_10
REMARK    6  A    between atoms: C_7  and  C_13
REMARK    7  A    between atoms: C_9  and  C_14
REMARK    8  A    between atoms: C_10  and  C_15
REMARK    9  A    between atoms: C_10  and  C_16
REMARK   10  A    between atoms: C_11  and  C_17
REMARK   11  A    between atoms: C_14  and  C_18
REMARK   12  A    between atoms: C_19  and  C_21
REMARK   13  A    between atoms: C_20  and  C_22
REMARK                            x       y       z     vdW  Elec       q    Type
REMARK                         _______ _______ _______ _____ _____    ______ ____
ROOT
ATOM      6  C   UNL     1      20.999   5.575  21.862  0.00  0.00    +0.000 C 
ATOM      7  C   UNL     1      21.373   6.791  22.746  0.00  0.00    +0.032 C 
ATOM      8  C   UNL     1      20.489   6.045  20.492  0.00  0.00    +0.012 C 
ATOM      9  C   UNL     1      19.256   6.959  20.611  0.00  0.00    +0.023 C 
ATOM     11  C   UNL     1      19.449   8.031  21.665  0.00  0.00    -0.073 C 
ATOM     12  C   UNL     1      20.409   7.946  22.602  0.00  0.00    -0.022 C 
ATOM     17  C   UNL     1      18.541   9.227  21.587  0.00  0.00    +0.039 C 
ENDROOT
BRANCH   6  10
ATOM     10  C   UNL     1      22.183   4.622  21.677  0.00  0.00    -0.013 C 
ATOM     15  C   UNL     1      21.708   3.286  21.115  0.00  0.00    +0.007 C 
ATOM     16  C   UNL     1      23.234   5.249  20.766  0.00  0.00    +0.007 C 
ENDBRANCH   6  10
BRANCH   7  13
ATOM     13  C   UNL     1      21.475   6.392  24.223  0.00  0.00    +0.112 C 
BRANCH  13   4
ATOM      2  O   UNL     1      19.947   6.192  26.683  0.00  0.00    -0.276 OA
ATOM      4  N   UNL     1      21.047   7.463  25.068  0.00  0.00    -0.315 N 
ATOM     19  C   UNL     1      20.313   7.277  26.237  0.00  0.00    +0.210 C 
ATOM     21  C   UNL     1      20.015   8.570  26.949  0.00  0.00    +0.109 C 
ATOM     29  H   UNL     1      21.349   8.404  24.834  0.00  0.00    +0.149 HD
ENDBRANCH  13   4
ENDBRANCH   7  13
BRANCH   9  14
ATOM     14  C   UNL     1      17.988   6.143  20.884  0.00  0.00    +0.103 C 
BRANCH  14  18
ATOM      1  O   UNL     1      16.986   5.633  18.742  0.00  0.00    -0.276 OA
ATOM      5  N   UNL     1      16.025   7.258  20.096  0.00  0.00    -0.311 N 
ATOM     18  C   UNL     1      16.967   6.290  19.778  0.00  0.00    +0.214 C 
ATOM     30  H   UNL     1      16.091   7.749  20.982  0.00  0.00    +0.149 HD
BRANCH   5  20
ATOM     20  C   UNL     1      14.931   7.612  19.221  0.00  0.00    +0.139 C 
BRANCH  20  22
ATOM     22  C   UNL     1      13.748   8.134  19.984  0.00  0.00    -0.030 A 
ATOM     23  C   UNL     1      12.516   8.282  19.347  0.00  0.00    +0.009 A 
ATOM     24  C   UNL     1      13.881   8.469  21.332  0.00  0.00    +0.009 A 
ATOM     25  C   UNL     1      11.417   8.767  20.056  0.00  0.00    +0.046 A 
ATOM     26  C   UNL     1      12.782   8.954  22.042  0.00  0.00    +0.046 A 
ATOM     27  C   UNL     1      11.550   9.102  21.404  0.00  0.00    +0.120 A 
BRANCH  27   3
ATOM      3  O   UNL     1      10.478   9.575  22.096  0.00  0.00    -0.495 OA
ATOM     28  C   UNL     1      10.742  10.502  23.149  0.00  0.00    +0.277 C 
ENDBRANCH  27   3
ENDBRANCH  20  22
ENDBRANCH   5  20
ENDBRANCH  14  18
ENDBRANCH   9  14
TORSDOF 8
ENDMDL
MODEL 7
REMARK VINA RESULT:      -5.7     28.154     30.703
REMARK  Name = 38027823
REMARK  13 active torsions:
REMARK  status: ('A' for Active; 'I' for Inactive)
REMARK    1  A    between atoms: O_3  and  C_27
REMARK    2  A    between atoms: O_3  and  C_28
REMARK    3  A    between atoms: N_4  and  C_13
REMARK    4  A    between atoms: N_5  and  C_20
REMARK    5  A    between atoms: C_6  and  C_10
REMARK    6  A    between atoms: C_7  and  C_13
REMARK    7  A    between atoms: C_9  and  C_14
REMARK    8  A    between atoms: C_10  and  C_15
REMARK    9  A    between atoms: C_10  and  C_16
REMARK   10  A    between atoms: C_11  and  C_17
REMARK   11  A    between atoms: C_14  and  C_18
REMARK   12  A    between atoms: C_19  and  C_21
REMARK   13  A    between atoms: C_20  and  C_22
REMARK                            x       y       z     vdW  Elec       q    Type
REMARK                         _______ _______ _______ _____ _____    ______ ____
ROOT
ATOM      6  C   UNL     1      20.246   5.958  21.949  0.00  0.00    +0.000 C 
ATOM      7  C   UNL     1      20.598   7.251  22.726  0.00  0.00    +0.032 C 
ATOM      8  C   UNL     1      19.693   6.303  20.559  0.00  0.00    +0.012 C 
ATOM      9  C   UNL     1      18.433   7.185  20.635  0.00  0.00    +0.023 C 
ATOM     11  C   UNL     1      18.613   8.342  21.597  0.00  0.00    -0.073 C 
ATOM     12  C   UNL     1      19.595   8.360  22.515  0.00  0.00    -0.022 C 
ATOM     17  C   UNL     1      17.665   9.499  21.448  0.00  0.00    +0.039 C 
ENDROOT
BRANCH   6  10
ATOM     10  C   UNL     1      21.457   5.030  21.811  0.00  0.00    -0.013 C 
ATOM     15  C   UNL     1      21.106   3.823  20.948  0.00  0.00    +0.007 C 
ATOM     16  C   UNL     1      22.644   5.788  21.225  0.00  0.00    +0.007 C 
ENDBRANCH   6  10
BRANCH   7  13
ATOM     13  C   UNL     1      20.745   6.973  24.227  0.00  0.00    +0.112 C 
BRANCH  13   4
ATOM      2  O   UNL     1      22.331   4.785  25.288  0.00  0.00    -0.276 OA
ATOM      4  N   UNL     1      22.120   7.007  24.617  0.00  0.00    -0.315 N 
ATOM     19  C   UNL     1      22.808   5.905  25.119  0.00  0.00    +0.210 C 
ATOM     21  C   UNL     1      24.250   6.210  25.428  0.00  0.00    +0.109 C 
ATOM     29  H   UNL     1      22.638   7.867  24.461  0.00  0.00    +0.149 HD
ENDBRANCH  13   4
ENDBRANCH   7  13
BRANCH   9  14
ATOM     14  C   UNL     1      17.198   6.354  21.001  0.00  0.00    +0.103 C 
BRANCH  14  18
ATOM      1  O   UNL     1      16.357   5.790  18.804  0.00  0.00    -0.276 OA
ATOM      5  N   UNL     1      15.022   7.013  20.260  0.00  0.00    -0.311 N 
ATOM     18  C   UNL     1      16.175   6.336  19.888  0.00  0.00    +0.214 C 
ATOM     30  H   UNL     1      14.963   7.431  21.184  0.00  0.00    +0.149 HD
BRANCH   5  20
ATOM     20  C   UNL     1      13.876   7.157  19.393  0.00  0.00    +0.139 C 
BRANCH  20  22
ATOM     22  C   UNL     1      14.085   8.225  18.359  0.00  0.00    -0.030 A 
ATOM     23  C   UNL     1      14.457   9.511  18.748  0.00  0.00    +0.009 A 
ATOM     24  C   UNL     1      13.909   7.929  17.006  0.00  0.00    +0.009 A 
ATOM     25  C   UNL     1      14.652  10.503  17.787  0.00  0.00    +0.046 A 
ATOM     26  C   UNL     1      14.103   8.921  16.045  0.00  0.00    +0.046 A 
ATOM     27  C   UNL     1      14.475  10.207  16.435  0.00  0.00    +0.120 A 
BRANCH  27   3
ATOM      3  O   UNL     1      14.665  11.175  15.497  0.00  0.00    -0.495 OA
ATOM     28  C   UNL     1      15.544  10.867  14.415  0.00  0.00    +0.277 C 
ENDBRANCH  27   3
ENDBRANCH  20  22
ENDBRANCH   5  20
ENDBRANCH  14  18
ENDBRANCH   9  14
TORSDOF 8
ENDMDL
MODEL 8
REMARK VINA RESULT:      -5.7     23.042     25.998
REMARK  Name = 38027823
REMARK  13 active torsions:
REMARK  status: ('A' for Active; 'I' for Inactive)
REMARK    1  A    between atoms: O_3  and  C_27
REMARK    2  A    between atoms: O_3  and  C_28
REMARK    3  A    between atoms: N_4  and  C_13
REMARK    4  A    between atoms: N_5  and  C_20
REMARK    5  A    between atoms: C_6  and  C_10
REMARK    6  A    between atoms: C_7  and  C_13
REMARK    7  A    between atoms: C_9  and  C_14
REMARK    8  A    between atoms: C_10  and  C_15
REMARK    9  A    between atoms: C_10  and  C_16
REMARK   10  A    between atoms: C_11  and  C_17
REMARK   11  A    between atoms: C_14  and  C_18
REMARK   12  A    between atoms: C_19  and  C_21
REMARK   13  A    between atoms: C_20  and  C_22
REMARK                            x       y       z     vdW  Elec       q    Type
REMARK                         _______ _______ _______ _____ _____    ______ ____
ROOT
ATOM      6  C   UNL     1       8.993   8.165   5.813  0.00  0.00    +0.000 C 
ATOM      7  C   UNL     1       8.696   8.123   7.333  0.00  0.00    +0.032 C 
ATOM      8  C   UNL     1       8.660   6.813   5.164  0.00  0.00    +0.012 C 
ATOM      9  C   UNL     1       9.464   5.656   5.786  0.00  0.00    +0.023 C 
ATOM     11  C   UNL     1       9.439   5.704   7.301  0.00  0.00    -0.073 C 
ATOM     12  C   UNL     1       9.080   6.811   7.974  0.00  0.00    -0.022 C 
ATOM     17  C   UNL     1       9.793   4.433   8.023  0.00  0.00    +0.039 C 
ENDROOT
BRANCH   6  10
ATOM     10  C   UNL     1       8.214   9.283   5.112  0.00  0.00    -0.013 C 
ATOM     15  C   UNL     1       9.160  10.394   4.670  0.00  0.00    +0.007 C 
ATOM     16  C   UNL     1       7.439   8.726   3.922  0.00  0.00    +0.007 C 
ENDBRANCH   6  10
BRANCH   7  13
ATOM     13  C   UNL     1       9.396   9.274   8.066  0.00  0.00    +0.112 C 
BRANCH  13   4
ATOM      2  O   UNL     1      11.013  11.620   7.513  0.00  0.00    -0.276 OA
ATOM      4  N   UNL     1      10.787   9.312   7.739  0.00  0.00    -0.315 N 
ATOM     19  C   UNL     1      11.490  10.488   7.488  0.00  0.00    +0.210 C 
ATOM     21  C   UNL     1      12.946  10.245   7.193  0.00  0.00    +0.109 C 
ATOM     29  H   UNL     1      11.303   8.437   7.753  0.00  0.00    +0.149 HD
ENDBRANCH  13   4
ENDBRANCH   7  13
BRANCH   9  14
ATOM     14  C   UNL     1      10.903   5.637   5.261  0.00  0.00    +0.103 C 
BRANCH  14  18
ATOM      1  O   UNL     1      11.039   6.667   3.076  0.00  0.00    -0.276 OA
ATOM      5  N   UNL     1      10.900   4.354   3.243  0.00  0.00    -0.311 N 
ATOM     18  C   UNL     1      10.957   5.644   3.750  0.00  0.00    +0.214 C 
ATOM     30  H   UNL     1      10.836   3.567   3.882  0.00  0.00    +0.149 HD
BRANCH   5  20
ATOM     20  C   UNL     1      10.931   4.059   1.829  0.00  0.00    +0.139 C 
BRANCH  20  22
ATOM     22  C   UNL     1      12.316   4.173   1.262  0.00  0.00    -0.030 A 
ATOM     23  C   UNL     1      12.575   5.070   0.225  0.00  0.00    +0.009 A 
ATOM     24  C   UNL     1      13.346   3.383   1.773  0.00  0.00    +0.009 A 
ATOM     25  C   UNL     1      13.861   5.175  -0.302  0.00  0.00    +0.046 A 
ATOM     26  C   UNL     1      14.634   3.488   1.246  0.00  0.00    +0.046 A 
ATOM     27  C   UNL     1      14.891   4.385   0.209  0.00  0.00    +0.120 A 
BRANCH  27   3
ATOM      3  O   UNL     1      16.147   4.489  -0.305  0.00  0.00    -0.495 OA
ATOM     28  C   UNL     1      16.264   4.565  -1.725  0.00  0.00    +0.277 C 
ENDBRANCH  27   3
ENDBRANCH  20  22
ENDBRANCH   5  20
ENDBRANCH  14  18
ENDBRANCH   9  14
TORSDOF 8
ENDMDL
MODEL 9
REMARK VINA RESULT:      -5.7     28.071     30.675
REMARK  Name = 38027823
REMARK  13 active torsions:
REMARK  status: ('A' for Active; 'I' for Inactive)
REMARK    1  A    between atoms: O_3  and  C_27
REMARK    2  A    between atoms: O_3  and  C_28
REMARK    3  A    between atoms: N_4  and  C_13
REMARK    4  A    between atoms: N_5  and  C_20
REMARK    5  A    between atoms: C_6  and  C_10
REMARK    6  A    between atoms: C_7  and  C_13
REMARK    7  A    between atoms: C_9  and  C_14
REMARK    8  A    between atoms: C_10  and  C_15
REMARK    9  A    between atoms: C_10  and  C_16
REMARK   10  A    between atoms: C_11  and  C_17
REMARK   11  A    between atoms: C_14  and  C_18
REMARK   12  A    between atoms: C_19  and  C_21
REMARK   13  A    between atoms: C_20  and  C_22
REMARK                            x       y       z     vdW  Elec       q    Type
REMARK                         _______ _______ _______ _____ _____    ______ ____
ROOT
ATOM      6  C   UNL     1      19.932   6.262  21.865  0.00  0.00    +0.000 C 
ATOM      7  C   UNL     1      20.206   7.644  22.508  0.00  0.00    +0.032 C 
ATOM      8  C   UNL     1      19.275   6.432  20.488  0.00  0.00    +0.012 C 
ATOM      9  C   UNL     1      17.946   7.205  20.568  0.00  0.00    +0.023 C 
ATOM     11  C   UNL     1      18.071   8.455  21.417  0.00  0.00    -0.073 C 
ATOM     12  C   UNL     1      19.095   8.639  22.268  0.00  0.00    -0.022 C 
ATOM     17  C   UNL     1      17.015   9.508  21.230  0.00  0.00    +0.039 C 
ENDROOT
BRANCH   6  10
ATOM     10  C   UNL     1      21.213   5.433  21.731  0.00  0.00    -0.013 C 
ATOM     15  C   UNL     1      20.955   4.186  20.891  0.00  0.00    +0.007 C 
ATOM     16  C   UNL     1      22.330   6.275  21.121  0.00  0.00    +0.007 C 
ENDBRANCH   6  10
BRANCH   7  13
ATOM     13  C   UNL     1      20.458   7.514  24.015  0.00  0.00    +0.112 C 
BRANCH  13   4
ATOM      2  O   UNL     1      22.542   5.741  24.986  0.00  0.00    -0.276 OA
ATOM      4  N   UNL     1      21.809   7.856  24.335  0.00  0.00    -0.315 N 
ATOM     19  C   UNL     1      22.749   6.938  24.797  0.00  0.00    +0.210 C 
ATOM     21  C   UNL     1      24.101   7.557  25.033  0.00  0.00    +0.109 C 
ATOM     29  H   UNL     1      22.115   8.808  24.155  0.00  0.00    +0.149 HD
ENDBRANCH  13   4
ENDBRANCH   7  13
BRANCH   9  14
ATOM     14  C   UNL     1      16.814   6.307  21.077  0.00  0.00    +0.103 C 
BRANCH  14  18
ATOM      1  O   UNL     1      15.503   6.648  19.073  0.00  0.00    -0.276 OA
ATOM      5  N   UNL     1      14.430   6.487  21.128  0.00  0.00    -0.311 N 
ATOM     18  C   UNL     1      15.537   6.500  20.291  0.00  0.00    +0.214 C 
ATOM     30  H   UNL     1      14.559   6.355  22.126  0.00  0.00    +0.149 HD
BRANCH   5  20
ATOM     20  C   UNL     1      13.077   6.651  20.649  0.00  0.00    +0.139 C 
BRANCH  20  22
ATOM     22  C   UNL     1      12.520   8.003  20.991  0.00  0.00    -0.030 A 
ATOM     23  C   UNL     1      11.651   8.147  22.073  0.00  0.00    +0.009 A 
ATOM     24  C   UNL     1      12.874   9.115  20.227  0.00  0.00    +0.009 A 
ATOM     25  C   UNL     1      11.135   9.403  22.390  0.00  0.00    +0.046 A 
ATOM     26  C   UNL     1      12.357  10.372  20.544  0.00  0.00    +0.046 A 
ATOM     27  C   UNL     1      11.488  10.516  21.626  0.00  0.00    +0.120 A 
BRANCH  27   3
ATOM      3  O   UNL     1      10.985  11.741  21.936  0.00  0.00    -0.495 OA
ATOM     28  C   UNL     1      11.888  12.845  21.890  0.00  0.00    +0.277 C 
ENDBRANCH  27   3
ENDBRANCH  20  22
ENDBRANCH   5  20
ENDBRANCH  14  18
ENDBRANCH   9  14
TORSDOF 8
ENDMDL
MODEL 10
REMARK VINA RESULT:      -5.7     20.902     25.499
REMARK  Name = 38027823
REMARK  13 active torsions:
REMARK  status: ('A' for Active; 'I' for Inactive)
REMARK    1  A    between atoms: O_3  and  C_27
REMARK    2  A    between atoms: O_3  and  C_28
REMARK    3  A    between atoms: N_4  and  C_13
REMARK    4  A    between atoms: N_5  and  C_20
REMARK    5  A    between atoms: C_6  and  C_10
REMARK    6  A    between atoms: C_7  and  C_13
REMARK    7  A    between atoms: C_9  and  C_14
REMARK    8  A    between atoms: C_10  and  C_15
REMARK    9  A    between atoms: C_10  and  C_16
REMARK   10  A    between atoms: C_11  and  C_17
REMARK   11  A    between atoms: C_14  and  C_18
REMARK   12  A    between atoms: C_19  and  C_21
REMARK   13  A    between atoms: C_20  and  C_22
REMARK                            x       y       z     vdW  Elec       q    Type
REMARK                         _______ _______ _______ _____ _____    ______ ____
ROOT
ATOM      6  C   UNL     1     -15.187   1.611  30.225  0.00  0.00    +0.000 C 
ATOM      7  C   UNL     1     -16.453   2.000  29.421  0.00  0.00    +0.032 C 
ATOM      8  C   UNL     1     -15.370   1.955  31.710  0.00  0.00    +0.012 C 
ATOM      9  C   UNL     1     -15.647   3.454  31.931  0.00  0.00    +0.023 C 
ATOM     11  C   UNL     1     -16.706   3.976  30.981  0.00  0.00    -0.073 C 
ATOM     12  C   UNL     1     -17.062   3.306  29.872  0.00  0.00    -0.022 C 
ATOM     17  C   UNL     1     -17.379   5.267  31.361  0.00  0.00    +0.039 C 
ENDROOT
BRANCH   6  10
ATOM     10  C   UNL     1     -14.851   0.125  30.074  0.00  0.00    -0.013 C 
ATOM     15  C   UNL     1     -13.361  -0.060  29.809  0.00  0.00    +0.007 C 
ATOM     16  C   UNL     1     -15.280  -0.647  31.318  0.00  0.00    +0.007 C 
ENDBRANCH   6  10
BRANCH   7  13
ATOM     13  C   UNL     1     -16.155   2.066  27.918  0.00  0.00    +0.112 C 
BRANCH  13   4
ATOM      2  O   UNL     1     -15.672   3.117  25.255  0.00  0.00    -0.276 OA
ATOM      4  N   UNL     1     -16.686   3.266  27.349  0.00  0.00    -0.315 N 
ATOM     19  C   UNL     1     -16.401   3.699  26.056  0.00  0.00    +0.210 C 
ATOM     21  C   UNL     1     -17.109   4.979  25.701  0.00  0.00    +0.109 C 
ATOM     29  H   UNL     1     -17.355   3.798  27.897  0.00  0.00    +0.149 HD
ENDBRANCH  13   4
ENDBRANCH   7  13
BRANCH   9  14
ATOM     14  C   UNL     1     -14.359   4.277  31.824  0.00  0.00    +0.103 C 
BRANCH  14  18
ATOM      1  O   UNL     1     -13.926   4.813  34.143  0.00  0.00    -0.276 OA
ATOM      5  N   UNL     1     -14.327   6.528  32.628  0.00  0.00    -0.311 N 
ATOM     18  C   UNL     1     -14.175   5.202  33.005  0.00  0.00    +0.214 C 
ATOM     30  H   UNL     1     -14.531   6.753  31.658  0.00  0.00    +0.149 HD
BRANCH   5  20
ATOM     20  C   UNL     1     -14.207   7.632  33.552  0.00  0.00    +0.139 C 
BRANCH  20  22
ATOM     22  C   UNL     1     -12.883   8.328  33.427  0.00  0.00    -0.030 A 
ATOM     23  C   UNL     1     -12.295   8.918  34.546  0.00  0.00    +0.009 A 
ATOM     24  C   UNL     1     -12.239   8.384  32.191  0.00  0.00    +0.009 A 
ATOM     25  C   UNL     1     -11.065   9.564  34.430  0.00  0.00    +0.046 A 
ATOM     26  C   UNL     1     -11.009   9.031  32.073  0.00  0.00    +0.046 A 
ATOM     27  C   UNL     1     -10.421   9.620  33.193  0.00  0.00    +0.120 A 
BRANCH  27   3
ATOM      3  O   UNL     1      -9.220  10.251  33.079  0.00  0.00    -0.495 OA
ATOM     28  C   UNL     1      -9.224  11.554  32.498  0.00  0.00    +0.277 C 
ENDBRANCH  27   3
ENDBRANCH  20  22
ENDBRANCH   5  20
ENDBRANCH  14  18
ENDBRANCH   9  14
TORSDOF 8
ENDMDL
