MODEL 1
REMARK VINA RESULT:      -7.5      0.000      0.000
REMARK  Name = 11867448
REMARK  12 active torsions:
REMARK  status: ('A' for Active; 'I' for Inactive)
REMARK    1  A    between atoms: O_3  and  C_11
REMARK    2  A    between atoms: O_3  and  C_16
REMARK    3  A    between atoms: N_5  and  C_10
REMARK    4  A    between atoms: N_5  and  C_14
REMARK    5  A    between atoms: N_6  and  C_21
REMARK    6  A    between atoms: N_7  and  C_22
REMARK    7  A    between atoms: N_7  and  C_29
REMARK    8  A    between atoms: N_7  and  C_30
REMARK    9  A    between atoms: C_14  and  C_15
REMARK   10  A    between atoms: C_25  and  C_26
REMARK   11  A    between atoms: C_26  and  C_31
REMARK   12  A    between atoms: C_26  and  C_32
REMARK                            x       y       z     vdW  Elec       q    Type
REMARK                         _______ _______ _______ _____ _____    ______ ____
ROOT
ATOM      1  O   UNL     1     -16.633   4.912  25.390  0.00  0.00    -0.369 OA
ATOM      2  O   UNL     1     -16.823   1.975  24.573  0.00  0.00    -0.369 OA
ATOM      8  C   UNL     1     -15.839   2.682  25.358  0.00  0.00    +0.170 C 
ATOM      9  C   UNL     1     -15.685   4.053  24.733  0.00  0.00    +0.191 C 
ATOM     10  C   UNL     1     -16.386   2.964  26.740  0.00  0.00    +0.111 C 
ATOM     11  C   UNL     1     -16.065   3.801  23.295  0.00  0.00    +0.235 C 
ATOM     12  C   UNL     1     -17.227   4.209  26.492  0.00  0.00    +0.181 C 
ATOM     13  C   UNL     1     -17.166   2.773  23.430  0.00  0.00    +0.207 C 
ENDROOT
BRANCH  10   5
ATOM      5  N   UNL     1     -15.317   3.269  27.690  0.00  0.00    -0.305 NA
ATOM     33  H   UNL     1     -15.290   4.275  27.857  0.00  0.00    +0.123 HD
BRANCH   5  14
ATOM     14  C   UNL     1     -15.549   2.598  28.959  0.00  0.00    +0.116 C 
BRANCH  14  15
ATOM     15  C   UNL     1     -15.148   3.457  30.129  0.00  0.00    -0.033 A 
ATOM     17  C   UNL     1     -15.865   4.616  30.423  0.00  0.00    +0.007 A 
ATOM     18  C   UNL     1     -14.058   3.092  30.921  0.00  0.00    +0.007 A 
ATOM     19  C   UNL     1     -15.495   5.410  31.507  0.00  0.00    +0.023 A 
ATOM     20  C   UNL     1     -13.687   3.887  32.005  0.00  0.00    +0.023 A 
ATOM     22  C   UNL     1     -14.405   5.046  32.298  0.00  0.00    +0.029 A 
BRANCH  22   7
ATOM      7  N   UNL     1     -14.030   5.850  33.395  0.00  0.00    -0.336 N 
ATOM     29  C   UNL     1     -13.468   7.168  33.180  0.00  0.00    +0.129 C 
ATOM     30  C   UNL     1     -14.188   5.361  34.751  0.00  0.00    +0.129 C 
ENDBRANCH  22   7
ENDBRANCH  14  15
ENDBRANCH   5  14
ENDBRANCH  10   5
BRANCH  11   3
ATOM      3  O   UNL     1     -16.500   4.958  22.616  0.00  0.00    -0.442 OA
BRANCH   3  16
ATOM      4  O   UNL     1     -15.855   5.065  20.424  0.00  0.00    -0.226 OA
ATOM      6  N   UNL     1     -14.757   6.289  22.090  0.00  0.00    -0.251 N 
ATOM     16  C   UNL     1     -15.701   5.415  21.588  0.00  0.00    +0.405 C 
ATOM     34  H   UNL     1     -14.787   6.457  23.092  0.00  0.00    +0.158 HD
BRANCH   6  21
ATOM     21  C   UNL     1     -13.748   6.981  21.381  0.00  0.00    +0.036 A 
ATOM     23  C   UNL     1     -13.999   8.259  20.882  0.00  0.00    +0.024 A 
ATOM     24  C   UNL     1     -12.503   6.386  21.182  0.00  0.00    +0.024 A 
ATOM     25  C   UNL     1     -11.758   8.348  19.983  0.00  0.00    -0.045 A 
ATOM     27  C   UNL     1     -13.003   8.942  20.183  0.00  0.00    +0.006 A 
ATOM     28  C   UNL     1     -11.507   7.069  20.482  0.00  0.00    +0.006 A 
BRANCH  25  26
ATOM     26  C   UNL     1     -10.695   9.078  19.236  0.00  0.00    +0.013 C 
ATOM     31  C   UNL     1     -10.927  10.601  19.216  0.00  0.00    +0.012 C 
ATOM     32  C   UNL     1     -10.522   8.558  17.796  0.00  0.00    +0.012 C 
ENDBRANCH  25  26
ENDBRANCH   6  21
ENDBRANCH   3  16
ENDBRANCH  11   3
TORSDOF 8
ENDMDL
MODEL 2
REMARK VINA RESULT:      -7.4      1.609      2.079
REMARK  Name = 11867448
REMARK  12 active torsions:
REMARK  status: ('A' for Active; 'I' for Inactive)
REMARK    1  A    between atoms: O_3  and  C_11
REMARK    2  A    between atoms: O_3  and  C_16
REMARK    3  A    between atoms: N_5  and  C_10
REMARK    4  A    between atoms: N_5  and  C_14
REMARK    5  A    between atoms: N_6  and  C_21
REMARK    6  A    between atoms: N_7  and  C_22
REMARK    7  A    between atoms: N_7  and  C_29
REMARK    8  A    between atoms: N_7  and  C_30
REMARK    9  A    between atoms: C_14  and  C_15
REMARK   10  A    between atoms: C_25  and  C_26
REMARK   11  A    between atoms: C_26  and  C_31
REMARK   12  A    between atoms: C_26  and  C_32
REMARK                            x       y       z     vdW  Elec       q    Type
REMARK                         _______ _______ _______ _____ _____    ______ ____
ROOT
ATOM      1  O   UNL     1     -18.013   4.473  25.238  0.00  0.00    -0.369 OA
ATOM      2  O   UNL     1     -16.325   2.513  23.613  0.00  0.00    -0.369 OA
ATOM      8  C   UNL     1     -16.441   2.713  25.038  0.00  0.00    +0.170 C 
ATOM      9  C   UNL     1     -16.600   4.204  25.257  0.00  0.00    +0.191 C 
ATOM     10  C   UNL     1     -17.741   2.125  25.540  0.00  0.00    +0.111 C 
ATOM     11  C   UNL     1     -15.905   4.788  24.052  0.00  0.00    +0.235 C 
ATOM     12  C   UNL     1     -18.732   3.230  25.203  0.00  0.00    +0.181 C 
ATOM     13  C   UNL     1     -16.257   3.793  22.968  0.00  0.00    +0.207 C 
ENDROOT
BRANCH  10   5
ATOM      5  N   UNL     1     -17.711   1.908  26.985  0.00  0.00    -0.305 NA
ATOM     33  H   UNL     1     -18.580   1.461  27.278  0.00  0.00    +0.123 HD
BRANCH   5  14
ATOM     14  C   UNL     1     -16.603   1.041  27.353  0.00  0.00    +0.116 C 
BRANCH  14  15
ATOM     15  C   UNL     1     -15.975   1.457  28.658  0.00  0.00    -0.033 A 
ATOM     17  C   UNL     1     -15.513   2.762  28.826  0.00  0.00    +0.007 A 
ATOM     18  C   UNL     1     -15.856   0.535  29.699  0.00  0.00    +0.007 A 
ATOM     19  C   UNL     1     -14.934   3.146  30.035  0.00  0.00    +0.023 A 
ATOM     20  C   UNL     1     -15.276   0.920  30.907  0.00  0.00    +0.023 A 
ATOM     22  C   UNL     1     -14.815   2.225  31.075  0.00  0.00    +0.029 A 
BRANCH  22   7
ATOM      7  N   UNL     1     -14.228   2.614  32.298  0.00  0.00    -0.336 N 
ATOM     29  C   UNL     1     -13.367   3.777  32.361  0.00  0.00    +0.129 C 
ATOM     30  C   UNL     1     -14.469   1.846  33.504  0.00  0.00    +0.129 C 
ENDBRANCH  22   7
ENDBRANCH  14  15
ENDBRANCH   5  14
ENDBRANCH  10   5
BRANCH  11   3
ATOM      3  O   UNL     1     -16.332   6.093  23.732  0.00  0.00    -0.442 OA
BRANCH   3  16
ATOM      4  O   UNL     1     -16.448   7.051  21.659  0.00  0.00    -0.226 OA
ATOM      6  N   UNL     1     -14.405   6.748  22.761  0.00  0.00    -0.251 N 
ATOM     16  C   UNL     1     -15.776   6.675  22.612  0.00  0.00    +0.405 C 
ATOM     34  H   UNL     1     -14.027   6.381  23.631  0.00  0.00    +0.158 HD
BRANCH   6  21
ATOM     21  C   UNL     1     -13.457   7.272  21.853  0.00  0.00    +0.036 A 
ATOM     23  C   UNL     1     -13.386   8.648  21.636  0.00  0.00    +0.024 A 
ATOM     24  C   UNL     1     -12.595   6.414  21.173  0.00  0.00    +0.024 A 
ATOM     25  C   UNL     1     -11.588   8.308  20.059  0.00  0.00    -0.045 A 
ATOM     27  C   UNL     1     -12.451   9.166  20.740  0.00  0.00    +0.006 A 
ATOM     28  C   UNL     1     -11.659   6.931  20.275  0.00  0.00    +0.006 A 
BRANCH  25  26
ATOM     26  C   UNL     1     -10.589   8.861  19.101  0.00  0.00    +0.013 C 
ATOM     31  C   UNL     1     -10.575  10.401  19.086  0.00  0.00    +0.012 C 
ATOM     32  C   UNL     1     -10.786   8.326  17.669  0.00  0.00    +0.012 C 
ENDBRANCH  25  26
ENDBRANCH   6  21
ENDBRANCH   3  16
ENDBRANCH  11   3
TORSDOF 8
ENDMDL
MODEL 3
REMARK VINA RESULT:      -7.1     32.728     35.944
REMARK  Name = 11867448
REMARK  12 active torsions:
REMARK  status: ('A' for Active; 'I' for Inactive)
REMARK    1  A    between atoms: O_3  and  C_11
REMARK    2  A    between atoms: O_3  and  C_16
REMARK    3  A    between atoms: N_5  and  C_10
REMARK    4  A    between atoms: N_5  and  C_14
REMARK    5  A    between atoms: N_6  and  C_21
REMARK    6  A    between atoms: N_7  and  C_22
REMARK    7  A    between atoms: N_7  and  C_29
REMARK    8  A    between atoms: N_7  and  C_30
REMARK    9  A    between atoms: C_14  and  C_15
REMARK   10  A    between atoms: C_25  and  C_26
REMARK   11  A    between atoms: C_26  and  C_31
REMARK   12  A    between atoms: C_26  and  C_32
REMARK                            x       y       z     vdW  Elec       q    Type
REMARK                         _______ _______ _______ _____ _____    ______ ____
ROOT
ATOM      1  O   UNL     1      21.923   7.022  20.424  0.00  0.00    -0.369 OA
ATOM      2  O   UNL     1      21.188   5.428  22.924  0.00  0.00    -0.369 OA
ATOM      8  C   UNL     1      21.384   5.013  21.555  0.00  0.00    +0.170 C 
ATOM      9  C   UNL     1      20.832   6.120  20.680  0.00  0.00    +0.191 C 
ATOM     10  C   UNL     1      22.861   4.984  21.228  0.00  0.00    +0.111 C 
ATOM     11  C   UNL     1      19.787   6.749  21.569  0.00  0.00    +0.235 C 
ATOM     12  C   UNL     1      23.140   6.450  20.928  0.00  0.00    +0.181 C 
ATOM     13  C   UNL     1      20.426   6.644  22.936  0.00  0.00    +0.207 C 
ENDROOT
BRANCH  10   5
ATOM      5  N   UNL     1      23.134   4.174  20.042  0.00  0.00    -0.305 NA
ATOM     33  H   UNL     1      22.783   4.656  19.215  0.00  0.00    +0.123 HD
BRANCH   5  14
ATOM     14  C   UNL     1      24.564   3.964  19.880  0.00  0.00    +0.116 C 
BRANCH  14  15
ATOM     15  C   UNL     1      25.059   2.807  20.707  0.00  0.00    -0.033 A 
ATOM     17  C   UNL     1      24.235   1.702  20.925  0.00  0.00    +0.007 A 
ATOM     18  C   UNL     1      26.342   2.840  21.256  0.00  0.00    +0.007 A 
ATOM     19  C   UNL     1      24.694   0.630  21.690  0.00  0.00    +0.023 A 
ATOM     20  C   UNL     1      26.799   1.768  22.021  0.00  0.00    +0.023 A 
ATOM     22  C   UNL     1      25.976   0.663  22.238  0.00  0.00    +0.029 A 
BRANCH  22   7
ATOM      7  N   UNL     1      26.440  -0.421  23.013  0.00  0.00    -0.336 N 
ATOM     29  C   UNL     1      26.736  -0.243  24.420  0.00  0.00    +0.129 C 
ATOM     30  C   UNL     1      26.641  -1.722  22.407  0.00  0.00    +0.129 C 
ENDBRANCH  22   7
ENDBRANCH  14  15
ENDBRANCH   5  14
ENDBRANCH  10   5
BRANCH  11   3
ATOM      3  O   UNL     1      19.485   8.082  21.226  0.00  0.00    -0.442 OA
BRANCH   3  16
ATOM      4  O   UNL     1      17.788   9.566  21.613  0.00  0.00    -0.226 OA
ATOM      6  N   UNL     1      17.369   7.388  20.864  0.00  0.00    -0.251 N 
ATOM     16  C   UNL     1      18.155   8.450  21.266  0.00  0.00    +0.405 C 
ATOM     34  H   UNL     1      17.861   6.535  20.611  0.00  0.00    +0.158 HD
BRANCH   6  21
ATOM     21  C   UNL     1      15.960   7.339  20.759  0.00  0.00    +0.036 A 
ATOM     23  C   UNL     1      15.362   7.038  19.536  0.00  0.00    +0.024 A 
ATOM     24  C   UNL     1      15.169   7.592  21.879  0.00  0.00    +0.024 A 
ATOM     25  C   UNL     1      13.180   7.241  20.552  0.00  0.00    -0.045 A 
ATOM     27  C   UNL     1      13.972   6.988  19.433  0.00  0.00    +0.006 A 
ATOM     28  C   UNL     1      13.778   7.543  21.776  0.00  0.00    +0.006 A 
BRANCH  25  26
ATOM     26  C   UNL     1      11.694   7.189  20.441  0.00  0.00    +0.013 C 
ATOM     31  C   UNL     1      11.060   8.588  20.339  0.00  0.00    +0.012 C 
ATOM     32  C   UNL     1      11.044   6.404  21.597  0.00  0.00    +0.012 C 
ENDBRANCH  25  26
ENDBRANCH   6  21
ENDBRANCH   3  16
ENDBRANCH  11   3
TORSDOF 8
ENDMDL
MODEL 4
REMARK VINA RESULT:      -7.1     18.096     20.349
REMARK  Name = 11867448
REMARK  12 active torsions:
REMARK  status: ('A' for Active; 'I' for Inactive)
REMARK    1  A    between atoms: O_3  and  C_11
REMARK    2  A    between atoms: O_3  and  C_16
REMARK    3  A    between atoms: N_5  and  C_10
REMARK    4  A    between atoms: N_5  and  C_14
REMARK    5  A    between atoms: N_6  and  C_21
REMARK    6  A    between atoms: N_7  and  C_22
REMARK    7  A    between atoms: N_7  and  C_29
REMARK    8  A    between atoms: N_7  and  C_30
REMARK    9  A    between atoms: C_14  and  C_15
REMARK   10  A    between atoms: C_25  and  C_26
REMARK   11  A    between atoms: C_26  and  C_31
REMARK   12  A    between atoms: C_26  and  C_32
REMARK                            x       y       z     vdW  Elec       q    Type
REMARK                         _______ _______ _______ _____ _____    ______ ____
ROOT
ATOM      1  O   UNL     1      -6.506 -11.990  17.613  0.00  0.00    -0.369 OA
ATOM      2  O   UNL     1      -4.941 -11.846  20.232  0.00  0.00    -0.369 OA
ATOM      8  C   UNL     1      -5.886 -10.930  19.637  0.00  0.00    +0.170 C 
ATOM      9  C   UNL     1      -5.646 -10.966  18.142  0.00  0.00    +0.191 C 
ATOM     10  C   UNL     1      -7.293 -11.460  19.799  0.00  0.00    +0.111 C 
ATOM     11  C   UNL     1      -4.192 -11.361  18.053  0.00  0.00    +0.235 C 
ATOM     12  C   UNL     1      -7.384 -12.456  18.651  0.00  0.00    +0.181 C 
ATOM     13  C   UNL     1      -4.051 -12.323  19.212  0.00  0.00    +0.207 C 
ENDROOT
BRANCH  10   5
ATOM      5  N   UNL     1      -8.289 -10.405  19.620  0.00  0.00    -0.305 NA
ATOM     33  H   UNL     1      -7.888  -9.652  19.062  0.00  0.00    +0.123 HD
BRANCH   5  14
ATOM     14  C   UNL     1      -9.462 -10.915  18.928  0.00  0.00    +0.116 C 
BRANCH  14  15
ATOM     15  C   UNL     1     -10.158  -9.840  18.136  0.00  0.00    -0.033 A 
ATOM     17  C   UNL     1     -11.546  -9.863  17.997  0.00  0.00    +0.007 A 
ATOM     18  C   UNL     1      -9.414  -8.820  17.540  0.00  0.00    +0.007 A 
ATOM     19  C   UNL     1     -12.190  -8.866  17.265  0.00  0.00    +0.023 A 
ATOM     20  C   UNL     1     -10.059  -7.824  16.808  0.00  0.00    +0.023 A 
ATOM     22  C   UNL     1     -11.447  -7.847  16.670  0.00  0.00    +0.029 A 
BRANCH  22   7
ATOM      7  N   UNL     1     -12.098  -6.839  15.929  0.00  0.00    -0.336 N 
ATOM     29  C   UNL     1     -11.328  -5.857  15.192  0.00  0.00    +0.129 C 
ATOM     30  C   UNL     1     -13.545  -6.764  15.906  0.00  0.00    +0.129 C 
ENDBRANCH  22   7
ENDBRANCH  14  15
ENDBRANCH   5  14
ENDBRANCH  10   5
BRANCH  11   3
ATOM      3  O   UNL     1      -3.843 -11.958  16.825  0.00  0.00    -0.442 OA
BRANCH   3  16
ATOM      4  O   UNL     1      -2.628 -10.391  15.684  0.00  0.00    -0.226 OA
ATOM      6  N   UNL     1      -4.656 -11.216  14.856  0.00  0.00    -0.251 N 
ATOM     16  C   UNL     1      -3.619 -11.108  15.761  0.00  0.00    +0.405 C 
ATOM     34  H   UNL     1      -5.395 -11.872  15.095  0.00  0.00    +0.158 HD
BRANCH   6  21
ATOM     21  C   UNL     1      -4.820 -10.525  13.633  0.00  0.00    +0.036 A 
ATOM     23  C   UNL     1      -3.835 -10.608  12.649  0.00  0.00    +0.024 A 
ATOM     24  C   UNL     1      -5.966  -9.762  13.412  0.00  0.00    +0.024 A 
ATOM     25  C   UNL     1      -5.142  -9.163  11.220  0.00  0.00    -0.045 A 
ATOM     27  C   UNL     1      -3.997  -9.926  11.442  0.00  0.00    +0.006 A 
ATOM     28  C   UNL     1      -6.128  -9.080  12.205  0.00  0.00    +0.006 A 
BRANCH  25  26
ATOM     26  C   UNL     1      -5.315  -8.435   9.931  0.00  0.00    +0.013 C 
ATOM     31  C   UNL     1      -6.749  -8.539   9.381  0.00  0.00    +0.012 C 
ATOM     32  C   UNL     1      -4.309  -8.893   8.856  0.00  0.00    +0.012 C 
ENDBRANCH  25  26
ENDBRANCH   6  21
ENDBRANCH   3  16
ENDBRANCH  11   3
TORSDOF 8
ENDMDL
MODEL 5
REMARK VINA RESULT:      -7.1     16.202     18.538
REMARK  Name = 11867448
REMARK  12 active torsions:
REMARK  status: ('A' for Active; 'I' for Inactive)
REMARK    1  A    between atoms: O_3  and  C_11
REMARK    2  A    between atoms: O_3  and  C_16
REMARK    3  A    between atoms: N_5  and  C_10
REMARK    4  A    between atoms: N_5  and  C_14
REMARK    5  A    between atoms: N_6  and  C_21
REMARK    6  A    between atoms: N_7  and  C_22
REMARK    7  A    between atoms: N_7  and  C_29
REMARK    8  A    between atoms: N_7  and  C_30
REMARK    9  A    between atoms: C_14  and  C_15
REMARK   10  A    between atoms: C_25  and  C_26
REMARK   11  A    between atoms: C_26  and  C_31
REMARK   12  A    between atoms: C_26  and  C_32
REMARK                            x       y       z     vdW  Elec       q    Type
REMARK                         _______ _______ _______ _____ _____    ______ ____
ROOT
ATOM      1  O   UNL     1     -10.906  -7.751  17.501  0.00  0.00    -0.369 OA
ATOM      2  O   UNL     1     -10.299  -9.038  14.798  0.00  0.00    -0.369 OA
ATOM      8  C   UNL     1      -9.423  -8.557  15.840  0.00  0.00    +0.170 C 
ATOM      9  C   UNL     1     -10.070  -7.314  16.415  0.00  0.00    +0.191 C 
ATOM     10  C   UNL     1      -9.408  -9.534  16.995  0.00  0.00    +0.111 C 
ATOM     11  C   UNL     1     -10.888  -6.805  15.254  0.00  0.00    +0.235 C 
ATOM     12  C   UNL     1     -10.675  -9.148  17.745  0.00  0.00    +0.181 C 
ATOM     13  C   UNL     1     -11.358  -8.088  14.607  0.00  0.00    +0.207 C 
ENDROOT
BRANCH  10   5
ATOM      5  N   UNL     1      -8.242  -9.334  17.855  0.00  0.00    -0.305 NA
ATOM     33  H   UNL     1      -8.548  -8.991  18.765  0.00  0.00    +0.123 HD
BRANCH   5  14
ATOM     14  C   UNL     1      -7.526 -10.584  18.051  0.00  0.00    +0.116 C 
BRANCH  14  15
ATOM     15  C   UNL     1      -6.228 -10.613  17.288  0.00  0.00    -0.033 A 
ATOM     17  C   UNL     1      -5.043 -10.955  17.940  0.00  0.00    +0.007 A 
ATOM     18  C   UNL     1      -6.210 -10.298  15.929  0.00  0.00    +0.007 A 
ATOM     19  C   UNL     1      -3.841 -10.983  17.233  0.00  0.00    +0.023 A 
ATOM     20  C   UNL     1      -5.008 -10.326  15.223  0.00  0.00    +0.023 A 
ATOM     22  C   UNL     1      -3.824 -10.668  15.875  0.00  0.00    +0.029 A 
BRANCH  22   7
ATOM      7  N   UNL     1      -2.608 -10.696  15.159  0.00  0.00    -0.336 N 
ATOM     29  C   UNL     1      -1.346 -10.808  15.862  0.00  0.00    +0.129 C 
ATOM     30  C   UNL     1      -2.605 -10.598  13.713  0.00  0.00    +0.129 C 
ENDBRANCH  22   7
ENDBRANCH  14  15
ENDBRANCH   5  14
ENDBRANCH  10   5
BRANCH  11   3
ATOM      3  O   UNL     1     -11.965  -5.982  15.642  0.00  0.00    -0.442 OA
BRANCH   3  16
ATOM      4  O   UNL     1     -13.992  -6.319  14.636  0.00  0.00    -0.226 OA
ATOM      6  N   UNL     1     -12.481  -4.712  13.850  0.00  0.00    -0.251 N 
ATOM     16  C   UNL     1     -12.924  -5.718  14.686  0.00  0.00    +0.405 C 
ATOM     34  H   UNL     1     -11.560  -4.333  14.053  0.00  0.00    +0.158 HD
BRANCH   6  21
ATOM     21  C   UNL     1     -13.151  -4.141  12.744  0.00  0.00    +0.036 A 
ATOM     23  C   UNL     1     -12.549  -4.147  11.486  0.00  0.00    +0.024 A 
ATOM     24  C   UNL     1     -14.412  -3.571  12.911  0.00  0.00    +0.024 A 
ATOM     25  C   UNL     1     -14.471  -3.013  10.560  0.00  0.00    -0.045 A 
ATOM     27  C   UNL     1     -13.210  -3.584  10.394  0.00  0.00    +0.006 A 
ATOM     28  C   UNL     1     -15.073  -3.006  11.818  0.00  0.00    +0.006 A 
BRANCH  25  26
ATOM     26  C   UNL     1     -15.176  -2.411   9.392  0.00  0.00    +0.013 C 
ATOM     31  C   UNL     1     -14.246  -2.205   8.183  0.00  0.00    +0.012 C 
ATOM     32  C   UNL     1     -15.875  -1.084   9.746  0.00  0.00    +0.012 C 
ENDBRANCH  25  26
ENDBRANCH   6  21
ENDBRANCH   3  16
ENDBRANCH  11   3
TORSDOF 8
ENDMDL
MODEL 6
REMARK VINA RESULT:      -7.1     28.033     31.813
REMARK  Name = 11867448
REMARK  12 active torsions:
REMARK  status: ('A' for Active; 'I' for Inactive)
REMARK    1  A    between atoms: O_3  and  C_11
REMARK    2  A    between atoms: O_3  and  C_16
REMARK    3  A    between atoms: N_5  and  C_10
REMARK    4  A    between atoms: N_5  and  C_14
REMARK    5  A    between atoms: N_6  and  C_21
REMARK    6  A    between atoms: N_7  and  C_22
REMARK    7  A    between atoms: N_7  and  C_29
REMARK    8  A    between atoms: N_7  and  C_30
REMARK    9  A    between atoms: C_14  and  C_15
REMARK   10  A    between atoms: C_25  and  C_26
REMARK   11  A    between atoms: C_26  and  C_31
REMARK   12  A    between atoms: C_26  and  C_32
REMARK                            x       y       z     vdW  Elec       q    Type
REMARK                         _______ _______ _______ _____ _____    ______ ____
ROOT
ATOM      1  O   UNL     1      14.129   9.121  19.245  0.00  0.00    -0.369 OA
ATOM      2  O   UNL     1      11.817   7.243  19.925  0.00  0.00    -0.369 OA
ATOM      8  C   UNL     1      13.186   6.971  19.555  0.00  0.00    +0.170 C 
ATOM      9  C   UNL     1      13.574   8.008  18.522  0.00  0.00    +0.191 C 
ATOM     10  C   UNL     1      14.104   7.252  20.725  0.00  0.00    +0.111 C 
ATOM     11  C   UNL     1      12.246   8.359  17.896  0.00  0.00    +0.235 C 
ATOM     12  C   UNL     1      14.274   8.762  20.628  0.00  0.00    +0.181 C 
ATOM     13  C   UNL     1      11.306   8.284  19.079  0.00  0.00    +0.207 C 
ENDROOT
BRANCH  10   5
ATOM      5  N   UNL     1      15.400   6.595  20.562  0.00  0.00    -0.305 NA
ATOM     33  H   UNL     1      15.493   6.265  19.601  0.00  0.00    +0.123 HD
BRANCH   5  14
ATOM     14  C   UNL     1      16.486   7.523  20.836  0.00  0.00    +0.116 C 
BRANCH  14  15
ATOM     15  C   UNL     1      17.823   6.831  20.856  0.00  0.00    -0.033 A 
ATOM     17  C   UNL     1      18.133   5.882  19.883  0.00  0.00    +0.007 A 
ATOM     18  C   UNL     1      18.754   7.140  21.850  0.00  0.00    +0.007 A 
ATOM     19  C   UNL     1      19.372   5.242  19.901  0.00  0.00    +0.023 A 
ATOM     20  C   UNL     1      19.992   6.500  21.868  0.00  0.00    +0.023 A 
ATOM     22  C   UNL     1      20.301   5.551  20.893  0.00  0.00    +0.029 A 
BRANCH  22   7
ATOM      7  N   UNL     1      21.555   4.903  20.912  0.00  0.00    -0.336 N 
ATOM     29  C   UNL     1      21.649   3.499  21.254  0.00  0.00    +0.129 C 
ATOM     30  C   UNL     1      22.765   5.639  20.604  0.00  0.00    +0.129 C 
ENDBRANCH  22   7
ENDBRANCH  14  15
ENDBRANCH   5  14
ENDBRANCH  10   5
BRANCH  11   3
ATOM      3  O   UNL     1      12.229   9.628  17.285  0.00  0.00    -0.442 OA
BRANCH   3  16
ATOM      4  O   UNL     1      12.757   8.842  15.202  0.00  0.00    -0.226 OA
ATOM      6  N   UNL     1      13.463  10.950  15.937  0.00  0.00    -0.251 N 
ATOM     16  C   UNL     1      12.823   9.731  16.044  0.00  0.00    +0.405 C 
ATOM     34  H   UNL     1      13.405  11.561  16.748  0.00  0.00    +0.158 HD
BRANCH   6  21
ATOM     21  C   UNL     1      14.193  11.457  14.837  0.00  0.00    +0.036 A 
ATOM     23  C   UNL     1      13.566  12.289  13.910  0.00  0.00    +0.024 A 
ATOM     24  C   UNL     1      15.537  11.125  14.679  0.00  0.00    +0.024 A 
ATOM     25  C   UNL     1      15.630  12.458  12.666  0.00  0.00    -0.045 A 
ATOM     27  C   UNL     1      14.286  12.790  12.825  0.00  0.00    +0.006 A 
ATOM     28  C   UNL     1      16.257  11.625  13.593  0.00  0.00    +0.006 A 
BRANCH  25  26
ATOM     26  C   UNL     1      16.399  12.993  11.506  0.00  0.00    +0.013 C 
ATOM     31  C   UNL     1      15.666  12.787  10.167  0.00  0.00    +0.012 C 
ATOM     32  C   UNL     1      17.821  12.405  11.419  0.00  0.00    +0.012 C 
ENDBRANCH  25  26
ENDBRANCH   6  21
ENDBRANCH   3  16
ENDBRANCH  11   3
TORSDOF 8
ENDMDL
MODEL 7
REMARK VINA RESULT:      -7.0     19.462     23.422
REMARK  Name = 11867448
REMARK  12 active torsions:
REMARK  status: ('A' for Active; 'I' for Inactive)
REMARK    1  A    between atoms: O_3  and  C_11
REMARK    2  A    between atoms: O_3  and  C_16
REMARK    3  A    between atoms: N_5  and  C_10
REMARK    4  A    between atoms: N_5  and  C_14
REMARK    5  A    between atoms: N_6  and  C_21
REMARK    6  A    between atoms: N_7  and  C_22
REMARK    7  A    between atoms: N_7  and  C_29
REMARK    8  A    between atoms: N_7  and  C_30
REMARK    9  A    between atoms: C_14  and  C_15
REMARK   10  A    between atoms: C_25  and  C_26
REMARK   11  A    between atoms: C_26  and  C_31
REMARK   12  A    between atoms: C_26  and  C_32
REMARK                            x       y       z     vdW  Elec       q    Type
REMARK                         _______ _______ _______ _____ _____    ______ ____
ROOT
ATOM      1  O   UNL     1      -3.015 -10.649  16.556  0.00  0.00    -0.369 OA
ATOM      2  O   UNL     1      -4.528 -12.976  15.280  0.00  0.00    -0.369 OA
ATOM      8  C   UNL     1      -4.306 -11.623  14.827  0.00  0.00    +0.170 C 
ATOM      9  C   UNL     1      -4.360 -10.737  16.054  0.00  0.00    +0.191 C 
ATOM     10  C   UNL     1      -2.888 -11.472  14.323  0.00  0.00    +0.111 C 
ATOM     11  C   UNL     1      -5.251 -11.522  16.985  0.00  0.00    +0.235 C 
ATOM     12  C   UNL     1      -2.118 -11.269  15.621  0.00  0.00    +0.181 C 
ATOM     13  C   UNL     1      -4.857 -12.949  16.677  0.00  0.00    +0.207 C 
ENDROOT
BRANCH  10   5
ATOM      5  N   UNL     1      -2.742 -10.294  13.470  0.00  0.00    -0.305 NA
ATOM     33  H   UNL     1      -2.214  -9.578  13.969  0.00  0.00    +0.123 HD
BRANCH   5  14
ATOM     14  C   UNL     1      -2.025 -10.627  12.249  0.00  0.00    +0.116 C 
BRANCH  14  15
ATOM     15  C   UNL     1      -2.906 -10.519  11.033  0.00  0.00    -0.033 A 
ATOM     17  C   UNL     1      -3.067  -9.290  10.394  0.00  0.00    +0.007 A 
ATOM     18  C   UNL     1      -3.563 -11.650  10.545  0.00  0.00    +0.007 A 
ATOM     19  C   UNL     1      -3.883  -9.191   9.267  0.00  0.00    +0.023 A 
ATOM     20  C   UNL     1      -4.379 -11.550   9.419  0.00  0.00    +0.023 A 
ATOM     22  C   UNL     1      -4.539 -10.321   8.780  0.00  0.00    +0.029 A 
BRANCH  22   7
ATOM      7  N   UNL     1      -5.364 -10.221   7.640  0.00  0.00    -0.336 N 
ATOM     29  C   UNL     1      -6.538  -9.372   7.657  0.00  0.00    +0.129 C 
ATOM     30  C   UNL     1      -5.056 -10.977   6.443  0.00  0.00    +0.129 C 
ENDBRANCH  22   7
ENDBRANCH  14  15
ENDBRANCH   5  14
ENDBRANCH  10   5
BRANCH  11   3
ATOM      3  O   UNL     1      -5.065 -11.202  18.346  0.00  0.00    -0.442 OA
BRANCH   3  16
ATOM      4  O   UNL     1      -6.121 -10.381  20.201  0.00  0.00    -0.226 OA
ATOM      6  N   UNL     1      -7.302 -10.923  18.254  0.00  0.00    -0.251 N 
ATOM     16  C   UNL     1      -6.180 -10.792  19.048  0.00  0.00    +0.405 C 
ATOM     34  H   UNL     1      -7.149 -11.285  17.316  0.00  0.00    +0.158 HD
BRANCH   6  21
ATOM     21  C   UNL     1      -8.642 -10.617  18.583  0.00  0.00    +0.036 A 
ATOM     23  C   UNL     1      -9.245 -11.224  19.684  0.00  0.00    +0.024 A 
ATOM     24  C   UNL     1      -9.361  -9.710  17.806  0.00  0.00    +0.024 A 
ATOM     25  C   UNL     1     -11.287 -10.015  19.233  0.00  0.00    -0.045 A 
ATOM     27  C   UNL     1     -10.567 -10.922  20.010  0.00  0.00    +0.006 A 
ATOM     28  C   UNL     1     -10.685  -9.408  18.131  0.00  0.00    +0.006 A 
BRANCH  25  26
ATOM     26  C   UNL     1     -12.701  -9.693  19.581  0.00  0.00    +0.013 C 
ATOM     31  C   UNL     1     -13.224 -10.532  20.762  0.00  0.00    +0.012 C 
ATOM     32  C   UNL     1     -13.652  -9.836  18.377  0.00  0.00    +0.012 C 
ENDBRANCH  25  26
ENDBRANCH   6  21
ENDBRANCH   3  16
ENDBRANCH  11   3
TORSDOF 8
ENDMDL
MODEL 8
REMARK VINA RESULT:      -6.9     20.382     22.621
REMARK  Name = 11867448
REMARK  12 active torsions:
REMARK  status: ('A' for Active; 'I' for Inactive)
REMARK    1  A    between atoms: O_3  and  C_11
REMARK    2  A    between atoms: O_3  and  C_16
REMARK    3  A    between atoms: N_5  and  C_10
REMARK    4  A    between atoms: N_5  and  C_14
REMARK    5  A    between atoms: N_6  and  C_21
REMARK    6  A    between atoms: N_7  and  C_22
REMARK    7  A    between atoms: N_7  and  C_29
REMARK    8  A    between atoms: N_7  and  C_30
REMARK    9  A    between atoms: C_14  and  C_15
REMARK   10  A    between atoms: C_25  and  C_26
REMARK   11  A    between atoms: C_26  and  C_31
REMARK   12  A    between atoms: C_26  and  C_32
REMARK                            x       y       z     vdW  Elec       q    Type
REMARK                         _______ _______ _______ _____ _____    ______ ____
ROOT
ATOM      1  O   UNL     1      -3.496 -12.367  12.721  0.00  0.00    -0.369 OA
ATOM      2  O   UNL     1      -1.490 -10.119  13.224  0.00  0.00    -0.369 OA
ATOM      8  C   UNL     1      -2.651 -10.543  13.972  0.00  0.00    +0.170 C 
ATOM      9  C   UNL     1      -3.694 -10.962  12.957  0.00  0.00    +0.191 C 
ATOM     10  C   UNL     1      -2.341 -11.814  14.731  0.00  0.00    +0.111 C 
ATOM     11  C   UNL     1      -3.325 -10.138  11.748  0.00  0.00    +0.235 C 
ATOM     12  C   UNL     1      -2.526 -12.872  13.652  0.00  0.00    +0.181 C 
ATOM     13  C   UNL     1      -1.815 -10.116  11.825  0.00  0.00    +0.207 C 
ENDROOT
BRANCH  10   5
ATOM      5  N   UNL     1      -3.294 -12.039  15.816  0.00  0.00    -0.305 NA
ATOM     33  H   UNL     1      -2.978 -12.822  16.388  0.00  0.00    +0.123 HD
BRANCH   5  14
ATOM     14  C   UNL     1      -3.396 -10.862  16.664  0.00  0.00    +0.116 C 
BRANCH  14  15
ATOM     15  C   UNL     1      -4.829 -10.513  16.971  0.00  0.00    -0.033 A 
ATOM     17  C   UNL     1      -5.615  -9.879  16.008  0.00  0.00    +0.007 A 
ATOM     18  C   UNL     1      -5.371 -10.825  18.218  0.00  0.00    +0.007 A 
ATOM     19  C   UNL     1      -6.942  -9.558  16.292  0.00  0.00    +0.023 A 
ATOM     20  C   UNL     1      -6.698 -10.503  18.502  0.00  0.00    +0.023 A 
ATOM     22  C   UNL     1      -7.483  -9.870  17.539  0.00  0.00    +0.029 A 
BRANCH  22   7
ATOM      7  N   UNL     1      -8.826  -9.545  17.826  0.00  0.00    -0.336 N 
ATOM     29  C   UNL     1      -9.429  -8.355  17.261  0.00  0.00    +0.129 C 
ATOM     30  C   UNL     1      -9.614 -10.389  18.702  0.00  0.00    +0.129 C 
ENDBRANCH  22   7
ENDBRANCH  14  15
ENDBRANCH   5  14
ENDBRANCH  10   5
BRANCH  11   3
ATOM      3  O   UNL     1      -3.786 -10.683  10.533  0.00  0.00    -0.442 OA
BRANCH   3  16
ATOM      4  O   UNL     1      -3.532  -8.810   9.244  0.00  0.00    -0.226 OA
ATOM      6  N   UNL     1      -5.417 -10.186   9.055  0.00  0.00    -0.251 N 
ATOM     16  C   UNL     1      -4.196  -9.789   9.564  0.00  0.00    +0.405 C 
ATOM     34  H   UNL     1      -5.814 -11.035   9.450  0.00  0.00    +0.158 HD
BRANCH   6  21
ATOM     21  C   UNL     1      -6.187  -9.557   8.051  0.00  0.00    +0.036 A 
ATOM     23  C   UNL     1      -5.974  -9.873   6.709  0.00  0.00    +0.024 A 
ATOM     24  C   UNL     1      -7.159  -8.621   8.401  0.00  0.00    +0.024 A 
ATOM     25  C   UNL     1      -7.706  -8.316   6.067  0.00  0.00    -0.045 A 
ATOM     27  C   UNL     1      -6.734  -9.252   5.718  0.00  0.00    +0.006 A 
ATOM     28  C   UNL     1      -7.919  -7.999   7.409  0.00  0.00    +0.006 A 
BRANCH  25  26
ATOM     26  C   UNL     1      -8.519  -7.653   5.007  0.00  0.00    +0.013 C 
ATOM     31  C   UNL     1     -10.027  -7.681   5.316  0.00  0.00    +0.012 C 
ATOM     32  C   UNL     1      -8.260  -8.246   3.609  0.00  0.00    +0.012 C 
ENDBRANCH  25  26
ENDBRANCH   6  21
ENDBRANCH   3  16
ENDBRANCH  11   3
TORSDOF 8
ENDMDL
MODEL 9
REMARK VINA RESULT:      -6.8     17.640     20.231
REMARK  Name = 11867448
REMARK  12 active torsions:
REMARK  status: ('A' for Active; 'I' for Inactive)
REMARK    1  A    between atoms: O_3  and  C_11
REMARK    2  A    between atoms: O_3  and  C_16
REMARK    3  A    between atoms: N_5  and  C_10
REMARK    4  A    between atoms: N_5  and  C_14
REMARK    5  A    between atoms: N_6  and  C_21
REMARK    6  A    between atoms: N_7  and  C_22
REMARK    7  A    between atoms: N_7  and  C_29
REMARK    8  A    between atoms: N_7  and  C_30
REMARK    9  A    between atoms: C_14  and  C_15
REMARK   10  A    between atoms: C_25  and  C_26
REMARK   11  A    between atoms: C_26  and  C_31
REMARK   12  A    between atoms: C_26  and  C_32
REMARK                            x       y       z     vdW  Elec       q    Type
REMARK                         _______ _______ _______ _____ _____    ______ ____
ROOT
ATOM      1  O   UNL     1      -7.062  -9.639  17.959  0.00  0.00    -0.369 OA
ATOM      2  O   UNL     1      -8.496 -12.323  18.228  0.00  0.00    -0.369 OA
ATOM      8  C   UNL     1      -8.828 -11.013  18.736  0.00  0.00    +0.170 C 
ATOM      9  C   UNL     1      -7.522 -10.351  19.122  0.00  0.00    +0.191 C 
ATOM     10  C   UNL     1      -9.366 -10.146  17.618  0.00  0.00    +0.111 C 
ATOM     11  C   UNL     1      -6.637 -11.532  19.437  0.00  0.00    +0.235 C 
ATOM     12  C   UNL     1      -8.083  -9.671  16.949  0.00  0.00    +0.181 C 
ATOM     13  C   UNL     1      -7.092 -12.552  18.417  0.00  0.00    +0.207 C 
ENDROOT
BRANCH  10   5
ATOM      5  N   UNL     1     -10.109  -8.999  18.138  0.00  0.00    -0.305 NA
ATOM     33  H   UNL     1      -9.868  -8.856  19.118  0.00  0.00    +0.123 HD
BRANCH   5  14
ATOM     14  C   UNL     1      -9.773  -7.791  17.401  0.00  0.00    +0.116 C 
BRANCH  14  15
ATOM     15  C   UNL     1     -10.933  -7.293  16.580  0.00  0.00    -0.033 A 
ATOM     17  C   UNL     1     -12.188  -7.887  16.713  0.00  0.00    +0.007 A 
ATOM     18  C   UNL     1     -10.753  -6.237  15.686  0.00  0.00    +0.007 A 
ATOM     19  C   UNL     1     -13.263  -7.424  15.954  0.00  0.00    +0.023 A 
ATOM     20  C   UNL     1     -11.827  -5.775  14.927  0.00  0.00    +0.023 A 
ATOM     22  C   UNL     1     -13.082  -6.369  15.061  0.00  0.00    +0.029 A 
BRANCH  22   7
ATOM      7  N   UNL     1     -14.169  -5.901  14.292  0.00  0.00    -0.336 N 
ATOM     29  C   UNL     1     -15.471  -6.526  14.408  0.00  0.00    +0.129 C 
ATOM     30  C   UNL     1     -13.993  -4.800  13.367  0.00  0.00    +0.129 C 
ENDBRANCH  22   7
ENDBRANCH  14  15
ENDBRANCH   5  14
ENDBRANCH  10   5
BRANCH  11   3
ATOM      3  O   UNL     1      -5.260 -11.250  19.327  0.00  0.00    -0.442 OA
BRANCH   3  16
ATOM      4  O   UNL     1      -4.253 -12.876  18.073  0.00  0.00    -0.226 OA
ATOM      6  N   UNL     1      -4.473 -10.680  17.291  0.00  0.00    -0.251 N 
ATOM     16  C   UNL     1      -4.617 -11.713  18.197  0.00  0.00    +0.405 C 
ATOM     34  H   UNL     1      -4.843  -9.777  17.576  0.00  0.00    +0.158 HD
BRANCH   6  21
ATOM     21  C   UNL     1      -3.872 -10.722  16.013  0.00  0.00    +0.036 A 
ATOM     23  C   UNL     1      -2.482 -10.713  15.895  0.00  0.00    +0.024 A 
ATOM     24  C   UNL     1      -4.668 -10.771  14.869  0.00  0.00    +0.024 A 
ATOM     25  C   UNL     1      -2.684 -10.803  13.490  0.00  0.00    -0.045 A 
ATOM     27  C   UNL     1      -1.888 -10.754  14.633  0.00  0.00    +0.006 A 
ATOM     28  C   UNL     1      -4.074 -10.811  13.606  0.00  0.00    +0.006 A 
BRANCH  25  26
ATOM     26  C   UNL     1      -2.049 -10.847  12.141  0.00  0.00    +0.013 C 
ATOM     31  C   UNL     1      -1.274  -9.557  11.811  0.00  0.00    +0.012 C 
ATOM     32  C   UNL     1      -3.064 -11.147  11.021  0.00  0.00    +0.012 C 
ENDBRANCH  25  26
ENDBRANCH   6  21
ENDBRANCH   3  16
ENDBRANCH  11   3
TORSDOF 8
ENDMDL
MODEL 10
REMARK VINA RESULT:      -6.8     28.615     32.143
REMARK  Name = 11867448
REMARK  12 active torsions:
REMARK  status: ('A' for Active; 'I' for Inactive)
REMARK    1  A    between atoms: O_3  and  C_11
REMARK    2  A    between atoms: O_3  and  C_16
REMARK    3  A    between atoms: N_5  and  C_10
REMARK    4  A    between atoms: N_5  and  C_14
REMARK    5  A    between atoms: N_6  and  C_21
REMARK    6  A    between atoms: N_7  and  C_22
REMARK    7  A    between atoms: N_7  and  C_29
REMARK    8  A    between atoms: N_7  and  C_30
REMARK    9  A    between atoms: C_14  and  C_15
REMARK   10  A    between atoms: C_25  and  C_26
REMARK   11  A    between atoms: C_26  and  C_31
REMARK   12  A    between atoms: C_26  and  C_32
REMARK                            x       y       z     vdW  Elec       q    Type
REMARK                         _______ _______ _______ _____ _____    ______ ____
ROOT
ATOM      1  O   UNL     1      14.005  10.582  17.881  0.00  0.00    -0.369 OA
ATOM      2  O   UNL     1      13.724   8.212  15.974  0.00  0.00    -0.369 OA
ATOM      8  C   UNL     1      13.067   9.498  15.996  0.00  0.00    +0.170 C 
ATOM      9  C   UNL     1      12.844   9.849  17.452  0.00  0.00    +0.191 C 
ATOM     10  C   UNL     1      14.011  10.570  15.498  0.00  0.00    +0.111 C 
ATOM     11  C   UNL     1      12.770   8.492  18.108  0.00  0.00    +0.235 C 
ATOM     12  C   UNL     1      14.838  10.859  16.743  0.00  0.00    +0.181 C 
ATOM     13  C   UNL     1      13.781   7.697  17.312  0.00  0.00    +0.207 C 
ENDROOT
BRANCH  10   5
ATOM      5  N   UNL     1      13.290  11.775  15.089  0.00  0.00    -0.305 NA
ATOM     33  H   UNL     1      13.410  12.497  15.800  0.00  0.00    +0.123 HD
BRANCH   5  14
ATOM     14  C   UNL     1      13.807  12.281  13.827  0.00  0.00    +0.116 C 
BRANCH  14  15
ATOM     15  C   UNL     1      12.763  12.251  12.742  0.00  0.00    -0.033 A 
ATOM     17  C   UNL     1      13.134  12.442  11.411  0.00  0.00    +0.007 A 
ATOM     18  C   UNL     1      11.423  12.033  13.069  0.00  0.00    +0.007 A 
ATOM     19  C   UNL     1      12.167  12.413  10.407  0.00  0.00    +0.023 A 
ATOM     20  C   UNL     1      10.457  12.005  12.064  0.00  0.00    +0.023 A 
ATOM     22  C   UNL     1      10.829  12.195  10.733  0.00  0.00    +0.029 A 
BRANCH  22   7
ATOM      7  N   UNL     1       9.851  12.166   9.716  0.00  0.00    -0.336 N 
ATOM     29  C   UNL     1       8.442  12.177  10.055  0.00  0.00    +0.129 C 
ATOM     30  C   UNL     1      10.242  12.111   8.322  0.00  0.00    +0.129 C 
ENDBRANCH  22   7
ENDBRANCH  14  15
ENDBRANCH   5  14
ENDBRANCH  10   5
BRANCH  11   3
ATOM      3  O   UNL     1      13.076   8.513  19.484  0.00  0.00    -0.442 OA
BRANCH   3  16
ATOM      4  O   UNL     1      13.801   6.536  20.377  0.00  0.00    -0.226 OA
ATOM      6  N   UNL     1      15.298   8.222  19.746  0.00  0.00    -0.251 N 
ATOM     16  C   UNL     1      14.056   7.643  19.918  0.00  0.00    +0.405 C 
ATOM     34  H   UNL     1      15.307   9.156  19.345  0.00  0.00    +0.158 HD
BRANCH   6  21
ATOM     21  C   UNL     1      16.563   7.676  20.060  0.00  0.00    +0.036 A 
ATOM     23  C   UNL     1      16.978   6.488  19.458  0.00  0.00    +0.024 A 
ATOM     24  C   UNL     1      17.396   8.324  20.970  0.00  0.00    +0.024 A 
ATOM     25  C   UNL     1      19.060   6.596  20.677  0.00  0.00    -0.045 A 
ATOM     27  C   UNL     1      18.227   5.949  19.766  0.00  0.00    +0.006 A 
ATOM     28  C   UNL     1      18.646   7.784  21.280  0.00  0.00    +0.006 A 
BRANCH  25  26
ATOM     26  C   UNL     1      20.395   6.019  21.007  0.00  0.00    +0.013 C 
ATOM     31  C   UNL     1      20.557   4.576  20.495  0.00  0.00    +0.012 C 
ATOM     32  C   UNL     1      20.706   6.077  22.515  0.00  0.00    +0.012 C 
ENDBRANCH  25  26
ENDBRANCH   6  21
ENDBRANCH   3  16
ENDBRANCH  11   3
TORSDOF 8
ENDMDL
