MODEL 1
REMARK VINA RESULT:      -8.9      0.000      0.000
REMARK  Name = 56774828
REMARK  10 active torsions:
REMARK  status: ('A' for Active; 'I' for Inactive)
REMARK    1  A    between atoms: O_5  and  C_13
REMARK    2  A    between atoms: N_8  and  C_15
REMARK    3  A    between atoms: N_9  and  C_26
REMARK    4  A    between atoms: N_10  and  C_35
REMARK    5  A    between atoms: C_12  and  C_13
REMARK    6  A    between atoms: C_13  and  C_17
REMARK    7  A    between atoms: C_15  and  C_19
REMARK    8  A    between atoms: C_29  and  C_30
REMARK    9  A    between atoms: C_31  and  C_32
REMARK   10  A    between atoms: C_34  and  C_36
REMARK                            x       y       z     vdW  Elec       q    Type
REMARK                         _______ _______ _______ _____ _____    ______ ____
ROOT
ATOM     13  C   UNL     1      14.171   6.790  19.961  0.00  0.00    +0.167 C 
ENDROOT
BRANCH  13  12
ATOM      4  O   UNL     1      14.321   8.427  17.531  0.00  0.00    -0.369 OA
ATOM      6  O   UNL     1      10.724   8.377  17.848  0.00  0.00    -0.273 OA
ATOM      8  N   UNL     1      12.345   8.387  19.519  0.00  0.00    -0.287 N 
ATOM     12  C   UNL     1      13.769   8.263  19.851  0.00  0.00    +0.135 C 
ATOM     14  C   UNL     1      14.612   8.986  18.808  0.00  0.00    +0.185 C 
ATOM     16  C   UNL     1      11.904   8.444  18.198  0.00  0.00    +0.242 C 
ATOM     18  C   UNL     1      12.988   8.694  17.156  0.00  0.00    +0.255 C 
BRANCH   8  15
ATOM     15  C   UNL     1      11.386   8.265  20.609  0.00  0.00    +0.143 C 
BRANCH  15  19
ATOM     19  C   UNL     1      11.337   9.502  21.457  0.00  0.00    -0.030 A 
ATOM     22  C   UNL     1      11.705  10.734  20.915  0.00  0.00    +0.006 A 
ATOM     23  C   UNL     1      10.923   9.421  22.786  0.00  0.00    +0.006 A 
ATOM     27  C   UNL     1      11.659  11.884  21.702  0.00  0.00    +0.013 A 
ATOM     28  C   UNL     1      10.876  10.572  23.574  0.00  0.00    +0.013 A 
ATOM     29  C   UNL     1      11.245  11.803  23.032  0.00  0.00    +0.055 A 
BRANCH  29  30
ATOM      1  F   UNL     1      12.355  13.285  24.548  0.00  0.00    -0.166 F 
ATOM      2  F   UNL     1      10.220  12.976  24.829  0.00  0.00    -0.166 F 
ATOM      3  F   UNL     1      10.941  14.172  23.162  0.00  0.00    -0.166 F 
ATOM     30  C   UNL     1      11.193  13.034  23.873  0.00  0.00    +0.417 C 
ENDBRANCH  29  30
ENDBRANCH  15  19
ENDBRANCH   8  15
ENDBRANCH  13  12
BRANCH  13  17
ATOM     17  C   UNL     1      15.667   6.622  20.045  0.00  0.00    -0.017 A 
ATOM     20  C   UNL     1      16.359   6.004  19.003  0.00  0.00    +0.008 A 
ATOM     21  C   UNL     1      16.358   7.083  21.164  0.00  0.00    +0.008 A 
ATOM     24  C   UNL     1      17.743   5.848  19.080  0.00  0.00    +0.023 A 
ATOM     25  C   UNL     1      17.743   6.928  21.242  0.00  0.00    +0.023 A 
ATOM     26  C   UNL     1      18.435   6.311  20.200  0.00  0.00    +0.034 A 
BRANCH  26   9
ATOM      7  O   UNL     1      20.211   5.913  22.583  0.00  0.00    -0.268 OA
ATOM      9  N   UNL     1      19.819   6.156  20.277  0.00  0.00    -0.280 N 
ATOM     31  C   UNL     1      20.604   5.971  21.423  0.00  0.00    +0.266 C 
ATOM     38  H   UNL     1      20.303   6.187  19.383  0.00  0.00    +0.155 HD
BRANCH  31  32
ATOM     10  N   UNL     1      22.731   4.619  21.156  0.00  0.00    -0.262 N 
ATOM     11  N   UNL     1      24.047   4.742  20.912  0.00  0.00    -0.176 NA
ATOM     32  C   UNL     1      22.061   5.807  21.177  0.00  0.00    +0.124 A 
ATOM     33  C   UNL     1      23.004   6.774  20.929  0.00  0.00    +0.057 A 
ATOM     34  C   UNL     1      24.207   6.061  20.773  0.00  0.00    +0.061 A 
ATOM     35  C   UNL     1      22.172   3.304  21.367  0.00  0.00    +0.173 C 
ATOM     36  C   UNL     1      25.545   6.609  20.489  0.00  0.00    +0.067 C 
ENDBRANCH  31  32
ENDBRANCH  26   9
ENDBRANCH  13  17
BRANCH  13   5
ATOM      5  O   UNL     1      13.564   6.222  21.116  0.00  0.00    -0.385 OA
ATOM     37  H   UNL     1      13.626   5.253  21.067  0.00  0.00    +0.210 HD
ENDBRANCH  13   5
TORSDOF 8
ENDMDL
MODEL 2
REMARK VINA RESULT:      -7.9      3.350      4.326
REMARK  Name = 56774828
REMARK  10 active torsions:
REMARK  status: ('A' for Active; 'I' for Inactive)
REMARK    1  A    between atoms: O_5  and  C_13
REMARK    2  A    between atoms: N_8  and  C_15
REMARK    3  A    between atoms: N_9  and  C_26
REMARK    4  A    between atoms: N_10  and  C_35
REMARK    5  A    between atoms: C_12  and  C_13
REMARK    6  A    between atoms: C_13  and  C_17
REMARK    7  A    between atoms: C_15  and  C_19
REMARK    8  A    between atoms: C_29  and  C_30
REMARK    9  A    between atoms: C_31  and  C_32
REMARK   10  A    between atoms: C_34  and  C_36
REMARK                            x       y       z     vdW  Elec       q    Type
REMARK                         _______ _______ _______ _____ _____    ______ ____
ROOT
ATOM     13  C   UNL     1      14.465   6.944  20.271  0.00  0.00    +0.167 C 
ENDROOT
BRANCH  13  12
ATOM      4  O   UNL     1      12.006   7.540  18.785  0.00  0.00    -0.369 OA
ATOM      6  O   UNL     1      11.493   9.862  21.502  0.00  0.00    -0.273 OA
ATOM      8  N   UNL     1      13.484   9.195  20.498  0.00  0.00    -0.287 N 
ATOM     12  C   UNL     1      14.143   8.267  19.571  0.00  0.00    +0.135 C 
ATOM     14  C   UNL     1      13.264   8.041  18.347  0.00  0.00    +0.185 C 
ATOM     16  C   UNL     1      12.097   9.235  20.630  0.00  0.00    +0.242 C 
ATOM     18  C   UNL     1      11.315   8.506  19.544  0.00  0.00    +0.255 C 
BRANCH   8  15
ATOM     15  C   UNL     1      14.332   9.949  21.412  0.00  0.00    +0.143 C 
BRANCH  15  19
ATOM     19  C   UNL     1      15.400  10.716  20.687  0.00  0.00    -0.030 A 
ATOM     22  C   UNL     1      15.055  11.569  19.639  0.00  0.00    +0.006 A 
ATOM     23  C   UNL     1      16.736  10.575  21.061  0.00  0.00    +0.006 A 
ATOM     27  C   UNL     1      16.046  12.282  18.966  0.00  0.00    +0.013 A 
ATOM     28  C   UNL     1      17.728  11.287  20.387  0.00  0.00    +0.013 A 
ATOM     29  C   UNL     1      17.383  12.141  19.340  0.00  0.00    +0.055 A 
BRANCH  29  30
ATOM      1  F   UNL     1      19.583  12.186  18.402  0.00  0.00    -0.166 F 
ATOM      2  F   UNL     1      18.839  14.021  19.302  0.00  0.00    -0.166 F 
ATOM      3  F   UNL     1      18.058  13.347  17.387  0.00  0.00    -0.166 F 
ATOM     30  C   UNL     1      18.443  12.906  18.621  0.00  0.00    +0.417 C 
ENDBRANCH  29  30
ENDBRANCH  15  19
ENDBRANCH   8  15
ENDBRANCH  13  12
BRANCH  13  17
ATOM     17  C   UNL     1      15.943   6.644  20.249  0.00  0.00    -0.017 A 
ATOM     20  C   UNL     1      16.507   5.994  19.151  0.00  0.00    +0.008 A 
ATOM     21  C   UNL     1      16.745   7.017  21.328  0.00  0.00    +0.008 A 
ATOM     24  C   UNL     1      17.874   5.717  19.131  0.00  0.00    +0.023 A 
ATOM     25  C   UNL     1      18.112   6.740  21.307  0.00  0.00    +0.023 A 
ATOM     26  C   UNL     1      18.677   6.090  20.210  0.00  0.00    +0.034 A 
BRANCH  26   9
ATOM      7  O   UNL     1      20.570   5.507  22.461  0.00  0.00    -0.268 OA
ATOM      9  N   UNL     1      20.044   5.814  20.189  0.00  0.00    -0.280 N 
ATOM     31  C   UNL     1      20.886   5.546  21.277  0.00  0.00    +0.266 C 
ATOM     38  H   UNL     1      20.466   5.814  19.264  0.00  0.00    +0.155 HD
BRANCH  31  32
ATOM     10  N   UNL     1      23.244   6.191  20.609  0.00  0.00    -0.262 N 
ATOM     11  N   UNL     1      24.453   5.671  20.334  0.00  0.00    -0.176 NA
ATOM     32  C   UNL     1      22.303   5.258  20.929  0.00  0.00    +0.124 A 
ATOM     33  C   UNL     1      22.940   4.043  20.858  0.00  0.00    +0.057 A 
ATOM     34  C   UNL     1      24.260   4.359  20.488  0.00  0.00    +0.061 A 
ATOM     35  C   UNL     1      23.060   7.622  20.543  0.00  0.00    +0.173 C 
ATOM     36  C   UNL     1      25.379   3.425  20.270  0.00  0.00    +0.067 C 
ENDBRANCH  31  32
ENDBRANCH  26   9
ENDBRANCH  13  17
BRANCH  13   5
ATOM      5  O   UNL     1      14.012   7.003  21.619  0.00  0.00    -0.385 OA
ATOM     37  H   UNL     1      14.083   6.120  22.019  0.00  0.00    +0.210 HD
ENDBRANCH  13   5
TORSDOF 8
ENDMDL
MODEL 3
REMARK VINA RESULT:      -7.9     27.071     30.316
REMARK  Name = 56774828
REMARK  10 active torsions:
REMARK  status: ('A' for Active; 'I' for Inactive)
REMARK    1  A    between atoms: O_5  and  C_13
REMARK    2  A    between atoms: N_8  and  C_15
REMARK    3  A    between atoms: N_9  and  C_26
REMARK    4  A    between atoms: N_10  and  C_35
REMARK    5  A    between atoms: C_12  and  C_13
REMARK    6  A    between atoms: C_13  and  C_17
REMARK    7  A    between atoms: C_15  and  C_19
REMARK    8  A    between atoms: C_29  and  C_30
REMARK    9  A    between atoms: C_31  and  C_32
REMARK   10  A    between atoms: C_34  and  C_36
REMARK                            x       y       z     vdW  Elec       q    Type
REMARK                         _______ _______ _______ _____ _____    ______ ____
ROOT
ATOM     13  C   UNL     1     -12.387   8.255  19.370  0.00  0.00    +0.167 C 
ENDROOT
BRANCH  13  12
ATOM      4  O   UNL     1     -10.378  10.117  18.318  0.00  0.00    -0.369 OA
ATOM      6  O   UNL     1     -12.981  12.537  18.954  0.00  0.00    -0.273 OA
ATOM      8  N   UNL     1     -12.460  10.599  20.132  0.00  0.00    -0.287 N 
ATOM     12  C   UNL     1     -11.683   9.354  20.170  0.00  0.00    +0.135 C 
ATOM     14  C   UNL     1     -10.275   9.602  19.641  0.00  0.00    +0.185 C 
ATOM     16  C   UNL     1     -12.256  11.559  19.143  0.00  0.00    +0.242 C 
ATOM     18  C   UNL     1     -10.986  11.389  18.318  0.00  0.00    +0.255 C 
BRANCH   8  15
ATOM     15  C   UNL     1     -13.580  10.721  21.056  0.00  0.00    +0.143 C 
BRANCH  15  19
ATOM     19  C   UNL     1     -13.131  10.727  22.489  0.00  0.00    -0.030 A 
ATOM     22  C   UNL     1     -12.019  11.480  22.867  0.00  0.00    +0.006 A 
ATOM     23  C   UNL     1     -13.825   9.982  23.441  0.00  0.00    +0.006 A 
ATOM     27  C   UNL     1     -11.601  11.487  24.197  0.00  0.00    +0.013 A 
ATOM     28  C   UNL     1     -13.407   9.988  24.772  0.00  0.00    +0.013 A 
ATOM     29  C   UNL     1     -12.296  10.741  25.150  0.00  0.00    +0.055 A 
BRANCH  29  30
ATOM      1  F   UNL     1     -11.870  11.992  27.144  0.00  0.00    -0.166 F 
ATOM      2  F   UNL     1     -10.571  10.298  26.727  0.00  0.00    -0.166 F 
ATOM      3  F   UNL     1     -12.616   9.970  27.391  0.00  0.00    -0.166 F 
ATOM     30  C   UNL     1     -11.850  10.751  26.573  0.00  0.00    +0.417 C 
ENDBRANCH  29  30
ENDBRANCH  15  19
ENDBRANCH   8  15
ENDBRANCH  13  12
BRANCH  13  17
ATOM     17  C   UNL     1     -13.031   7.231  20.271  0.00  0.00    -0.017 A 
ATOM     20  C   UNL     1     -14.416   7.068  20.264  0.00  0.00    +0.008 A 
ATOM     21  C   UNL     1     -12.240   6.448  21.112  0.00  0.00    +0.008 A 
ATOM     24  C   UNL     1     -15.011   6.121  21.097  0.00  0.00    +0.023 A 
ATOM     25  C   UNL     1     -12.835   5.501  21.945  0.00  0.00    +0.023 A 
ATOM     26  C   UNL     1     -14.221   5.337  21.938  0.00  0.00    +0.034 A 
BRANCH  26   9
ATOM      7  O   UNL     1     -16.339   5.659  24.036  0.00  0.00    -0.268 OA
ATOM      9  N   UNL     1     -14.816   4.389  22.771  0.00  0.00    -0.280 N 
ATOM     31  C   UNL     1     -15.808   4.594  23.739  0.00  0.00    +0.266 C 
ATOM     38  H   UNL     1     -14.474   3.439  22.650  0.00  0.00    +0.155 HD
BRANCH  31  32
ATOM     10  N   UNL     1     -17.030   2.380  23.910  0.00  0.00    -0.262 N 
ATOM     11  N   UNL     1     -17.307   1.380  24.764  0.00  0.00    -0.176 NA
ATOM     32  C   UNL     1     -16.265   3.371  24.451  0.00  0.00    +0.124 A 
ATOM     33  C   UNL     1     -16.025   2.993  25.749  0.00  0.00    +0.057 A 
ATOM     34  C   UNL     1     -16.689   1.760  25.886  0.00  0.00    +0.061 A 
ATOM     35  C   UNL     1     -17.543   2.319  22.561  0.00  0.00    +0.173 C 
ATOM     36  C   UNL     1     -16.759   0.906  27.084  0.00  0.00    +0.067 C 
ENDBRANCH  31  32
ENDBRANCH  26   9
ENDBRANCH  13  17
BRANCH  13   5
ATOM      5  O   UNL     1     -13.379   8.842  18.534  0.00  0.00    -0.385 OA
ATOM     37  H   UNL     1     -13.197   9.792  18.441  0.00  0.00    +0.210 HD
ENDBRANCH  13   5
TORSDOF 8
ENDMDL
MODEL 4
REMARK VINA RESULT:      -7.8     27.887     30.697
REMARK  Name = 56774828
REMARK  10 active torsions:
REMARK  status: ('A' for Active; 'I' for Inactive)
REMARK    1  A    between atoms: O_5  and  C_13
REMARK    2  A    between atoms: N_8  and  C_15
REMARK    3  A    between atoms: N_9  and  C_26
REMARK    4  A    between atoms: N_10  and  C_35
REMARK    5  A    between atoms: C_12  and  C_13
REMARK    6  A    between atoms: C_13  and  C_17
REMARK    7  A    between atoms: C_15  and  C_19
REMARK    8  A    between atoms: C_29  and  C_30
REMARK    9  A    between atoms: C_31  and  C_32
REMARK   10  A    between atoms: C_34  and  C_36
REMARK                            x       y       z     vdW  Elec       q    Type
REMARK                         _______ _______ _______ _____ _____    ______ ____
ROOT
ATOM     13  C   UNL     1     -13.654   7.436  20.330  0.00  0.00    +0.167 C 
ENDROOT
BRANCH  13  12
ATOM      4  O   UNL     1     -11.582   8.525  18.561  0.00  0.00    -0.369 OA
ATOM      6  O   UNL     1     -13.566  11.525  18.872  0.00  0.00    -0.273 OA
ATOM      8  N   UNL     1     -13.178   9.853  20.444  0.00  0.00    -0.287 N 
ATOM     12  C   UNL     1     -12.634   8.515  20.706  0.00  0.00    +0.135 C 
ATOM     14  C   UNL     1     -11.327   8.325  19.947  0.00  0.00    +0.185 C 
ATOM     16  C   UNL     1     -12.998  10.487  19.216  0.00  0.00    +0.242 C 
ATOM     18  C   UNL     1     -11.951   9.861  18.303  0.00  0.00    +0.255 C 
BRANCH   8  15
ATOM     15  C   UNL     1     -14.071  10.425  21.443  0.00  0.00    +0.143 C 
BRANCH  15  19
ATOM     19  C   UNL     1     -13.407  10.553  22.783  0.00  0.00    -0.030 A 
ATOM     22  C   UNL     1     -13.996   9.981  23.911  0.00  0.00    +0.006 A 
ATOM     23  C   UNL     1     -12.200  11.243  22.901  0.00  0.00    +0.006 A 
ATOM     27  C   UNL     1     -13.379  10.098  25.156  0.00  0.00    +0.013 A 
ATOM     28  C   UNL     1     -11.583  11.361  24.146  0.00  0.00    +0.013 A 
ATOM     29  C   UNL     1     -12.172  10.789  25.274  0.00  0.00    +0.055 A 
BRANCH  29  30
ATOM      1  F   UNL     1     -10.188  10.571  26.592  0.00  0.00    -0.166 F 
ATOM      2  F   UNL     1     -12.085  10.114  27.553  0.00  0.00    -0.166 F 
ATOM      3  F   UNL     1     -11.549  12.177  27.119  0.00  0.00    -0.166 F 
ATOM     30  C   UNL     1     -11.511  10.912  26.605  0.00  0.00    +0.417 C 
ENDBRANCH  29  30
ENDBRANCH  15  19
ENDBRANCH   8  15
ENDBRANCH  13  12
BRANCH  13  17
ATOM     17  C   UNL     1     -14.024   6.578  21.514  0.00  0.00    -0.017 A 
ATOM     20  C   UNL     1     -13.195   5.524  21.899  0.00  0.00    +0.008 A 
ATOM     21  C   UNL     1     -15.196   6.839  22.224  0.00  0.00    +0.008 A 
ATOM     24  C   UNL     1     -13.537   4.731  22.994  0.00  0.00    +0.023 A 
ATOM     25  C   UNL     1     -15.538   6.046  23.319  0.00  0.00    +0.023 A 
ATOM     26  C   UNL     1     -14.710   4.992  23.704  0.00  0.00    +0.034 A 
BRANCH  26   9
ATOM      7  O   UNL     1     -17.268   3.563  24.339  0.00  0.00    -0.268 OA
ATOM      9  N   UNL     1     -15.051   4.199  24.800  0.00  0.00    -0.280 N 
ATOM     31  C   UNL     1     -16.268   3.550  25.049  0.00  0.00    +0.266 C 
ATOM     38  H   UNL     1     -14.317   4.093  25.496  0.00  0.00    +0.155 HD
BRANCH  31  32
ATOM     10  N   UNL     1     -16.667   1.433  26.383  0.00  0.00    -0.262 N 
ATOM     11  N   UNL     1     -16.632   0.940  27.633  0.00  0.00    -0.176 NA
ATOM     32  C   UNL     1     -16.318   2.749  26.300  0.00  0.00    +0.124 A 
ATOM     33  C   UNL     1     -16.036   3.144  27.585  0.00  0.00    +0.057 A 
ATOM     34  C   UNL     1     -16.245   1.990  28.363  0.00  0.00    +0.061 A 
ATOM     35  C   UNL     1     -17.053   0.567  25.294  0.00  0.00    +0.173 C 
ATOM     36  C   UNL     1     -16.085   1.849  29.820  0.00  0.00    +0.067 C 
ENDBRANCH  31  32
ENDBRANCH  26   9
ENDBRANCH  13  17
BRANCH  13   5
ATOM      5  O   UNL     1     -14.824   8.055  19.808  0.00  0.00    -0.385 OA
ATOM     37  H   UNL     1     -15.430   7.369  19.480  0.00  0.00    +0.210 HD
ENDBRANCH  13   5
TORSDOF 8
ENDMDL
MODEL 5
REMARK VINA RESULT:      -7.7      3.146      9.108
REMARK  Name = 56774828
REMARK  10 active torsions:
REMARK  status: ('A' for Active; 'I' for Inactive)
REMARK    1  A    between atoms: O_5  and  C_13
REMARK    2  A    between atoms: N_8  and  C_15
REMARK    3  A    between atoms: N_9  and  C_26
REMARK    4  A    between atoms: N_10  and  C_35
REMARK    5  A    between atoms: C_12  and  C_13
REMARK    6  A    between atoms: C_13  and  C_17
REMARK    7  A    between atoms: C_15  and  C_19
REMARK    8  A    between atoms: C_29  and  C_30
REMARK    9  A    between atoms: C_31  and  C_32
REMARK   10  A    between atoms: C_34  and  C_36
REMARK                            x       y       z     vdW  Elec       q    Type
REMARK                         _______ _______ _______ _____ _____    ______ ____
ROOT
ATOM     13  C   UNL     1      20.458   5.292  20.923  0.00  0.00    +0.167 C 
ENDROOT
BRANCH  13  12
ATOM      4  O   UNL     1      22.881   4.838  22.514  0.00  0.00    -0.369 OA
ATOM      6  O   UNL     1      24.166   7.501  20.443  0.00  0.00    -0.273 OA
ATOM      8  N   UNL     1      22.007   7.183  21.252  0.00  0.00    -0.287 N 
ATOM     12  C   UNL     1      21.067   6.277  21.925  0.00  0.00    +0.135 C 
ATOM     14  C   UNL     1      21.771   5.544  23.059  0.00  0.00    +0.185 C 
ATOM     16  C   UNL     1      23.361   6.876  21.136  0.00  0.00    +0.242 C 
ATOM     18  C   UNL     1      23.851   5.730  22.014  0.00  0.00    +0.255 C 
BRANCH   8  15
ATOM     15  C   UNL     1      21.449   8.329  20.546  0.00  0.00    +0.143 C 
BRANCH  15  19
ATOM     19  C   UNL     1      20.790   9.300  21.482  0.00  0.00    -0.030 A 
ATOM     22  C   UNL     1      21.481   9.768  22.600  0.00  0.00    +0.006 A 
ATOM     23  C   UNL     1      19.489   9.735  21.234  0.00  0.00    +0.006 A 
ATOM     27  C   UNL     1      20.870  10.670  23.470  0.00  0.00    +0.013 A 
ATOM     28  C   UNL     1      18.877  10.638  22.103  0.00  0.00    +0.013 A 
ATOM     29  C   UNL     1      19.568  11.106  23.221  0.00  0.00    +0.055 A 
BRANCH  29  30
ATOM      1  F   UNL     1      17.560  12.151  23.996  0.00  0.00    -0.166 F 
ATOM      2  F   UNL     1      19.375  13.349  23.988  0.00  0.00    -0.166 F 
ATOM      3  F   UNL     1      19.107  11.780  25.470  0.00  0.00    -0.166 F 
ATOM     30  C   UNL     1      18.915  12.074  24.150  0.00  0.00    +0.417 C 
ENDBRANCH  29  30
ENDBRANCH  15  19
ENDBRANCH   8  15
ENDBRANCH  13  12
BRANCH  13  17
ATOM     17  C   UNL     1      19.078   5.717  20.488  0.00  0.00    -0.017 A 
ATOM     20  C   UNL     1      18.609   5.370  19.221  0.00  0.00    +0.008 A 
ATOM     21  C   UNL     1      18.272   6.457  21.352  0.00  0.00    +0.008 A 
ATOM     24  C   UNL     1      17.332   5.763  18.818  0.00  0.00    +0.023 A 
ATOM     25  C   UNL     1      16.995   6.850  20.950  0.00  0.00    +0.023 A 
ATOM     26  C   UNL     1      16.525   6.503  19.683  0.00  0.00    +0.034 A 
BRANCH  26   9
ATOM      7  O   UNL     1      15.358   9.244  19.340  0.00  0.00    -0.268 OA
ATOM      9  N   UNL     1      15.249   6.895  19.280  0.00  0.00    -0.280 N 
ATOM     31  C   UNL     1      14.752   8.198  19.135  0.00  0.00    +0.266 C 
ATOM     38  H   UNL     1      14.611   6.130  19.074  0.00  0.00    +0.155 HD
BRANCH  31  32
ATOM     10  N   UNL     1      12.238   8.240  19.448  0.00  0.00    -0.262 N 
ATOM     11  N   UNL     1      11.082   8.351  18.771  0.00  0.00    -0.176 NA
ATOM     32  C   UNL     1      13.347   8.294  18.657  0.00  0.00    +0.124 A 
ATOM     33  C   UNL     1      12.886   8.451  17.373  0.00  0.00    +0.057 A 
ATOM     34  C   UNL     1      11.485   8.480  17.504  0.00  0.00    +0.061 A 
ATOM     35  C   UNL     1      12.202   8.080  20.883  0.00  0.00    +0.173 C 
ATOM     36  C   UNL     1      10.486   8.631  16.431  0.00  0.00    +0.067 C 
ENDBRANCH  31  32
ENDBRANCH  26   9
ENDBRANCH  13  17
BRANCH  13   5
ATOM      5  O   UNL     1      21.306   5.193  19.785  0.00  0.00    -0.385 OA
ATOM     37  H   UNL     1      22.222   5.059  20.078  0.00  0.00    +0.210 HD
ENDBRANCH  13   5
TORSDOF 8
ENDMDL
MODEL 6
REMARK VINA RESULT:      -7.4     27.505     32.206
REMARK  Name = 56774828
REMARK  10 active torsions:
REMARK  status: ('A' for Active; 'I' for Inactive)
REMARK    1  A    between atoms: O_5  and  C_13
REMARK    2  A    between atoms: N_8  and  C_15
REMARK    3  A    between atoms: N_9  and  C_26
REMARK    4  A    between atoms: N_10  and  C_35
REMARK    5  A    between atoms: C_12  and  C_13
REMARK    6  A    between atoms: C_13  and  C_17
REMARK    7  A    between atoms: C_15  and  C_19
REMARK    8  A    between atoms: C_29  and  C_30
REMARK    9  A    between atoms: C_31  and  C_32
REMARK   10  A    between atoms: C_34  and  C_36
REMARK                            x       y       z     vdW  Elec       q    Type
REMARK                         _______ _______ _______ _____ _____    ______ ____
ROOT
ATOM     13  C   UNL     1     -16.748   3.277  24.580  0.00  0.00    +0.167 C 
ENDROOT
BRANCH  13  12
ATOM      4  O   UNL     1     -18.613   5.057  25.982  0.00  0.00    -0.369 OA
ATOM      6  O   UNL     1     -19.174   2.107  27.987  0.00  0.00    -0.273 OA
ATOM      8  N   UNL     1     -17.215   2.833  26.960  0.00  0.00    -0.287 N 
ATOM     12  C   UNL     1     -16.596   3.775  26.020  0.00  0.00    +0.135 C 
ATOM     14  C   UNL     1     -17.208   5.159  26.191  0.00  0.00    +0.185 C 
ATOM     16  C   UNL     1     -18.550   2.952  27.342  0.00  0.00    +0.242 C 
ATOM     18  C   UNL     1     -19.217   4.276  26.989  0.00  0.00    +0.255 C 
BRANCH   8  15
ATOM     15  C   UNL     1     -16.443   1.658  27.343  0.00  0.00    +0.143 C 
BRANCH  15  19
ATOM     19  C   UNL     1     -15.879   1.782  28.728  0.00  0.00    -0.030 A 
ATOM     22  C   UNL     1     -15.391   3.010  29.175  0.00  0.00    +0.006 A 
ATOM     23  C   UNL     1     -15.843   0.670  29.569  0.00  0.00    +0.006 A 
ATOM     27  C   UNL     1     -14.867   3.126  30.462  0.00  0.00    +0.013 A 
ATOM     28  C   UNL     1     -15.319   0.785  30.857  0.00  0.00    +0.013 A 
ATOM     29  C   UNL     1     -14.832   2.013  31.303  0.00  0.00    +0.055 A 
BRANCH  29  30
ATOM      1  F   UNL     1     -14.584   1.085  33.494  0.00  0.00    -0.166 F 
ATOM      2  F   UNL     1     -14.728   3.249  33.333  0.00  0.00    -0.166 F 
ATOM      3  F   UNL     1     -12.912   2.225  32.714  0.00  0.00    -0.166 F 
ATOM     30  C   UNL     1     -14.274   2.138  32.681  0.00  0.00    +0.417 C 
ENDBRANCH  29  30
ENDBRANCH  15  19
ENDBRANCH   8  15
ENDBRANCH  13  12
BRANCH  13  17
ATOM     17  C   UNL     1     -15.953   4.115  23.611  0.00  0.00    -0.017 A 
ATOM     20  C   UNL     1     -14.589   4.319  23.821  0.00  0.00    +0.008 A 
ATOM     21  C   UNL     1     -16.581   4.687  22.505  0.00  0.00    +0.008 A 
ATOM     24  C   UNL     1     -13.853   5.094  22.924  0.00  0.00    +0.023 A 
ATOM     25  C   UNL     1     -15.846   5.461  21.608  0.00  0.00    +0.023 A 
ATOM     26  C   UNL     1     -14.481   5.665  21.817  0.00  0.00    +0.034 A 
BRANCH  26   9
ATOM      7  O   UNL     1     -13.635   8.538  21.977  0.00  0.00    -0.268 OA
ATOM      9  N   UNL     1     -13.745   6.439  20.920  0.00  0.00    -0.280 N 
ATOM     31  C   UNL     1     -13.374   7.785  21.045  0.00  0.00    +0.266 C 
ATOM     38  H   UNL     1     -13.452   5.953  20.076  0.00  0.00    +0.155 HD
BRANCH  31  32
ATOM     10  N   UNL     1     -13.021   8.608  18.674  0.00  0.00    -0.262 N 
ATOM     11  N   UNL     1     -12.080   9.089  17.843  0.00  0.00    -0.176 NA
ATOM     32  C   UNL     1     -12.559   8.326  19.926  0.00  0.00    +0.124 A 
ATOM     33  C   UNL     1     -11.223   8.646  19.913  0.00  0.00    +0.057 A 
ATOM     34  C   UNL     1     -10.984   9.110  18.606  0.00  0.00    +0.061 A 
ATOM     35  C   UNL     1     -14.371   8.439  18.189  0.00  0.00    +0.173 C 
ATOM     36  C   UNL     1      -9.710   9.588  18.042  0.00  0.00    +0.067 C 
ENDBRANCH  31  32
ENDBRANCH  26   9
ENDBRANCH  13  17
BRANCH  13   5
ATOM      5  O   UNL     1     -16.318   1.923  24.501  0.00  0.00    -0.385 OA
ATOM     37  H   UNL     1     -16.715   1.418  25.230  0.00  0.00    +0.210 HD
ENDBRANCH  13   5
TORSDOF 8
ENDMDL
MODEL 7
REMARK VINA RESULT:      -7.4     15.822     17.512
REMARK  Name = 56774828
REMARK  10 active torsions:
REMARK  status: ('A' for Active; 'I' for Inactive)
REMARK    1  A    between atoms: O_5  and  C_13
REMARK    2  A    between atoms: N_8  and  C_15
REMARK    3  A    between atoms: N_9  and  C_26
REMARK    4  A    between atoms: N_10  and  C_35
REMARK    5  A    between atoms: C_12  and  C_13
REMARK    6  A    between atoms: C_13  and  C_17
REMARK    7  A    between atoms: C_15  and  C_19
REMARK    8  A    between atoms: C_29  and  C_30
REMARK    9  A    between atoms: C_31  and  C_32
REMARK   10  A    between atoms: C_34  and  C_36
REMARK                            x       y       z     vdW  Elec       q    Type
REMARK                         _______ _______ _______ _____ _____    ______ ____
ROOT
ATOM     13  C   UNL     1      11.650   8.275   7.012  0.00  0.00    +0.167 C 
ENDROOT
BRANCH  13  12
ATOM      4  O   UNL     1       9.097   7.001   7.697  0.00  0.00    -0.369 OA
ATOM      6  O   UNL     1       8.063   8.484   4.572  0.00  0.00    -0.273 OA
ATOM      8  N   UNL     1      10.141   7.625   5.173  0.00  0.00    -0.287 N 
ATOM     12  C   UNL     1      10.997   7.117   6.252  0.00  0.00    +0.135 C 
ATOM     14  C   UNL     1      10.183   6.234   7.189  0.00  0.00    +0.185 C 
ATOM     16  C   UNL     1       8.791   7.901   5.378  0.00  0.00    +0.242 C 
ATOM     18  C   UNL     1       8.198   7.347   6.668  0.00  0.00    +0.255 C 
BRANCH   8  15
ATOM     15  C   UNL     1      10.789   8.008   3.924  0.00  0.00    +0.143 C 
BRANCH  15  19
ATOM     19  C   UNL     1      11.520   6.858   3.294  0.00  0.00    -0.030 A 
ATOM     22  C   UNL     1      10.842   5.672   3.011  0.00  0.00    +0.006 A 
ATOM     23  C   UNL     1      12.876   6.975   2.991  0.00  0.00    +0.006 A 
ATOM     27  C   UNL     1      11.520   4.604   2.425  0.00  0.00    +0.013 A 
ATOM     28  C   UNL     1      13.555   5.907   2.405  0.00  0.00    +0.013 A 
ATOM     29  C   UNL     1      12.877   4.721   2.122  0.00  0.00    +0.055 A 
BRANCH  29  30
ATOM      1  F   UNL     1      13.961   3.809   0.195  0.00  0.00    -0.166 F 
ATOM      2  F   UNL     1      12.858   2.434   1.469  0.00  0.00    -0.166 F 
ATOM      3  F   UNL     1      14.763   3.249   2.132  0.00  0.00    -0.166 F 
ATOM     30  C   UNL     1      13.601   3.579   1.493  0.00  0.00    +0.417 C 
ENDBRANCH  29  30
ENDBRANCH  15  19
ENDBRANCH   8  15
ENDBRANCH  13  12
BRANCH  13  17
ATOM     17  C   UNL     1      13.120   8.391   6.700  0.00  0.00    -0.017 A 
ATOM     20  C   UNL     1      13.901   7.242   6.580  0.00  0.00    +0.008 A 
ATOM     21  C   UNL     1      13.699   9.649   6.530  0.00  0.00    +0.008 A 
ATOM     24  C   UNL     1      15.262   7.350   6.291  0.00  0.00    +0.023 A 
ATOM     25  C   UNL     1      15.059   9.757   6.240  0.00  0.00    +0.023 A 
ATOM     26  C   UNL     1      15.841   8.608   6.121  0.00  0.00    +0.034 A 
BRANCH  26   9
ATOM      7  O   UNL     1      17.319   8.117   3.559  0.00  0.00    -0.268 OA
ATOM      9  N   UNL     1      17.201   8.715   5.830  0.00  0.00    -0.280 N 
ATOM     31  C   UNL     1      17.843   8.474   4.608  0.00  0.00    +0.266 C 
ATOM     38  H   UNL     1      17.784   9.002   6.612  0.00  0.00    +0.155 HD
BRANCH  31  32
ATOM     10  N   UNL     1      19.927   9.876   4.273  0.00  0.00    -0.262 N 
ATOM     11  N   UNL     1      21.268   9.826   4.350  0.00  0.00    -0.176 NA
ATOM     32  C   UNL     1      19.312   8.705   4.604  0.00  0.00    +0.124 A 
ATOM     33  C   UNL     1      20.320   7.828   4.920  0.00  0.00    +0.057 A 
ATOM     34  C   UNL     1      21.502   8.572   4.747  0.00  0.00    +0.061 A 
ATOM     35  C   UNL     1      19.290  11.106   3.864  0.00  0.00    +0.173 C 
ATOM     36  C   UNL     1      22.888   8.116   4.951  0.00  0.00    +0.067 C 
ENDBRANCH  31  32
ENDBRANCH  26   9
ENDBRANCH  13  17
BRANCH  13   5
ATOM      5  O   UNL     1      10.994   9.491   6.672  0.00  0.00    -0.385 OA
ATOM     37  H   UNL     1      11.535  10.241   6.970  0.00  0.00    +0.210 HD
ENDBRANCH  13   5
TORSDOF 8
ENDMDL
MODEL 8
REMARK VINA RESULT:      -7.3      5.790     11.542
REMARK  Name = 56774828
REMARK  10 active torsions:
REMARK  status: ('A' for Active; 'I' for Inactive)
REMARK    1  A    between atoms: O_5  and  C_13
REMARK    2  A    between atoms: N_8  and  C_15
REMARK    3  A    between atoms: N_9  and  C_26
REMARK    4  A    between atoms: N_10  and  C_35
REMARK    5  A    between atoms: C_12  and  C_13
REMARK    6  A    between atoms: C_13  and  C_17
REMARK    7  A    between atoms: C_15  and  C_19
REMARK    8  A    between atoms: C_29  and  C_30
REMARK    9  A    between atoms: C_31  and  C_32
REMARK   10  A    between atoms: C_34  and  C_36
REMARK                            x       y       z     vdW  Elec       q    Type
REMARK                         _______ _______ _______ _____ _____    ______ ____
ROOT
ATOM     13  C   UNL     1      19.904   8.741  22.713  0.00  0.00    +0.167 C 
ENDROOT
BRANCH  13  12
ATOM      4  O   UNL     1      22.024  10.194  21.297  0.00  0.00    -0.369 OA
ATOM      6  O   UNL     1      24.110   8.619  23.787  0.00  0.00    -0.273 OA
ATOM      8  N   UNL     1      22.187   7.808  22.758  0.00  0.00    -0.287 N 
ATOM     12  C   UNL     1      21.034   8.104  21.899  0.00  0.00    +0.135 C 
ATOM     14  C   UNL     1      21.460   9.007  20.749  0.00  0.00    +0.185 C 
ATOM     16  C   UNL     1      23.210   8.734  22.954  0.00  0.00    +0.242 C 
ATOM     18  C   UNL     1      23.220   9.912  21.987  0.00  0.00    +0.255 C 
BRANCH   8  15
ATOM     15  C   UNL     1      22.141   6.585  23.549  0.00  0.00    +0.143 C 
BRANCH  15  19
ATOM     19  C   UNL     1      22.757   5.423  22.825  0.00  0.00    -0.030 A 
ATOM     22  C   UNL     1      21.943   4.501  22.168  0.00  0.00    +0.006 A 
ATOM     23  C   UNL     1      24.143   5.266  22.809  0.00  0.00    +0.006 A 
ATOM     27  C   UNL     1      22.515   3.422  21.494  0.00  0.00    +0.013 A 
ATOM     28  C   UNL     1      24.715   4.187  22.135  0.00  0.00    +0.013 A 
ATOM     29  C   UNL     1      23.901   3.265  21.478  0.00  0.00    +0.055 A 
BRANCH  29  30
ATOM      1  F   UNL     1      23.773   0.966  20.828  0.00  0.00    -0.166 F 
ATOM      2  F   UNL     1      25.746   1.784  21.239  0.00  0.00    -0.166 F 
ATOM      3  F   UNL     1      24.691   2.337  19.419  0.00  0.00    -0.166 F 
ATOM     30  C   UNL     1      24.513   2.113  20.755  0.00  0.00    +0.417 C 
ENDBRANCH  29  30
ENDBRANCH  15  19
ENDBRANCH   8  15
ENDBRANCH  13  12
BRANCH  13  17
ATOM     17  C   UNL     1      18.603   8.752  21.951  0.00  0.00    -0.017 A 
ATOM     20  C   UNL     1      18.102   7.568  21.408  0.00  0.00    +0.008 A 
ATOM     21  C   UNL     1      17.900   9.946  21.790  0.00  0.00    +0.008 A 
ATOM     24  C   UNL     1      16.898   7.579  20.704  0.00  0.00    +0.023 A 
ATOM     25  C   UNL     1      16.696   9.956  21.086  0.00  0.00    +0.023 A 
ATOM     26  C   UNL     1      16.195   8.773  20.542  0.00  0.00    +0.034 A 
BRANCH  26   9
ATOM      7  O   UNL     1      14.076   6.665  20.299  0.00  0.00    -0.268 OA
ATOM      9  N   UNL     1      14.990   8.783  19.839  0.00  0.00    -0.280 N 
ATOM     31  C   UNL     1      14.030   7.765  19.760  0.00  0.00    +0.266 C 
ATOM     38  H   UNL     1      14.803   9.640  19.324  0.00  0.00    +0.155 HD
BRANCH  31  32
ATOM     10  N   UNL     1      11.576   8.316  19.443  0.00  0.00    -0.262 N 
ATOM     11  N   UNL     1      10.659   8.588  18.499  0.00  0.00    -0.176 NA
ATOM     32  C   UNL     1      12.826   8.088  18.948  0.00  0.00    +0.124 A 
ATOM     33  C   UNL     1      12.720   8.220  17.585  0.00  0.00    +0.057 A 
ATOM     34  C   UNL     1      11.365   8.529  17.366  0.00  0.00    +0.061 A 
ATOM     35  C   UNL     1      11.174   8.289  20.830  0.00  0.00    +0.173 C 
ATOM     36  C   UNL     1      10.697   8.776  16.076  0.00  0.00    +0.067 C 
ENDBRANCH  31  32
ENDBRANCH  26   9
ENDBRANCH  13  17
BRANCH  13   5
ATOM      5  O   UNL     1      19.737   8.021  23.929  0.00  0.00    -0.385 OA
ATOM     37  H   UNL     1      18.896   8.280  24.341  0.00  0.00    +0.210 HD
ENDBRANCH  13   5
TORSDOF 8
ENDMDL
MODEL 9
REMARK VINA RESULT:      -7.3     28.230     31.219
REMARK  Name = 56774828
REMARK  10 active torsions:
REMARK  status: ('A' for Active; 'I' for Inactive)
REMARK    1  A    between atoms: O_5  and  C_13
REMARK    2  A    between atoms: N_8  and  C_15
REMARK    3  A    between atoms: N_9  and  C_26
REMARK    4  A    between atoms: N_10  and  C_35
REMARK    5  A    between atoms: C_12  and  C_13
REMARK    6  A    between atoms: C_13  and  C_17
REMARK    7  A    between atoms: C_15  and  C_19
REMARK    8  A    between atoms: C_29  and  C_30
REMARK    9  A    between atoms: C_31  and  C_32
REMARK   10  A    between atoms: C_34  and  C_36
REMARK                            x       y       z     vdW  Elec       q    Type
REMARK                         _______ _______ _______ _____ _____    ______ ____
ROOT
ATOM     13  C   UNL     1      -9.554 -11.461  19.713  0.00  0.00    +0.167 C 
ENDROOT
BRANCH  13  12
ATOM      4  O   UNL     1     -11.595 -13.289  20.761  0.00  0.00    -0.369 OA
ATOM      6  O   UNL     1     -13.498 -10.235  21.057  0.00  0.00    -0.273 OA
ATOM      8  N   UNL     1     -11.925 -10.834  19.449  0.00  0.00    -0.287 N 
ATOM     12  C   UNL     1     -10.889 -11.790  19.039  0.00  0.00    +0.135 C 
ATOM     14  C   UNL     1     -11.333 -13.211  19.364  0.00  0.00    +0.185 C 
ATOM     16  C   UNL     1     -12.734 -11.064  20.560  0.00  0.00    +0.242 C 
ATOM     18  C   UNL     1     -12.698 -12.485  21.113  0.00  0.00    +0.255 C 
BRANCH   8  15
ATOM     15  C   UNL     1     -11.961  -9.547  18.768  0.00  0.00    +0.143 C 
BRANCH  15  19
ATOM     19  C   UNL     1     -11.311  -9.607  17.416  0.00  0.00    -0.030 A 
ATOM     22  C   UNL     1     -11.743 -10.543  16.476  0.00  0.00    +0.006 A 
ATOM     23  C   UNL     1     -10.275  -8.728  17.100  0.00  0.00    +0.006 A 
ATOM     27  C   UNL     1     -11.140 -10.599  15.220  0.00  0.00    +0.013 A 
ATOM     28  C   UNL     1      -9.672  -8.784  15.843  0.00  0.00    +0.013 A 
ATOM     29  C   UNL     1     -10.104  -9.720  14.903  0.00  0.00    +0.055 A 
BRANCH  29  30
ATOM      1  F   UNL     1      -9.248 -11.051  13.110  0.00  0.00    -0.166 F 
ATOM      2  F   UNL     1      -8.238  -9.172  13.534  0.00  0.00    -0.166 F 
ATOM      3  F   UNL     1     -10.191  -9.171  12.577  0.00  0.00    -0.166 F 
ATOM     30  C   UNL     1      -9.462  -9.778  13.559  0.00  0.00    +0.417 C 
ENDBRANCH  29  30
ENDBRANCH  15  19
ENDBRANCH   8  15
ENDBRANCH  13  12
BRANCH  13  17
ATOM     17  C   UNL     1      -8.457 -11.234  18.703  0.00  0.00    -0.017 A 
ATOM     20  C   UNL     1      -7.437 -10.321  18.974  0.00  0.00    +0.008 A 
ATOM     21  C   UNL     1      -8.464 -11.935  17.498  0.00  0.00    +0.008 A 
ATOM     24  C   UNL     1      -6.423 -10.112  18.040  0.00  0.00    +0.023 A 
ATOM     25  C   UNL     1      -7.450 -11.726  16.564  0.00  0.00    +0.023 A 
ATOM     26  C   UNL     1      -6.429 -10.814  16.834  0.00  0.00    +0.034 A 
BRANCH  26   9
ATOM      7  O   UNL     1      -4.175 -12.602  15.990  0.00  0.00    -0.268 OA
ATOM      9  N   UNL     1      -5.414 -10.605  15.901  0.00  0.00    -0.280 N 
ATOM     31  C   UNL     1      -4.379 -11.479  15.541  0.00  0.00    +0.266 C 
ATOM     38  H   UNL     1      -5.441  -9.701  15.435  0.00  0.00    +0.155 HD
BRANCH  31  32
ATOM     10  N   UNL     1      -2.159 -10.620  14.674  0.00  0.00    -0.262 N 
ATOM     11  N   UNL     1      -1.544 -10.199  13.555  0.00  0.00    -0.176 NA
ATOM     32  C   UNL     1      -3.461 -10.979  14.485  0.00  0.00    +0.124 A 
ATOM     33  C   UNL     1      -3.715 -10.779  13.150  0.00  0.00    +0.057 A 
ATOM     34  C   UNL     1      -2.499 -10.300  12.628  0.00  0.00    +0.061 A 
ATOM     35  C   UNL     1      -1.422 -10.650  15.916  0.00  0.00    +0.173 C 
ATOM     36  C   UNL     1      -2.208  -9.921  11.234  0.00  0.00    +0.067 C 
ENDBRANCH  31  32
ENDBRANCH  26   9
ENDBRANCH  13  17
BRANCH  13   5
ATOM      5  O   UNL     1      -9.707 -10.297  20.518  0.00  0.00    -0.385 OA
ATOM     37  H   UNL     1      -9.128 -10.365  21.294  0.00  0.00    +0.210 HD
ENDBRANCH  13   5
TORSDOF 8
ENDMDL
MODEL 10
REMARK VINA RESULT:      -7.2     28.281     31.364
REMARK  Name = 56774828
REMARK  10 active torsions:
REMARK  status: ('A' for Active; 'I' for Inactive)
REMARK    1  A    between atoms: O_5  and  C_13
REMARK    2  A    between atoms: N_8  and  C_15
REMARK    3  A    between atoms: N_9  and  C_26
REMARK    4  A    between atoms: N_10  and  C_35
REMARK    5  A    between atoms: C_12  and  C_13
REMARK    6  A    between atoms: C_13  and  C_17
REMARK    7  A    between atoms: C_15  and  C_19
REMARK    8  A    between atoms: C_29  and  C_30
REMARK    9  A    between atoms: C_31  and  C_32
REMARK   10  A    between atoms: C_34  and  C_36
REMARK                            x       y       z     vdW  Elec       q    Type
REMARK                         _______ _______ _______ _____ _____    ______ ____
ROOT
ATOM     13  C   UNL     1     -11.072 -10.282  17.967  0.00  0.00    +0.167 C 
ENDROOT
BRANCH  13  12
ATOM      4  O   UNL     1     -12.518 -10.043  20.509  0.00  0.00    -0.369 OA
ATOM      6  O   UNL     1     -12.823 -13.620  20.124  0.00  0.00    -0.273 OA
ATOM      8  N   UNL     1     -11.074 -12.220  19.492  0.00  0.00    -0.287 N 
ATOM     12  C   UNL     1     -10.607 -10.839  19.315  0.00  0.00    +0.135 C 
ATOM     14  C   UNL     1     -11.097  -9.971  20.467  0.00  0.00    +0.185 C 
ATOM     16  C   UNL     1     -12.297 -12.506  20.097  0.00  0.00    +0.242 C 
ATOM     18  C   UNL     1     -12.949 -11.344  20.838  0.00  0.00    +0.255 C 
BRANCH   8  15
ATOM     15  C   UNL     1     -10.305 -13.278  18.852  0.00  0.00    +0.143 C 
BRANCH  15  19
ATOM     19  C   UNL     1      -8.850 -12.926  18.736  0.00  0.00    -0.030 A 
ATOM     22  C   UNL     1      -8.153 -13.221  17.565  0.00  0.00    +0.006 A 
ATOM     23  C   UNL     1      -8.197 -12.302  19.799  0.00  0.00    +0.006 A 
ATOM     27  C   UNL     1      -6.802 -12.893  17.456  0.00  0.00    +0.013 A 
ATOM     28  C   UNL     1      -6.846 -11.974  19.691  0.00  0.00    +0.013 A 
ATOM     29  C   UNL     1      -6.148 -12.269  18.520  0.00  0.00    +0.055 A 
BRANCH  29  30
ATOM      1  F   UNL     1      -4.102 -12.435  17.291  0.00  0.00    -0.166 F 
ATOM      2  F   UNL     1      -3.966 -12.364  19.460  0.00  0.00    -0.166 F 
ATOM      3  F   UNL     1      -4.473 -10.571  18.338  0.00  0.00    -0.166 F 
ATOM     30  C   UNL     1      -4.704 -11.916  18.402  0.00  0.00    +0.417 C 
ENDBRANCH  29  30
ENDBRANCH  15  19
ENDBRANCH   8  15
ENDBRANCH  13  12
BRANCH  13  17
ATOM     17  C   UNL     1      -9.933 -10.164  16.986  0.00  0.00    -0.017 A 
ATOM     20  C   UNL     1     -10.060 -10.693  15.702  0.00  0.00    +0.008 A 
ATOM     21  C   UNL     1      -8.751  -9.527  17.364  0.00  0.00    +0.008 A 
ATOM     24  C   UNL     1      -9.006 -10.584  14.795  0.00  0.00    +0.023 A 
ATOM     25  C   UNL     1      -7.697  -9.418  16.457  0.00  0.00    +0.023 A 
ATOM     26  C   UNL     1      -7.824  -9.946  15.173  0.00  0.00    +0.034 A 
BRANCH  26   9
ATOM      7  O   UNL     1      -5.805 -11.981  14.292  0.00  0.00    -0.268 OA
ATOM      9  N   UNL     1      -6.771  -9.836  14.265  0.00  0.00    -0.280 N 
ATOM     31  C   UNL     1      -5.851 -10.825  13.887  0.00  0.00    +0.266 C 
ATOM     38  H   UNL     1      -6.669  -8.919  13.837  0.00  0.00    +0.155 HD
BRANCH  31  32
ATOM     10  N   UNL     1      -3.499 -10.445  13.025  0.00  0.00    -0.262 N 
ATOM     11  N   UNL     1      -2.815 -10.013  11.951  0.00  0.00    -0.176 NA
ATOM     32  C   UNL     1      -4.853 -10.408  12.867  0.00  0.00    +0.124 A 
ATOM     33  C   UNL     1      -5.070  -9.918  11.603  0.00  0.00    +0.057 A 
ATOM     34  C   UNL     1      -3.781  -9.694  11.085  0.00  0.00    +0.061 A 
ATOM     35  C   UNL     1      -2.773 -10.886  14.193  0.00  0.00    +0.173 C 
ATOM     36  C   UNL     1      -3.426  -9.169   9.755  0.00  0.00    +0.067 C 
ENDBRANCH  31  32
ENDBRANCH  26   9
ENDBRANCH  13  17
BRANCH  13   5
ATOM      5  O   UNL     1     -12.077 -11.133  17.427  0.00  0.00    -0.385 OA
ATOM     37  H   UNL     1     -11.657 -11.916  17.034  0.00  0.00    +0.210 HD
ENDBRANCH  13   5
TORSDOF 8
ENDMDL
