MODEL 1
REMARK VINA RESULT:      -6.7      0.000      0.000
REMARK  Name = 28962858
REMARK  11 active torsions:
REMARK  status: ('A' for Active; 'I' for Inactive)
REMARK    1  A    between atoms: O_1  and  C_10
REMARK    2  A    between atoms: O_4  and  C_26
REMARK    3  A    between atoms: O_4  and  C_27
REMARK    4  A    between atoms: N_5  and  C_14
REMARK    5  A    between atoms: N_6  and  C_22
REMARK    6  A    between atoms: C_7  and  C_17
REMARK    7  A    between atoms: C_9  and  C_19
REMARK    8  A    between atoms: C_12  and  C_18
REMARK    9  A    between atoms: C_18  and  C_20
REMARK   10  A    between atoms: C_18  and  C_21
REMARK   11  A    between atoms: C_25  and  C_26
REMARK                            x       y       z     vdW  Elec       q    Type
REMARK                         _______ _______ _______ _____ _____    ______ ____
ROOT
ATOM      7  C   UNL     1      11.800   8.308  21.324  0.00  0.00    -0.027 C 
ATOM      8  C   UNL     1      13.003   9.279  21.571  0.00  0.00    +0.028 C 
ATOM      9  C   UNL     1      12.494  10.737  21.857  0.00  0.00    +0.012 C 
ATOM     10  C   UNL     1      14.070   9.152  20.446  0.00  0.00    +0.122 C 
ATOM     11  C   UNL     1      12.328   6.863  21.157  0.00  0.00    +0.007 C 
ATOM     12  C   UNL     1      14.518   7.691  20.213  0.00  0.00    +0.029 C 
ATOM     13  C   UNL     1      10.871   8.330  22.560  0.00  0.00    +0.009 C 
ATOM     14  C   UNL     1      11.502  10.736  23.055  0.00  0.00    +0.076 C 
ATOM     15  C   UNL     1      13.345   6.728  20.031  0.00  0.00    +0.007 C 
ATOM     16  C   UNL     1      10.367   9.724  22.903  0.00  0.00    +0.023 C 
ATOM     17  C   UNL     1      10.981   8.686  20.063  0.00  0.00    +0.011 C 
ATOM     19  C   UNL     1      13.625  11.740  22.138  0.00  0.00    +0.010 C 
ENDROOT
BRANCH  14   5
ATOM      3  O   UNL     1      10.756  11.915  25.589  0.00  0.00    -0.273 OA
ATOM      5  N   UNL     1      10.925  12.045  23.273  0.00  0.00    -0.310 N 
ATOM     25  C   UNL     1      10.600  12.521  24.532  0.00  0.00    +0.239 C 
ATOM     28  H   UNL     1      10.693  12.607  22.459  0.00  0.00    +0.149 HD
BRANCH  25  26
ATOM     26  C   UNL     1      10.015  13.915  24.468  0.00  0.00    +0.255 C 
BRANCH  26   4
ATOM      4  O   UNL     1       9.490  14.177  23.183  0.00  0.00    -0.374 OA
ATOM     27  C   UNL     1       8.679  15.349  23.169  0.00  0.00    +0.194 C 
ENDBRANCH  26   4
ENDBRANCH  25  26
ENDBRANCH  14   5
BRANCH  10   1
ATOM      1  O   UNL     1      15.239   9.884  20.813  0.00  0.00    -0.391 OA
ATOM     29  H   UNL     1      15.397  10.562  20.135  0.00  0.00    +0.210 HD
ENDBRANCH  10   1
BRANCH  12  18
ATOM     18  C   UNL     1      15.470   7.570  19.017  0.00  0.00    +0.077 C 
ATOM     21  C   UNL     1      14.693   7.173  17.766  0.00  0.00    +0.017 C 
BRANCH  18  20
ATOM      2  O   UNL     1      16.696   5.503  18.721  0.00  0.00    -0.276 OA
ATOM      6  N   UNL     1      17.401   6.985  20.359  0.00  0.00    -0.312 N 
ATOM     20  C   UNL     1      16.573   6.565  19.329  0.00  0.00    +0.216 C 
ATOM     30  H   UNL     1      17.230   7.880  20.813  0.00  0.00    +0.149 HD
BRANCH   6  22
ATOM     22  C   UNL     1      18.518   6.202  20.835  0.00  0.00    +0.073 C 
ATOM     23  C   UNL     1      19.348   6.662  21.997  0.00  0.00    +0.024 C 
ATOM     24  C   UNL     1      19.932   6.652  20.615  0.00  0.00    +0.024 C 
ENDBRANCH   6  22
ENDBRANCH  18  20
ENDBRANCH  12  18
TORSDOF 7
ENDMDL
MODEL 2
REMARK VINA RESULT:      -6.1     27.103     29.142
REMARK  Name = 28962858
REMARK  11 active torsions:
REMARK  status: ('A' for Active; 'I' for Inactive)
REMARK    1  A    between atoms: O_1  and  C_10
REMARK    2  A    between atoms: O_4  and  C_26
REMARK    3  A    between atoms: O_4  and  C_27
REMARK    4  A    between atoms: N_5  and  C_14
REMARK    5  A    between atoms: N_6  and  C_22
REMARK    6  A    between atoms: C_7  and  C_17
REMARK    7  A    between atoms: C_9  and  C_19
REMARK    8  A    between atoms: C_12  and  C_18
REMARK    9  A    between atoms: C_18  and  C_20
REMARK   10  A    between atoms: C_18  and  C_21
REMARK   11  A    between atoms: C_25  and  C_26
REMARK                            x       y       z     vdW  Elec       q    Type
REMARK                         _______ _______ _______ _____ _____    ______ ____
ROOT
ATOM      7  C   UNL     1      -3.689 -10.549  10.424  0.00  0.00    -0.027 C 
ATOM      8  C   UNL     1      -4.989 -10.225  11.235  0.00  0.00    +0.028 C 
ATOM      9  C   UNL     1      -5.818  -9.091  10.531  0.00  0.00    +0.012 C 
ATOM     10  C   UNL     1      -4.671  -9.986  12.739  0.00  0.00    +0.122 C 
ATOM     11  C   UNL     1      -2.956 -11.743  11.081  0.00  0.00    +0.007 C 
ATOM     12  C   UNL     1      -3.848 -11.136  13.363  0.00  0.00    +0.029 C 
ATOM     13  C   UNL     1      -4.081 -10.968   8.989  0.00  0.00    +0.009 C 
ATOM     14  C   UNL     1      -6.141  -9.492   9.064  0.00  0.00    +0.076 C 
ATOM     15  C   UNL     1      -2.609 -11.496  12.543  0.00  0.00    +0.007 C 
ATOM     16  C   UNL     1      -4.910  -9.917   8.264  0.00  0.00    +0.023 C 
ATOM     17  C   UNL     1      -2.716  -9.344  10.357  0.00  0.00    +0.011 C 
ATOM     19  C   UNL     1      -7.126  -8.742  11.260  0.00  0.00    +0.010 C 
ENDROOT
BRANCH  14   5
ATOM      3  O   UNL     1      -8.401  -9.724   7.273  0.00  0.00    -0.273 OA
ATOM      5  N   UNL     1      -6.804  -8.421   8.350  0.00  0.00    -0.310 N 
ATOM     25  C   UNL     1      -7.884  -8.635   7.511  0.00  0.00    +0.239 C 
ATOM     28  H   UNL     1      -6.415  -7.485   8.424  0.00  0.00    +0.149 HD
BRANCH  25  26
ATOM     26  C   UNL     1      -8.379  -7.343   6.898  0.00  0.00    +0.255 C 
BRANCH  26   4
ATOM      4  O   UNL     1      -8.131  -6.254   7.761  0.00  0.00    -0.374 OA
ATOM     27  C   UNL     1      -9.310  -5.837   8.444  0.00  0.00    +0.194 C 
ENDBRANCH  26   4
ENDBRANCH  25  26
ENDBRANCH  14   5
BRANCH  10   1
ATOM      1  O   UNL     1      -5.891  -9.909  13.477  0.00  0.00    -0.391 OA
ATOM     29  H   UNL     1      -6.352 -10.761  13.390  0.00  0.00    +0.210 HD
ENDBRANCH  10   1
BRANCH  12  18
ATOM     18  C   UNL     1      -3.434 -10.823  14.806  0.00  0.00    +0.077 C 
ATOM     21  C   UNL     1      -1.938 -11.056  14.985  0.00  0.00    +0.017 C 
BRANCH  18  20
ATOM      2  O   UNL     1      -5.197 -12.366  15.418  0.00  0.00    -0.276 OA
ATOM      6  N   UNL     1      -3.801 -11.561  17.085  0.00  0.00    -0.312 N 
ATOM     20  C   UNL     1      -4.249 -11.670  15.777  0.00  0.00    +0.216 C 
ATOM     30  H   UNL     1      -3.008 -10.960  17.300  0.00  0.00    +0.149 HD
BRANCH   6  22
ATOM     22  C   UNL     1      -4.415 -12.269  18.184  0.00  0.00    +0.073 C 
ATOM     23  C   UNL     1      -5.036 -11.530  19.333  0.00  0.00    +0.024 C 
ATOM     24  C   UNL     1      -3.771 -12.309  19.539  0.00  0.00    +0.024 C 
ENDBRANCH   6  22
ENDBRANCH  18  20
ENDBRANCH  12  18
TORSDOF 7
ENDMDL
MODEL 3
REMARK VINA RESULT:      -6.0     27.039     28.559
REMARK  Name = 28962858
REMARK  11 active torsions:
REMARK  status: ('A' for Active; 'I' for Inactive)
REMARK    1  A    between atoms: O_1  and  C_10
REMARK    2  A    between atoms: O_4  and  C_26
REMARK    3  A    between atoms: O_4  and  C_27
REMARK    4  A    between atoms: N_5  and  C_14
REMARK    5  A    between atoms: N_6  and  C_22
REMARK    6  A    between atoms: C_7  and  C_17
REMARK    7  A    between atoms: C_9  and  C_19
REMARK    8  A    between atoms: C_12  and  C_18
REMARK    9  A    between atoms: C_18  and  C_20
REMARK   10  A    between atoms: C_18  and  C_21
REMARK   11  A    between atoms: C_25  and  C_26
REMARK                            x       y       z     vdW  Elec       q    Type
REMARK                         _______ _______ _______ _____ _____    ______ ____
ROOT
ATOM      7  C   UNL     1      -4.795 -11.050  16.936  0.00  0.00    -0.027 C 
ATOM      8  C   UNL     1      -5.569 -10.434  15.723  0.00  0.00    +0.028 C 
ATOM      9  C   UNL     1      -7.121 -10.548  15.934  0.00  0.00    +0.012 C 
ATOM     10  C   UNL     1      -5.035 -10.991  14.371  0.00  0.00    +0.122 C 
ATOM     11  C   UNL     1      -3.276 -10.820  16.750  0.00  0.00    +0.007 C 
ATOM     12  C   UNL     1      -3.501 -10.852  14.236  0.00  0.00    +0.029 C 
ATOM     13  C   UNL     1      -5.225 -10.323  18.231  0.00  0.00    +0.009 C 
ATOM     14  C   UNL     1      -7.533  -9.880  17.276  0.00  0.00    +0.076 C 
ATOM     15  C   UNL     1      -2.743 -11.398  15.446  0.00  0.00    +0.007 C 
ATOM     16  C   UNL     1      -6.727 -10.378  18.476  0.00  0.00    +0.023 C 
ATOM     17  C   UNL     1      -5.052 -12.570  17.095  0.00  0.00    +0.011 C 
ATOM     19  C   UNL     1      -7.946  -9.936  14.790  0.00  0.00    +0.010 C 
ENDROOT
BRANCH  14   5
ATOM      3  O   UNL     1      -9.571  -7.833  17.437  0.00  0.00    -0.273 OA
ATOM      5  N   UNL     1      -8.940 -10.069  17.559  0.00  0.00    -0.310 N 
ATOM     25  C   UNL     1      -9.840  -9.019  17.615  0.00  0.00    +0.239 C 
ATOM     28  H   UNL     1      -9.260 -11.006  17.787  0.00  0.00    +0.149 HD
BRANCH  25  26
ATOM     26  C   UNL     1     -11.241  -9.502  17.927  0.00  0.00    +0.255 C 
BRANCH  26   4
ATOM      4  O   UNL     1     -11.204 -10.613  18.797  0.00  0.00    -0.374 OA
ATOM     27  C   UNL     1     -11.408 -10.232  20.155  0.00  0.00    +0.194 C 
ENDBRANCH  26   4
ENDBRANCH  25  26
ENDBRANCH  14   5
BRANCH  10   1
ATOM      1  O   UNL     1      -5.609 -10.254  13.292  0.00  0.00    -0.391 OA
ATOM     29  H   UNL     1      -5.748 -10.865  12.549  0.00  0.00    +0.210 HD
ENDBRANCH  10   1
BRANCH  12  18
ATOM     18  C   UNL     1      -2.979 -11.523  12.959  0.00  0.00    +0.077 C 
ATOM     21  C   UNL     1      -1.768 -12.391  13.280  0.00  0.00    +0.017 C 
BRANCH  18  20
ATOM      2  O   UNL     1      -1.525  -9.963  11.812  0.00  0.00    -0.276 OA
ATOM      6  N   UNL     1      -3.730 -10.140  11.116  0.00  0.00    -0.312 N 
ATOM     20  C   UNL     1      -2.643 -10.463  11.915  0.00  0.00    +0.216 C 
ATOM     30  H   UNL     1      -4.625 -10.600  11.268  0.00  0.00    +0.149 HD
BRANCH   6  22
ATOM     22  C   UNL     1      -3.658  -9.161  10.056  0.00  0.00    +0.073 C 
ATOM     23  C   UNL     1      -4.810  -8.244   9.768  0.00  0.00    +0.024 C 
ATOM     24  C   UNL     1      -4.449  -9.325   8.792  0.00  0.00    +0.024 C 
ENDBRANCH   6  22
ENDBRANCH  18  20
ENDBRANCH  12  18
TORSDOF 7
ENDMDL
MODEL 4
REMARK VINA RESULT:      -5.9     24.459     27.780
REMARK  Name = 28962858
REMARK  11 active torsions:
REMARK  status: ('A' for Active; 'I' for Inactive)
REMARK    1  A    between atoms: O_1  and  C_10
REMARK    2  A    between atoms: O_4  and  C_26
REMARK    3  A    between atoms: O_4  and  C_27
REMARK    4  A    between atoms: N_5  and  C_14
REMARK    5  A    between atoms: N_6  and  C_22
REMARK    6  A    between atoms: C_7  and  C_17
REMARK    7  A    between atoms: C_9  and  C_19
REMARK    8  A    between atoms: C_12  and  C_18
REMARK    9  A    between atoms: C_18  and  C_20
REMARK   10  A    between atoms: C_18  and  C_21
REMARK   11  A    between atoms: C_25  and  C_26
REMARK                            x       y       z     vdW  Elec       q    Type
REMARK                         _______ _______ _______ _____ _____    ______ ____
ROOT
ATOM      7  C   UNL     1     -15.151   7.485  20.123  0.00  0.00    -0.027 C 
ATOM      8  C   UNL     1     -14.031   6.600  20.767  0.00  0.00    +0.028 C 
ATOM      9  C   UNL     1     -14.509   6.002  22.138  0.00  0.00    +0.012 C 
ATOM     10  C   UNL     1     -12.669   7.354  20.804  0.00  0.00    +0.122 C 
ATOM     11  C   UNL     1     -14.691   7.964  18.726  0.00  0.00    +0.007 C 
ATOM     12  C   UNL     1     -12.266   7.921  19.424  0.00  0.00    +0.029 C 
ATOM     13  C   UNL     1     -16.423   6.627  19.932  0.00  0.00    +0.009 C 
ATOM     14  C   UNL     1     -15.830   5.205  21.946  0.00  0.00    +0.076 C 
ATOM     15  C   UNL     1     -13.379   8.736  18.765  0.00  0.00    +0.007 C 
ATOM     16  C   UNL     1     -16.920   5.998  21.226  0.00  0.00    +0.023 C 
ATOM     17  C   UNL     1     -15.497   8.725  20.987  0.00  0.00    +0.011 C 
ATOM     19  C   UNL     1     -13.465   5.097  22.813  0.00  0.00    +0.010 C 
ENDROOT
BRANCH  14   5
ATOM      3  O   UNL     1     -16.490   2.480  22.661  0.00  0.00    -0.273 OA
ATOM      5  N   UNL     1     -16.362   4.737  23.209  0.00  0.00    -0.310 N 
ATOM     25  C   UNL     1     -16.647   3.405  23.455  0.00  0.00    +0.239 C 
ATOM     28  H   UNL     1     -16.591   5.430  23.916  0.00  0.00    +0.149 HD
BRANCH  25  26
ATOM     26  C   UNL     1     -17.188   3.200  24.853  0.00  0.00    +0.255 C 
BRANCH  26   4
ATOM      4  O   UNL     1     -16.460   3.967  25.788  0.00  0.00    -0.374 OA
ATOM     27  C   UNL     1     -16.142   3.218  26.958  0.00  0.00    +0.194 C 
ENDBRANCH  26   4
ENDBRANCH  25  26
ENDBRANCH  14   5
BRANCH  10   1
ATOM      1  O   UNL     1     -11.635   6.449  21.193  0.00  0.00    -0.391 OA
ATOM     29  H   UNL     1     -11.652   5.691  20.584  0.00  0.00    +0.210 HD
ENDBRANCH  10   1
BRANCH  12  18
ATOM     18  C   UNL     1     -10.991   8.769  19.507  0.00  0.00    +0.077 C 
ATOM     21  C   UNL     1     -11.266  10.056  20.278  0.00  0.00    +0.017 C 
BRANCH  18  20
ATOM      2  O   UNL     1     -10.345   8.191  17.246  0.00  0.00    -0.276 OA
ATOM      6  N   UNL     1     -10.154  10.401  17.923  0.00  0.00    -0.312 N 
ATOM     20  C   UNL     1     -10.468   9.062  18.105  0.00  0.00    +0.216 C 
ATOM     30  H   UNL     1     -10.282  11.060  18.687  0.00  0.00    +0.149 HD
BRANCH   6  22
ATOM     22  C   UNL     1      -9.639  10.921  16.678  0.00  0.00    +0.073 C 
ATOM     23  C   UNL     1      -9.254  12.365  16.540  0.00  0.00    +0.024 C 
ATOM     24  C   UNL     1     -10.460  11.838  15.820  0.00  0.00    +0.024 C 
ENDBRANCH   6  22
ENDBRANCH  18  20
ENDBRANCH  12  18
TORSDOF 7
ENDMDL
MODEL 5
REMARK VINA RESULT:      -5.8     27.614     29.705
REMARK  Name = 28962858
REMARK  11 active torsions:
REMARK  status: ('A' for Active; 'I' for Inactive)
REMARK    1  A    between atoms: O_1  and  C_10
REMARK    2  A    between atoms: O_4  and  C_26
REMARK    3  A    between atoms: O_4  and  C_27
REMARK    4  A    between atoms: N_5  and  C_14
REMARK    5  A    between atoms: N_6  and  C_22
REMARK    6  A    between atoms: C_7  and  C_17
REMARK    7  A    between atoms: C_9  and  C_19
REMARK    8  A    between atoms: C_12  and  C_18
REMARK    9  A    between atoms: C_18  and  C_20
REMARK   10  A    between atoms: C_18  and  C_21
REMARK   11  A    between atoms: C_25  and  C_26
REMARK                            x       y       z     vdW  Elec       q    Type
REMARK                         _______ _______ _______ _____ _____    ______ ____
ROOT
ATOM      7  C   UNL     1      -5.007 -11.256  17.989  0.00  0.00    -0.027 C 
ATOM      8  C   UNL     1      -5.778 -12.272  17.081  0.00  0.00    +0.028 C 
ATOM      9  C   UNL     1      -6.568 -13.313  17.954  0.00  0.00    +0.012 C 
ATOM     10  C   UNL     1      -4.844 -12.882  15.996  0.00  0.00    +0.122 C 
ATOM     11  C   UNL     1      -4.334 -10.181  17.102  0.00  0.00    +0.007 C 
ATOM     12  C   UNL     1      -4.094 -11.802  15.183  0.00  0.00    +0.029 C 
ATOM     13  C   UNL     1      -6.016 -10.539  18.914  0.00  0.00    +0.009 C 
ATOM     14  C   UNL     1      -7.525 -12.577  18.934  0.00  0.00    +0.076 C 
ATOM     15  C   UNL     1      -3.389 -10.772  16.065  0.00  0.00    +0.007 C 
ATOM     16  C   UNL     1      -6.832 -11.500  19.768  0.00  0.00    +0.023 C 
ATOM     17  C   UNL     1      -3.918 -11.940  18.854  0.00  0.00    +0.011 C 
ATOM     19  C   UNL     1      -7.374 -14.327  17.125  0.00  0.00    +0.010 C 
ENDROOT
BRANCH  14   5
ATOM      3  O   UNL     1     -10.206 -12.364  20.001  0.00  0.00    -0.273 OA
ATOM      5  N   UNL     1      -8.183 -13.500  19.834  0.00  0.00    -0.310 N 
ATOM     25  C   UNL     1      -9.476 -13.309  20.291  0.00  0.00    +0.239 C 
ATOM     28  H   UNL     1      -7.646 -14.286  20.190  0.00  0.00    +0.149 HD
BRANCH  25  26
ATOM     26  C   UNL     1      -9.912 -14.426  21.215  0.00  0.00    +0.255 C 
BRANCH  26   4
ATOM      4  O   UNL     1      -8.801 -14.977  21.890  0.00  0.00    -0.374 OA
ATOM     27  C   UNL     1      -8.955 -16.376  22.112  0.00  0.00    +0.194 C 
ENDBRANCH  26   4
ENDBRANCH  25  26
ENDBRANCH  14   5
BRANCH  10   1
ATOM      1  O   UNL     1      -5.622 -13.630  15.063  0.00  0.00    -0.391 OA
ATOM     29  H   UNL     1      -6.509 -13.758  15.442  0.00  0.00    +0.210 HD
ENDBRANCH  10   1
BRANCH  12  18
ATOM     18  C   UNL     1      -3.083 -12.422  14.210  0.00  0.00    +0.077 C 
ATOM     21  C   UNL     1      -1.690 -11.861  14.474  0.00  0.00    +0.017 C 
BRANCH  18  20
ATOM      2  O   UNL     1      -4.357 -12.864  12.199  0.00  0.00    -0.276 OA
ATOM      6  N   UNL     1      -2.876 -11.080  12.203  0.00  0.00    -0.312 N 
ATOM     20  C   UNL     1      -3.522 -12.167  12.772  0.00  0.00    +0.216 C 
ATOM     30  H   UNL     1      -2.193 -10.555  12.745  0.00  0.00    +0.149 HD
BRANCH   6  22
ATOM     22  C   UNL     1      -3.124 -10.643  10.848  0.00  0.00    +0.073 C 
ATOM     23  C   UNL     1      -2.738  -9.266  10.394  0.00  0.00    +0.024 C 
ATOM     24  C   UNL     1      -4.186  -9.629  10.541  0.00  0.00    +0.024 C 
ENDBRANCH   6  22
ENDBRANCH  18  20
ENDBRANCH  12  18
TORSDOF 7
ENDMDL
MODEL 6
REMARK VINA RESULT:      -5.7     27.026     29.416
REMARK  Name = 28962858
REMARK  11 active torsions:
REMARK  status: ('A' for Active; 'I' for Inactive)
REMARK    1  A    between atoms: O_1  and  C_10
REMARK    2  A    between atoms: O_4  and  C_26
REMARK    3  A    between atoms: O_4  and  C_27
REMARK    4  A    between atoms: N_5  and  C_14
REMARK    5  A    between atoms: N_6  and  C_22
REMARK    6  A    between atoms: C_7  and  C_17
REMARK    7  A    between atoms: C_9  and  C_19
REMARK    8  A    between atoms: C_12  and  C_18
REMARK    9  A    between atoms: C_18  and  C_20
REMARK   10  A    between atoms: C_18  and  C_21
REMARK   11  A    between atoms: C_25  and  C_26
REMARK                            x       y       z     vdW  Elec       q    Type
REMARK                         _______ _______ _______ _____ _____    ______ ____
ROOT
ATOM      7  C   UNL     1      -3.200 -10.429  11.611  0.00  0.00    -0.027 C 
ATOM      8  C   UNL     1      -4.651 -10.150  12.126  0.00  0.00    +0.028 C 
ATOM      9  C   UNL     1      -4.953 -10.979  13.426  0.00  0.00    +0.012 C 
ATOM     10  C   UNL     1      -5.695 -10.298  10.981  0.00  0.00    +0.122 C 
ATOM     11  C   UNL     1      -2.897  -9.515  10.400  0.00  0.00    +0.007 C 
ATOM     12  C   UNL     1      -5.331  -9.462   9.733  0.00  0.00    +0.029 C 
ATOM     13  C   UNL     1      -2.191 -10.079  12.729  0.00  0.00    +0.009 C 
ATOM     14  C   UNL     1      -3.888 -10.675  14.517  0.00  0.00    +0.076 C 
ATOM     15  C   UNL     1      -3.894  -9.687   9.262  0.00  0.00    +0.007 C 
ATOM     16  C   UNL     1      -2.450 -10.835  14.025  0.00  0.00    +0.023 C 
ATOM     17  C   UNL     1      -2.996 -11.905  11.184  0.00  0.00    +0.011 C 
ATOM     19  C   UNL     1      -6.356 -10.730  14.004  0.00  0.00    +0.010 C 
ENDROOT
BRANCH  14   5
ATOM      3  O   UNL     1      -4.682  -9.821  17.165  0.00  0.00    -0.273 OA
ATOM      5  N   UNL     1      -4.067 -11.509  15.687  0.00  0.00    -0.310 N 
ATOM     25  C   UNL     1      -4.451 -11.002  16.917  0.00  0.00    +0.239 C 
ATOM     28  H   UNL     1      -3.840 -12.496  15.610  0.00  0.00    +0.149 HD
BRANCH  25  26
ATOM     26  C   UNL     1      -4.563 -12.094  17.960  0.00  0.00    +0.255 C 
BRANCH  26   4
ATOM      4  O   UNL     1      -5.190 -11.606  19.127  0.00  0.00    -0.374 OA
ATOM     27  C   UNL     1      -6.543 -12.046  19.226  0.00  0.00    +0.194 C 
ENDBRANCH  26   4
ENDBRANCH  25  26
ENDBRANCH  14   5
BRANCH  10   1
ATOM      1  O   UNL     1      -6.966  -9.829  11.431  0.00  0.00    -0.391 OA
ATOM     29  H   UNL     1      -6.940  -9.768  12.401  0.00  0.00    +0.210 HD
ENDBRANCH  10   1
BRANCH  12  18
ATOM     18  C   UNL     1      -6.298  -9.722   8.571  0.00  0.00    +0.077 C 
ATOM     21  C   UNL     1      -5.522 -10.130   7.324  0.00  0.00    +0.017 C 
BRANCH  18  20
ATOM      2  O   UNL     1      -7.497  -7.718   9.214  0.00  0.00    -0.276 OA
ATOM      6  N   UNL     1      -7.477  -8.329   6.977  0.00  0.00    -0.312 N 
ATOM     20  C   UNL     1      -7.149  -8.483   8.316  0.00  0.00    +0.216 C 
ATOM     30  H   UNL     1      -7.151  -9.009   6.294  0.00  0.00    +0.149 HD
BRANCH   6  22
ATOM     22  C   UNL     1      -8.277  -7.230   6.489  0.00  0.00    +0.073 C 
ATOM     23  C   UNL     1      -9.773  -7.334   6.412  0.00  0.00    +0.024 C 
ATOM     24  C   UNL     1      -8.958  -7.298   5.153  0.00  0.00    +0.024 C 
ENDBRANCH   6  22
ENDBRANCH  18  20
ENDBRANCH  12  18
TORSDOF 7
ENDMDL
MODEL 7
REMARK VINA RESULT:      -5.7     26.925     28.865
REMARK  Name = 28962858
REMARK  11 active torsions:
REMARK  status: ('A' for Active; 'I' for Inactive)
REMARK    1  A    between atoms: O_1  and  C_10
REMARK    2  A    between atoms: O_4  and  C_26
REMARK    3  A    between atoms: O_4  and  C_27
REMARK    4  A    between atoms: N_5  and  C_14
REMARK    5  A    between atoms: N_6  and  C_22
REMARK    6  A    between atoms: C_7  and  C_17
REMARK    7  A    between atoms: C_9  and  C_19
REMARK    8  A    between atoms: C_12  and  C_18
REMARK    9  A    between atoms: C_18  and  C_20
REMARK   10  A    between atoms: C_18  and  C_21
REMARK   11  A    between atoms: C_25  and  C_26
REMARK                            x       y       z     vdW  Elec       q    Type
REMARK                         _______ _______ _______ _____ _____    ______ ____
ROOT
ATOM      7  C   UNL     1      -3.034 -11.201  14.292  0.00  0.00    -0.027 C 
ATOM      8  C   UNL     1      -4.399 -10.441  14.196  0.00  0.00    +0.028 C 
ATOM      9  C   UNL     1      -5.254 -10.660  15.495  0.00  0.00    +0.012 C 
ATOM     10  C   UNL     1      -5.126 -10.755  12.856  0.00  0.00    +0.122 C 
ATOM     11  C   UNL     1      -2.172 -10.874  13.050  0.00  0.00    +0.007 C 
ATOM     12  C   UNL     1      -4.224 -10.524  11.622  0.00  0.00    +0.029 C 
ATOM     13  C   UNL     1      -2.269 -10.706  15.541  0.00  0.00    +0.009 C 
ATOM     14  C   UNL     1      -4.445 -10.229  16.751  0.00  0.00    +0.076 C 
ATOM     15  C   UNL     1      -2.866 -11.216  11.738  0.00  0.00    +0.007 C 
ATOM     16  C   UNL     1      -3.060 -10.869  16.831  0.00  0.00    +0.023 C 
ATOM     17  C   UNL     1      -3.216 -12.738  14.381  0.00  0.00    +0.011 C 
ATOM     19  C   UNL     1      -6.600  -9.916  15.480  0.00  0.00    +0.010 C 
ENDROOT
BRANCH  14   5
ATOM      3  O   UNL     1      -5.267 -12.833  17.707  0.00  0.00    -0.273 OA
ATOM      5  N   UNL     1      -5.159 -10.526  17.975  0.00  0.00    -0.310 N 
ATOM     25  C   UNL     1      -5.509 -11.813  18.346  0.00  0.00    +0.239 C 
ATOM     28  H   UNL     1      -5.466  -9.746  18.550  0.00  0.00    +0.149 HD
BRANCH  25  26
ATOM     26  C   UNL     1      -6.245 -11.831  19.669  0.00  0.00    +0.255 C 
BRANCH  26   4
ATOM      4  O   UNL     1      -7.129 -10.734  19.764  0.00  0.00    -0.374 OA
ATOM     27  C   UNL     1      -8.448 -11.078  19.347  0.00  0.00    +0.194 C 
ENDBRANCH  26   4
ENDBRANCH  25  26
ENDBRANCH  14   5
BRANCH  10   1
ATOM      1  O   UNL     1      -6.250  -9.886  12.709  0.00  0.00    -0.391 OA
ATOM     29  H   UNL     1      -6.872 -10.071  13.433  0.00  0.00    +0.210 HD
ENDBRANCH  10   1
BRANCH  12  18
ATOM     18  C   UNL     1      -4.912 -10.962  10.323  0.00  0.00    +0.077 C 
ATOM     21  C   UNL     1      -4.036 -11.961   9.575  0.00  0.00    +0.017 C 
BRANCH  18  20
ATOM      2  O   UNL     1      -4.406  -9.247   8.691  0.00  0.00    -0.276 OA
ATOM      6  N   UNL     1      -6.515  -9.272   9.654  0.00  0.00    -0.312 N 
ATOM     20  C   UNL     1      -5.224  -9.743   9.463  0.00  0.00    +0.216 C 
ATOM     30  H   UNL     1      -7.131  -9.739  10.316  0.00  0.00    +0.149 HD
BRANCH   6  22
ATOM     22  C   UNL     1      -7.042  -8.125   8.952  0.00  0.00    +0.073 C 
ATOM     23  C   UNL     1      -8.507  -7.803   8.982  0.00  0.00    +0.024 C 
ATOM     24  C   UNL     1      -7.871  -8.288   7.712  0.00  0.00    +0.024 C 
ENDBRANCH   6  22
ENDBRANCH  18  20
ENDBRANCH  12  18
TORSDOF 7
ENDMDL
MODEL 8
REMARK VINA RESULT:      -5.6     14.067     18.209
REMARK  Name = 28962858
REMARK  11 active torsions:
REMARK  status: ('A' for Active; 'I' for Inactive)
REMARK    1  A    between atoms: O_1  and  C_10
REMARK    2  A    between atoms: O_4  and  C_26
REMARK    3  A    between atoms: O_4  and  C_27
REMARK    4  A    between atoms: N_5  and  C_14
REMARK    5  A    between atoms: N_6  and  C_22
REMARK    6  A    between atoms: C_7  and  C_17
REMARK    7  A    between atoms: C_9  and  C_19
REMARK    8  A    between atoms: C_12  and  C_18
REMARK    9  A    between atoms: C_18  and  C_20
REMARK   10  A    between atoms: C_18  and  C_21
REMARK   11  A    between atoms: C_25  and  C_26
REMARK                            x       y       z     vdW  Elec       q    Type
REMARK                         _______ _______ _______ _____ _____    ______ ____
ROOT
ATOM      7  C   UNL     1       9.755   6.659   6.517  0.00  0.00    -0.027 C 
ATOM      8  C   UNL     1      10.345   7.575   5.393  0.00  0.00    +0.028 C 
ATOM      9  C   UNL     1      11.408   6.796   4.537  0.00  0.00    +0.012 C 
ATOM     10  C   UNL     1      10.821   8.940   5.969  0.00  0.00    +0.122 C 
ATOM     11  C   UNL     1       8.634   7.419   7.266  0.00  0.00    +0.007 C 
ATOM     12  C   UNL     1       9.729   9.646   6.804  0.00  0.00    +0.029 C 
ATOM     13  C   UNL     1       9.122   5.407   5.867  0.00  0.00    +0.009 C 
ATOM     14  C   UNL     1      10.781   5.500   3.951  0.00  0.00    +0.076 C 
ATOM     15  C   UNL     1       9.107   8.737   7.864  0.00  0.00    +0.007 C 
ATOM     16  C   UNL     1      10.100   4.624   5.002  0.00  0.00    +0.023 C 
ATOM     17  C   UNL     1      10.827   6.214   7.544  0.00  0.00    +0.011 C 
ATOM     19  C   UNL     1      12.009   7.630   3.393  0.00  0.00    +0.010 C 
ENDROOT
BRANCH  14   5
ATOM      3  O   UNL     1      10.374   3.936   1.551  0.00  0.00    -0.273 OA
ATOM      5  N   UNL     1      11.764   4.698   3.253  0.00  0.00    -0.310 N 
ATOM     25  C   UNL     1      11.469   3.981   2.106  0.00  0.00    +0.239 C 
ATOM     28  H   UNL     1      12.689   4.613   3.663  0.00  0.00    +0.149 HD
BRANCH  25  26
ATOM     26  C   UNL     1      12.680   3.236   1.587  0.00  0.00    +0.255 C 
BRANCH  26   4
ATOM      4  O   UNL     1      13.741   4.129   1.324  0.00  0.00    -0.374 OA
ATOM     27  C   UNL     1      15.005   3.569   1.668  0.00  0.00    +0.194 C 
ENDBRANCH  26   4
ENDBRANCH  25  26
ENDBRANCH  14   5
BRANCH  10   1
ATOM      1  O   UNL     1      11.149   9.822   4.896  0.00  0.00    -0.391 OA
ATOM     29  H   UNL     1      10.320  10.110   4.477  0.00  0.00    +0.210 HD
ENDBRANCH  10   1
BRANCH  12  18
ATOM     18  C   UNL     1      10.257  10.922   7.471  0.00  0.00    +0.077 C 
ATOM     21  C   UNL     1      10.794  10.605   8.862  0.00  0.00    +0.017 C 
BRANCH  18  20
ATOM      2  O   UNL     1       8.466  12.269   6.553  0.00  0.00    -0.276 OA
ATOM      6  N   UNL     1       9.028  12.546   8.785  0.00  0.00    -0.312 N 
ATOM     20  C   UNL     1       9.155  11.974   7.528  0.00  0.00    +0.216 C 
ATOM     30  H   UNL     1       9.641  12.248   9.541  0.00  0.00    +0.149 HD
BRANCH   6  22
ATOM     22  C   UNL     1       8.053  13.568   9.085  0.00  0.00    +0.073 C 
ATOM     23  C   UNL     1       8.061  14.284  10.404  0.00  0.00    +0.024 C 
ATOM     24  C   UNL     1       6.954  13.326  10.078  0.00  0.00    +0.024 C 
ENDBRANCH   6  22
ENDBRANCH  18  20
ENDBRANCH  12  18
TORSDOF 7
ENDMDL
MODEL 9
REMARK VINA RESULT:      -5.5     14.555     16.988
REMARK  Name = 28962858
REMARK  11 active torsions:
REMARK  status: ('A' for Active; 'I' for Inactive)
REMARK    1  A    between atoms: O_1  and  C_10
REMARK    2  A    between atoms: O_4  and  C_26
REMARK    3  A    between atoms: O_4  and  C_27
REMARK    4  A    between atoms: N_5  and  C_14
REMARK    5  A    between atoms: N_6  and  C_22
REMARK    6  A    between atoms: C_7  and  C_17
REMARK    7  A    between atoms: C_9  and  C_19
REMARK    8  A    between atoms: C_12  and  C_18
REMARK    9  A    between atoms: C_18  and  C_20
REMARK   10  A    between atoms: C_18  and  C_21
REMARK   11  A    between atoms: C_25  and  C_26
REMARK                            x       y       z     vdW  Elec       q    Type
REMARK                         _______ _______ _______ _____ _____    ______ ____
ROOT
ATOM      7  C   UNL     1       9.449   6.088   6.054  0.00  0.00    -0.027 C 
ATOM      8  C   UNL     1      10.465   7.140   5.496  0.00  0.00    +0.028 C 
ATOM      9  C   UNL     1      10.020   8.600   5.868  0.00  0.00    +0.012 C 
ATOM     10  C   UNL     1      10.759   6.895   3.987  0.00  0.00    +0.122 C 
ATOM     11  C   UNL     1       9.975   4.661   5.768  0.00  0.00    +0.007 C 
ATOM     12  C   UNL     1      11.184   5.438   3.693  0.00  0.00    +0.029 C 
ATOM     13  C   UNL     1       9.344   6.253   7.588  0.00  0.00    +0.009 C 
ATOM     14  C   UNL     1       9.844   8.732   7.408  0.00  0.00    +0.076 C 
ATOM     15  C   UNL     1      10.227   4.406   4.288  0.00  0.00    +0.007 C 
ATOM     16  C   UNL     1       8.941   7.658   8.012  0.00  0.00    +0.023 C 
ATOM     17  C   UNL     1       8.039   6.234   5.427  0.00  0.00    +0.011 C 
ATOM     19  C   UNL     1      10.991   9.685   5.374  0.00  0.00    +0.010 C 
ENDROOT
BRANCH  14   5
ATOM      3  O   UNL     1      11.075  10.674   9.165  0.00  0.00    -0.273 OA
ATOM      5  N   UNL     1       9.323  10.031   7.777  0.00  0.00    -0.310 N 
ATOM     25  C   UNL     1       9.991  10.892   8.630  0.00  0.00    +0.239 C 
ATOM     28  H   UNL     1       8.398  10.288   7.442  0.00  0.00    +0.149 HD
BRANCH  25  26
ATOM     26  C   UNL     1       9.219  12.178   8.842  0.00  0.00    +0.255 C 
BRANCH  26   4
ATOM      4  O   UNL     1       8.569  12.571   7.652  0.00  0.00    -0.374 OA
ATOM     27  C   UNL     1       7.659  13.645   7.873  0.00  0.00    +0.194 C 
ENDBRANCH  26   4
ENDBRANCH  25  26
ENDBRANCH  14   5
BRANCH  10   1
ATOM      1  O   UNL     1      11.841   7.728   3.571  0.00  0.00    -0.391 OA
ATOM     29  H   UNL     1      12.660   7.379   3.963  0.00  0.00    +0.210 HD
ENDBRANCH  10   1
BRANCH  12  18
ATOM     18  C   UNL     1      11.342   5.184   2.189  0.00  0.00    +0.077 C 
ATOM     21  C   UNL     1      10.300   4.176   1.715  0.00  0.00    +0.017 C 
BRANCH  18  20
ATOM      2  O   UNL     1      13.042   3.514   1.757  0.00  0.00    -0.276 OA
ATOM      6  N   UNL     1      13.664   5.748   1.786  0.00  0.00    -0.312 N 
ATOM     20  C   UNL     1      12.757   4.703   1.889  0.00  0.00    +0.216 C 
ATOM     30  H   UNL     1      13.348   6.707   1.912  0.00  0.00    +0.149 HD
BRANCH   6  22
ATOM     22  C   UNL     1      15.066   5.542   1.508  0.00  0.00    +0.073 C 
ATOM     23  C   UNL     1      15.816   6.457   0.584  0.00  0.00    +0.024 C 
ATOM     24  C   UNL     1      15.528   5.044   0.170  0.00  0.00    +0.024 C 
ENDBRANCH   6  22
ENDBRANCH  18  20
ENDBRANCH  12  18
TORSDOF 7
ENDMDL
MODEL 10
REMARK VINA RESULT:      -5.5     14.897     18.992
REMARK  Name = 28962858
REMARK  11 active torsions:
REMARK  status: ('A' for Active; 'I' for Inactive)
REMARK    1  A    between atoms: O_1  and  C_10
REMARK    2  A    between atoms: O_4  and  C_26
REMARK    3  A    between atoms: O_4  and  C_27
REMARK    4  A    between atoms: N_5  and  C_14
REMARK    5  A    between atoms: N_6  and  C_22
REMARK    6  A    between atoms: C_7  and  C_17
REMARK    7  A    between atoms: C_9  and  C_19
REMARK    8  A    between atoms: C_12  and  C_18
REMARK    9  A    between atoms: C_18  and  C_20
REMARK   10  A    between atoms: C_18  and  C_21
REMARK   11  A    between atoms: C_25  and  C_26
REMARK                            x       y       z     vdW  Elec       q    Type
REMARK                         _______ _______ _______ _____ _____    ______ ____
ROOT
ATOM      7  C   UNL     1       9.839   6.383   6.219  0.00  0.00    -0.027 C 
ATOM      8  C   UNL     1      10.232   7.372   5.071  0.00  0.00    +0.028 C 
ATOM      9  C   UNL     1      11.290   6.721   4.110  0.00  0.00    +0.012 C 
ATOM     10  C   UNL     1      10.615   8.770   5.637  0.00  0.00    +0.122 C 
ATOM     11  C   UNL     1       8.716   7.010   7.079  0.00  0.00    +0.007 C 
ATOM     12  C   UNL     1       9.532   9.346   6.579  0.00  0.00    +0.029 C 
ATOM     13  C   UNL     1       9.284   5.082   5.596  0.00  0.00    +0.009 C 
ATOM     14  C   UNL     1      10.751   5.375   3.548  0.00  0.00    +0.076 C 
ATOM     15  C   UNL     1       9.102   8.361   7.666  0.00  0.00    +0.007 C 
ATOM     16  C   UNL     1      10.257   4.417   4.633  0.00  0.00    +0.023 C 
ATOM     17  C   UNL     1      11.037   6.037   7.140  0.00  0.00    +0.011 C 
ATOM     19  C   UNL     1      11.702   7.629   2.939  0.00  0.00    +0.010 C 
ENDROOT
BRANCH  14   5
ATOM      3  O   UNL     1      10.343   4.048   1.010  0.00  0.00    -0.273 OA
ATOM      5  N   UNL     1      11.746   4.690   2.751  0.00  0.00    -0.310 N 
ATOM     25  C   UNL     1      11.450   4.083   1.542  0.00  0.00    +0.239 C 
ATOM     28  H   UNL     1      12.685   4.602   3.130  0.00  0.00    +0.149 HD
BRANCH  25  26
ATOM     26  C   UNL     1      12.676   3.445   0.924  0.00  0.00    +0.255 C 
BRANCH  26   4
ATOM      4  O   UNL     1      13.619   3.108   1.919  0.00  0.00    -0.374 OA
ATOM     27  C   UNL     1      14.937   3.517   1.562  0.00  0.00    +0.194 C 
ENDBRANCH  26   4
ENDBRANCH  25  26
ENDBRANCH  14   5
BRANCH  10   1
ATOM      1  O   UNL     1      10.755   9.698   4.561  0.00  0.00    -0.391 OA
ATOM     29  H   UNL     1      10.632  10.595   4.917  0.00  0.00    +0.210 HD
ENDBRANCH  10   1
BRANCH  12  18
ATOM     18  C   UNL     1       9.983  10.660   7.228  0.00  0.00    +0.077 C 
ATOM     21  C   UNL     1      10.055  10.501   8.743  0.00  0.00    +0.017 C 
BRANCH  18  20
ATOM      2  O   UNL     1       8.926  12.824   7.485  0.00  0.00    -0.276 OA
ATOM      6  N   UNL     1       8.330  11.507   5.672  0.00  0.00    -0.312 N 
ATOM     20  C   UNL     1       9.036  11.788   6.832  0.00  0.00    +0.216 C 
ATOM     30  H   UNL     1       8.477  10.623   5.191  0.00  0.00    +0.149 HD
BRANCH   6  22
ATOM     22  C   UNL     1       7.371  12.423   5.099  0.00  0.00    +0.073 C 
ATOM     23  C   UNL     1       7.080  12.420   3.627  0.00  0.00    +0.024 C 
ATOM     24  C   UNL     1       7.811  13.575   4.245  0.00  0.00    +0.024 C 
ENDBRANCH   6  22
ENDBRANCH  18  20
ENDBRANCH  12  18
TORSDOF 7
ENDMDL
