MODEL 1
REMARK VINA RESULT:      -7.6      0.000      0.000
REMARK  Name = 11879850
REMARK  8 active torsions:
REMARK  status: ('A' for Active; 'I' for Inactive)
REMARK    1  A    between atoms: S_1  and  N_11
REMARK    2  A    between atoms: S_1  and  C_30
REMARK    3  A    between atoms: O_6  and  C_34
REMARK    4  A    between atoms: N_11  and  C_23
REMARK    5  A    between atoms: N_12  and  C_37
REMARK    6  A    between atoms: C_22  and  C_25
REMARK    7  A    between atoms: C_28  and  C_34
REMARK    8  A    between atoms: C_38  and  C_39
REMARK                            x       y       z     vdW  Elec       q    Type
REMARK                         _______ _______ _______ _____ _____    ______ ____
ROOT
ATOM      2  O   UNL     1      -5.843  -9.026  12.560  0.00  0.00    -0.266 OA
ATOM      3  O   UNL     1      -8.598  -8.689  16.935  0.00  0.00    -0.270 OA
ATOM      9  N   UNL     1      -9.070 -10.761  15.958  0.00  0.00    -0.297 N 
ATOM     10  N   UNL     1      -7.148 -10.763  13.434  0.00  0.00    -0.310 N 
ATOM     13  C   UNL     1      -9.705 -10.665  13.553  0.00  0.00    +0.027 C 
ATOM     14  C   UNL     1      -8.514 -12.635  14.427  0.00  0.00    +0.054 C 
ATOM     15  C   UNL     1      -9.626 -12.186  13.479  0.00  0.00    +0.018 C 
ATOM     16  C   UNL     1     -10.021 -10.213  14.991  0.00  0.00    +0.113 C 
ATOM     17  C   UNL     1      -8.385 -10.075  13.039  0.00  0.00    +0.130 C 
ATOM     18  C   UNL     1      -8.863 -12.216  15.868  0.00  0.00    +0.117 C 
ATOM     19  C   UNL     1      -7.179 -12.032  14.029  0.00  0.00    +0.027 A 
ATOM     20  C   UNL     1      -6.036 -12.696  14.279  0.00  0.00    +0.024 A 
ATOM     21  C   UNL     1      -5.935 -10.129  13.096  0.00  0.00    +0.274 A 
ATOM     22  C   UNL     1      -8.430  -9.904  16.856  0.00  0.00    +0.247 C 
ATOM     23  C   UNL     1      -4.708 -10.899  13.420  0.00  0.00    +0.112 A 
ATOM     24  C   UNL     1      -4.759 -12.114  13.967  0.00  0.00    +0.031 A 
ENDROOT
BRANCH  22  25
ATOM     25  C   UNL     1      -7.450 -10.484  17.779  0.00  0.00    +0.038 A 
ATOM     26  C   UNL     1      -6.119 -10.613  17.387  0.00  0.00    +0.028 A 
ATOM     27  C   UNL     1      -7.854 -10.905  19.043  0.00  0.00    +0.013 A 
ATOM     28  C   UNL     1      -5.187 -11.167  18.264  0.00  0.00    +0.060 A 
ATOM     29  C   UNL     1      -6.922 -11.459  19.920  0.00  0.00    +0.002 A 
ATOM     31  C   UNL     1      -5.588 -11.590  19.531  0.00  0.00    +0.015 A 
BRANCH  28  34
ATOM      7  O   UNL     1      -3.311 -10.861  16.813  0.00  0.00    -0.245 OA
ATOM     34  C   UNL     1      -3.797 -11.301  17.859  0.00  0.00    +0.337 C 
BRANCH  34   6
ATOM      6  O   UNL     1      -3.053 -11.983  18.773  0.00  0.00    -0.477 OA
ATOM     41  H   UNL     1      -3.339 -11.792  19.692  0.00  0.00    +0.295 HD
ENDBRANCH  34   6
ENDBRANCH  28  34
ENDBRANCH  22  25
BRANCH  23  11
ATOM     11  N   UNL     1      -3.440 -10.361  13.141  0.00  0.00    -0.211 N 
ATOM     40  H   UNL     1      -3.439  -9.330  13.121  0.00  0.00    +0.174 HD
BRANCH  11   1
ATOM      1  S   UNL     1      -2.549 -11.089  11.899  0.00  0.00    +0.072 S 
ATOM      4  O   UNL     1      -1.241 -10.469  11.807  0.00  0.00    -0.150 OA
ATOM      5  O   UNL     1      -2.668 -12.532  11.997  0.00  0.00    -0.150 OA
BRANCH   1  30
ATOM     30  C   UNL     1      -3.477 -10.577  10.484  0.00  0.00    +0.109 A 
ATOM     32  C   UNL     1      -4.172 -11.524   9.753  0.00  0.00    +0.030 A 
ATOM     33  C   UNL     1      -3.489  -9.239  10.134  0.00  0.00    +0.030 A 
ATOM     35  C   UNL     1      -4.904 -11.120   8.637  0.00  0.00    +0.025 A 
ATOM     36  C   UNL     1      -4.221  -8.834   9.017  0.00  0.00    +0.025 A 
ATOM     37  C   UNL     1      -4.929  -9.775   8.269  0.00  0.00    +0.033 A 
BRANCH  37  12
ATOM      8  O   UNL     1      -7.852  -9.115   7.983  0.00  0.00    -0.276 OA
ATOM     12  N   UNL     1      -5.661  -9.371   7.152  0.00  0.00    -0.286 N 
ATOM     38  C   UNL     1      -7.029  -9.077   7.075  0.00  0.00    +0.214 C 
ATOM     39  C   UNL     1      -7.436  -8.675   5.680  0.00  0.00    +0.109 C 
ATOM     42  H   UNL     1      -5.126  -9.282   6.290  0.00  0.00    +0.155 HD
ENDBRANCH  37  12
ENDBRANCH   1  30
ENDBRANCH  11   1
ENDBRANCH  23  11
TORSDOF 7
ENDMDL
MODEL 2
REMARK VINA RESULT:      -7.5     23.233     26.795
REMARK  Name = 11879850
REMARK  8 active torsions:
REMARK  status: ('A' for Active; 'I' for Inactive)
REMARK    1  A    between atoms: S_1  and  N_11
REMARK    2  A    between atoms: S_1  and  C_30
REMARK    3  A    between atoms: O_6  and  C_34
REMARK    4  A    between atoms: N_11  and  C_23
REMARK    5  A    between atoms: N_12  and  C_37
REMARK    6  A    between atoms: C_22  and  C_25
REMARK    7  A    between atoms: C_28  and  C_34
REMARK    8  A    between atoms: C_38  and  C_39
REMARK                            x       y       z     vdW  Elec       q    Type
REMARK                         _______ _______ _______ _____ _____    ______ ____
ROOT
ATOM      2  O   UNL     1      12.112   8.660   2.211  0.00  0.00    -0.266 OA
ATOM      3  O   UNL     1      12.589   8.174   7.346  0.00  0.00    -0.270 OA
ATOM      9  N   UNL     1      10.542   9.224   6.921  0.00  0.00    -0.297 N 
ATOM     10  N   UNL     1      10.443   9.233   3.751  0.00  0.00    -0.310 N 
ATOM     13  C   UNL     1      10.669  11.185   5.394  0.00  0.00    +0.027 C 
ATOM     14  C   UNL     1       8.642   9.787   5.426  0.00  0.00    +0.054 C 
ATOM     15  C   UNL     1       9.145  11.227   5.334  0.00  0.00    +0.018 C 
ATOM     16  C   UNL     1      11.137  10.544   6.713  0.00  0.00    +0.113 C 
ATOM     17  C   UNL     1      11.191  10.427   4.167  0.00  0.00    +0.130 C 
ATOM     18  C   UNL     1       9.079   9.171   6.769  0.00  0.00    +0.117 C 
ATOM     19  C   UNL     1       9.177   8.946   4.281  0.00  0.00    +0.027 A 
ATOM     20  C   UNL     1       8.458   7.913   3.806  0.00  0.00    +0.024 A 
ATOM     21  C   UNL     1      11.015   8.451   2.726  0.00  0.00    +0.274 A 
ATOM     22  C   UNL     1      11.367   8.137   7.219  0.00  0.00    +0.247 C 
ATOM     23  C   UNL     1      10.185   7.312   2.262  0.00  0.00    +0.112 A 
ATOM     24  C   UNL     1       8.975   7.067   2.765  0.00  0.00    +0.031 A 
ENDROOT
BRANCH  22  25
ATOM     25  C   UNL     1      10.739   6.821   7.375  0.00  0.00    +0.038 A 
ATOM     26  C   UNL     1      10.339   6.389   8.638  0.00  0.00    +0.028 A 
ATOM     27  C   UNL     1      10.549   6.007   6.262  0.00  0.00    +0.013 A 
ATOM     28  C   UNL     1       9.744   5.137   8.788  0.00  0.00    +0.060 A 
ATOM     29  C   UNL     1       9.954   4.755   6.411  0.00  0.00    +0.002 A 
ATOM     31  C   UNL     1       9.551   4.320   7.675  0.00  0.00    +0.015 A 
BRANCH  28  34
ATOM      7  O   UNL     1       8.165   4.712  10.533  0.00  0.00    -0.245 OA
ATOM     34  C   UNL     1       9.322   4.685  10.104  0.00  0.00    +0.337 C 
BRANCH  34   6
ATOM      6  O   UNL     1      10.360   4.210  10.848  0.00  0.00    -0.477 OA
ATOM     41  H   UNL     1      11.223   4.354  10.404  0.00  0.00    +0.295 HD
ENDBRANCH  34   6
ENDBRANCH  28  34
ENDBRANCH  22  25
BRANCH  23  11
ATOM     11  N   UNL     1      10.660   6.454   1.254  0.00  0.00    -0.211 N 
ATOM     40  H   UNL     1      10.149   6.561   0.365  0.00  0.00    +0.174 HD
BRANCH  11   1
ATOM      1  S   UNL     1      10.980   4.851   1.694  0.00  0.00    +0.072 S 
ATOM      4  O   UNL     1      11.181   4.769   3.128  0.00  0.00    -0.150 OA
ATOM      5  O   UNL     1      10.035   3.968   1.037  0.00  0.00    -0.150 OA
BRANCH   1  30
ATOM     30  C   UNL     1      12.554   4.607   0.926  0.00  0.00    +0.109 A 
ATOM     32  C   UNL     1      12.604   4.200  -0.396  0.00  0.00    +0.030 A 
ATOM     33  C   UNL     1      13.705   4.828   1.661  0.00  0.00    +0.030 A 
ATOM     35  C   UNL     1      13.845   4.008  -1.002  0.00  0.00    +0.025 A 
ATOM     36  C   UNL     1      14.947   4.635   1.055  0.00  0.00    +0.025 A 
ATOM     37  C   UNL     1      15.017   4.225  -0.277  0.00  0.00    +0.033 A 
BRANCH  37  12
ATOM      8  O   UNL     1      16.755   6.138  -1.821  0.00  0.00    -0.276 OA
ATOM     12  N   UNL     1      16.259   4.033  -0.883  0.00  0.00    -0.286 N 
ATOM     38  C   UNL     1      17.027   4.964  -1.595  0.00  0.00    +0.214 C 
ATOM     39  C   UNL     1      18.315   4.360  -2.094  0.00  0.00    +0.109 C 
ATOM     42  H   UNL     1      16.647   3.096  -0.791  0.00  0.00    +0.155 HD
ENDBRANCH  37  12
ENDBRANCH   1  30
ENDBRANCH  11   1
ENDBRANCH  23  11
TORSDOF 7
ENDMDL
MODEL 3
REMARK VINA RESULT:      -7.5     30.538     33.202
REMARK  Name = 11879850
REMARK  8 active torsions:
REMARK  status: ('A' for Active; 'I' for Inactive)
REMARK    1  A    between atoms: S_1  and  N_11
REMARK    2  A    between atoms: S_1  and  C_30
REMARK    3  A    between atoms: O_6  and  C_34
REMARK    4  A    between atoms: N_11  and  C_23
REMARK    5  A    between atoms: N_12  and  C_37
REMARK    6  A    between atoms: C_22  and  C_25
REMARK    7  A    between atoms: C_28  and  C_34
REMARK    8  A    between atoms: C_38  and  C_39
REMARK                            x       y       z     vdW  Elec       q    Type
REMARK                         _______ _______ _______ _____ _____    ______ ____
ROOT
ATOM      2  O   UNL     1      20.702   4.002  20.335  0.00  0.00    -0.266 OA
ATOM      3  O   UNL     1      22.228   2.267  24.971  0.00  0.00    -0.270 OA
ATOM      9  N   UNL     1      24.149   2.671  23.699  0.00  0.00    -0.297 N 
ATOM     10  N   UNL     1      22.937   3.867  21.022  0.00  0.00    -0.310 N 
ATOM     13  C   UNL     1      24.139   1.643  21.433  0.00  0.00    +0.027 C 
ATOM     14  C   UNL     1      25.330   3.764  21.809  0.00  0.00    +0.054 C 
ATOM     15  C   UNL     1      25.402   2.422  21.082  0.00  0.00    +0.018 C 
ATOM     16  C   UNL     1      24.053   1.416  22.953  0.00  0.00    +0.113 C 
ATOM     17  C   UNL     1      22.922   2.403  20.892  0.00  0.00    +0.130 C 
ATOM     18  C   UNL     1      25.289   3.526  23.331  0.00  0.00    +0.117 C 
ATOM     19  C   UNL     1      24.106   4.553  21.382  0.00  0.00    +0.027 A 
ATOM     20  C   UNL     1      24.132   5.898  21.385  0.00  0.00    +0.024 A 
ATOM     21  C   UNL     1      21.752   4.547  20.673  0.00  0.00    +0.274 A 
ATOM     22  C   UNL     1      23.182   2.976  24.660  0.00  0.00    +0.247 C 
ATOM     23  C   UNL     1      21.837   6.028  20.720  0.00  0.00    +0.112 A 
ATOM     24  C   UNL     1      22.963   6.662  21.045  0.00  0.00    +0.031 A 
ENDROOT
BRANCH  22  25
ATOM     25  C   UNL     1      23.286   4.264  25.354  0.00  0.00    +0.038 A 
ATOM     26  C   UNL     1      22.729   5.406  24.784  0.00  0.00    +0.028 A 
ATOM     27  C   UNL     1      23.944   4.339  26.579  0.00  0.00    +0.013 A 
ATOM     28  C   UNL     1      22.830   6.631  25.443  0.00  0.00    +0.060 A 
ATOM     29  C   UNL     1      24.045   5.564  27.238  0.00  0.00    +0.002 A 
ATOM     31  C   UNL     1      23.488   6.710  26.670  0.00  0.00    +0.015 A 
BRANCH  28  34
ATOM      7  O   UNL     1      22.877   8.726  24.290  0.00  0.00    -0.245 OA
ATOM     34  C   UNL     1      22.247   7.825  24.852  0.00  0.00    +0.337 C 
BRANCH  34   6
ATOM      6  O   UNL     1      20.892   7.861  24.981  0.00  0.00    -0.477 OA
ATOM     41  H   UNL     1      20.439   7.654  24.136  0.00  0.00    +0.295 HD
ENDBRANCH  34   6
ENDBRANCH  28  34
ENDBRANCH  22  25
BRANCH  23  11
ATOM     11  N   UNL     1      20.712   6.811  20.405  0.00  0.00    -0.211 N 
ATOM     40  H   UNL     1      20.918   7.545  19.711  0.00  0.00    +0.174 HD
BRANCH  11   1
ATOM      1  S   UNL     1      19.739   7.315  21.695  0.00  0.00    +0.072 S 
ATOM      4  O   UNL     1      19.757   6.311  22.742  0.00  0.00    -0.150 OA
ATOM      5  O   UNL     1      20.024   8.701  22.009  0.00  0.00    -0.150 OA
BRANCH   1  30
ATOM     30  C   UNL     1      18.140   7.262  20.941  0.00  0.00    +0.109 A 
ATOM     32  C   UNL     1      17.878   6.301  19.980  0.00  0.00    +0.030 A 
ATOM     33  C   UNL     1      17.182   8.183  21.325  0.00  0.00    +0.030 A 
ATOM     35  C   UNL     1      16.617   6.259  19.385  0.00  0.00    +0.025 A 
ATOM     36  C   UNL     1      15.920   8.141  20.730  0.00  0.00    +0.025 A 
ATOM     37  C   UNL     1      15.638   7.179  19.760  0.00  0.00    +0.033 A 
BRANCH  37  12
ATOM      8  O   UNL     1      14.381   8.997  17.717  0.00  0.00    -0.276 OA
ATOM     12  N   UNL     1      14.377   7.137  19.165  0.00  0.00    -0.286 N 
ATOM     38  C   UNL     1      13.839   8.016  18.215  0.00  0.00    +0.214 C 
ATOM     39  C   UNL     1      12.437   7.625  17.823  0.00  0.00    +0.109 C 
ATOM     42  H   UNL     1      13.780   6.370  19.466  0.00  0.00    +0.155 HD
ENDBRANCH  37  12
ENDBRANCH   1  30
ENDBRANCH  11   1
ENDBRANCH  23  11
TORSDOF 7
ENDMDL
MODEL 4
REMARK VINA RESULT:      -7.4      3.400      7.159
REMARK  Name = 11879850
REMARK  8 active torsions:
REMARK  status: ('A' for Active; 'I' for Inactive)
REMARK    1  A    between atoms: S_1  and  N_11
REMARK    2  A    between atoms: S_1  and  C_30
REMARK    3  A    between atoms: O_6  and  C_34
REMARK    4  A    between atoms: N_11  and  C_23
REMARK    5  A    between atoms: N_12  and  C_37
REMARK    6  A    between atoms: C_22  and  C_25
REMARK    7  A    between atoms: C_28  and  C_34
REMARK    8  A    between atoms: C_38  and  C_39
REMARK                            x       y       z     vdW  Elec       q    Type
REMARK                         _______ _______ _______ _____ _____    ______ ____
ROOT
ATOM      2  O   UNL     1      -6.570  -9.569  13.478  0.00  0.00    -0.266 OA
ATOM      3  O   UNL     1      -5.308 -14.455  12.309  0.00  0.00    -0.270 OA
ATOM      9  N   UNL     1      -3.321 -13.286  12.706  0.00  0.00    -0.297 N 
ATOM     10  N   UNL     1      -4.389 -10.422  13.552  0.00  0.00    -0.310 N 
ATOM     13  C   UNL     1      -3.101 -11.143  11.460  0.00  0.00    +0.027 C 
ATOM     14  C   UNL     1      -2.061 -11.381  13.679  0.00  0.00    +0.054 C 
ATOM     15  C   UNL     1      -1.860 -10.803  12.279  0.00  0.00    +0.018 C 
ATOM     16  C   UNL     1      -3.290 -12.669  11.380  0.00  0.00    +0.113 C 
ATOM     17  C   UNL     1      -4.313 -10.443  12.085  0.00  0.00    +0.130 C 
ATOM     18  C   UNL     1      -2.205 -12.913  13.591  0.00  0.00    +0.117 C 
ATOM     19  C   UNL     1      -3.292 -10.790  14.343  0.00  0.00    +0.027 A 
ATOM     20  C   UNL     1      -3.341 -10.657  15.681  0.00  0.00    +0.024 A 
ATOM     21  C   UNL     1      -5.580  -9.922  14.118  0.00  0.00    +0.274 A 
ATOM     22  C   UNL     1      -4.374 -14.140  13.042  0.00  0.00    +0.247 C 
ATOM     23  C   UNL     1      -5.582  -9.822  15.599  0.00  0.00    +0.112 A 
ATOM     24  C   UNL     1      -4.521 -10.158  16.332  0.00  0.00    +0.031 A 
ENDROOT
BRANCH  22  25
ATOM     25  C   UNL     1      -4.394 -14.704  14.396  0.00  0.00    +0.038 A 
ATOM     26  C   UNL     1      -4.791 -13.911  15.471  0.00  0.00    +0.028 A 
ATOM     27  C   UNL     1      -4.015 -16.028  14.602  0.00  0.00    +0.013 A 
ATOM     28  C   UNL     1      -4.809 -14.446  16.759  0.00  0.00    +0.060 A 
ATOM     29  C   UNL     1      -4.033 -16.563  15.889  0.00  0.00    +0.002 A 
ATOM     31  C   UNL     1      -4.430 -15.772  16.968  0.00  0.00    +0.015 A 
BRANCH  28  34
ATOM      7  O   UNL     1      -4.474 -12.943  18.589  0.00  0.00    -0.245 OA
ATOM     34  C   UNL     1      -5.225 -13.623  17.883  0.00  0.00    +0.337 C 
BRANCH  34   6
ATOM      6  O   UNL     1      -6.569 -13.672  18.094  0.00  0.00    -0.477 OA
ATOM     41  H   UNL     1      -6.932 -12.794  18.339  0.00  0.00    +0.295 HD
ENDBRANCH  34   6
ENDBRANCH  28  34
ENDBRANCH  22  25
BRANCH  23  11
ATOM     11  N   UNL     1      -6.722  -9.350  16.275  0.00  0.00    -0.211 N 
ATOM     40  H   UNL     1      -6.521  -8.537  16.876  0.00  0.00    +0.174 HD
BRANCH  11   1
ATOM      1  S   UNL     1      -7.739 -10.509  16.973  0.00  0.00    +0.072 S 
ATOM      4  O   UNL     1      -7.668 -11.742  16.212  0.00  0.00    -0.150 OA
ATOM      5  O   UNL     1      -7.545 -10.525  18.410  0.00  0.00    -0.150 OA
BRANCH   1  30
ATOM     30  C   UNL     1      -9.323  -9.787  16.661  0.00  0.00    +0.109 A 
ATOM     32  C   UNL     1      -9.834  -9.809  15.376  0.00  0.00    +0.030 A 
ATOM     33  C   UNL     1     -10.020  -9.212  17.709  0.00  0.00    +0.030 A 
ATOM     35  C   UNL     1     -11.083  -9.240  15.130  0.00  0.00    +0.025 A 
ATOM     36  C   UNL     1     -11.270  -8.643  17.464  0.00  0.00    +0.025 A 
ATOM     37  C   UNL     1     -11.801  -8.656  16.174  0.00  0.00    +0.033 A 
BRANCH  37  12
ATOM      8  O   UNL     1     -12.548  -5.847  15.391  0.00  0.00    -0.276 OA
ATOM     12  N   UNL     1     -13.051  -8.086  15.928  0.00  0.00    -0.286 N 
ATOM     38  C   UNL     1     -13.342  -6.764  15.566  0.00  0.00    +0.214 C 
ATOM     39  C   UNL     1     -14.825  -6.546  15.393  0.00  0.00    +0.109 C 
ATOM     42  H   UNL     1     -13.843  -8.718  16.028  0.00  0.00    +0.155 HD
ENDBRANCH  37  12
ENDBRANCH   1  30
ENDBRANCH  11   1
ENDBRANCH  23  11
TORSDOF 7
ENDMDL
MODEL 5
REMARK VINA RESULT:      -7.2     23.527     27.200
REMARK  Name = 11879850
REMARK  8 active torsions:
REMARK  status: ('A' for Active; 'I' for Inactive)
REMARK    1  A    between atoms: S_1  and  N_11
REMARK    2  A    between atoms: S_1  and  C_30
REMARK    3  A    between atoms: O_6  and  C_34
REMARK    4  A    between atoms: N_11  and  C_23
REMARK    5  A    between atoms: N_12  and  C_37
REMARK    6  A    between atoms: C_22  and  C_25
REMARK    7  A    between atoms: C_28  and  C_34
REMARK    8  A    between atoms: C_38  and  C_39
REMARK                            x       y       z     vdW  Elec       q    Type
REMARK                         _______ _______ _______ _____ _____    ______ ____
ROOT
ATOM      2  O   UNL     1      11.122  10.719   2.362  0.00  0.00    -0.266 OA
ATOM      3  O   UNL     1      12.919   7.155   5.665  0.00  0.00    -0.270 OA
ATOM      9  N   UNL     1      12.940   9.218   6.768  0.00  0.00    -0.297 N 
ATOM     10  N   UNL     1      11.650  11.145   4.604  0.00  0.00    -0.310 N 
ATOM     13  C   UNL     1      14.042  11.064   5.515  0.00  0.00    +0.027 C 
ATOM     14  C   UNL     1      12.171  11.564   7.035  0.00  0.00    +0.054 C 
ATOM     15  C   UNL     1      13.532  12.061   6.549  0.00  0.00    +0.018 C 
ATOM     16  C   UNL     1      14.184   9.665   6.142  0.00  0.00    +0.113 C 
ATOM     17  C   UNL     1      13.089  11.065   4.314  0.00  0.00    +0.130 C 
ATOM     18  C   UNL     1      12.332  10.183   7.700  0.00  0.00    +0.117 C 
ATOM     19  C   UNL     1      11.183  11.465   5.886  0.00  0.00    +0.027 A 
ATOM     20  C   UNL     1       9.868  11.646   6.107  0.00  0.00    +0.024 A 
ATOM     21  C   UNL     1      10.773  10.984   3.511  0.00  0.00    +0.274 A 
ATOM     22  C   UNL     1      12.417   7.964   6.442  0.00  0.00    +0.247 C 
ATOM     23  C   UNL     1       9.334  11.171   3.823  0.00  0.00    +0.112 A 
ATOM     24  C   UNL     1       8.912  11.495   5.045  0.00  0.00    +0.031 A 
ENDROOT
BRANCH  22  25
ATOM     25  C   UNL     1      11.145   7.570   7.056  0.00  0.00    +0.038 A 
ATOM     26  C   UNL     1      11.047   6.355   7.729  0.00  0.00    +0.028 A 
ATOM     27  C   UNL     1      10.039   8.411   6.960  0.00  0.00    +0.013 A 
ATOM     28  C   UNL     1       9.837   5.979   8.311  0.00  0.00    +0.060 A 
ATOM     29  C   UNL     1       8.829   8.036   7.541  0.00  0.00    +0.002 A 
ATOM     31  C   UNL     1       8.727   6.819   8.217  0.00  0.00    +0.015 A 
BRANCH  28  34
ATOM      7  O   UNL     1       9.215   4.552  10.127  0.00  0.00    -0.245 OA
ATOM     34  C   UNL     1       9.731   4.712   9.017  0.00  0.00    +0.337 C 
BRANCH  34   6
ATOM      6  O   UNL     1      10.275   3.679   8.316  0.00  0.00    -0.477 OA
ATOM     41  H   UNL     1      11.182   3.886   8.005  0.00  0.00    +0.295 HD
ENDBRANCH  34   6
ENDBRANCH  28  34
ENDBRANCH  22  25
BRANCH  23  11
ATOM     11  N   UNL     1       8.366  11.021   2.814  0.00  0.00    -0.211 N 
ATOM     40  H   UNL     1       7.880  11.902   2.593  0.00  0.00    +0.174 HD
BRANCH  11   1
ATOM      1  S   UNL     1       7.358   9.665   2.911  0.00  0.00    +0.072 S 
ATOM      4  O   UNL     1       6.800   9.565   4.246  0.00  0.00    -0.150 OA
ATOM      5  O   UNL     1       6.488   9.620   1.751  0.00  0.00    -0.150 OA
BRANCH   1  30
ATOM     30  C   UNL     1       8.541   8.362   2.735  0.00  0.00    +0.109 A 
ATOM     32  C   UNL     1       9.172   8.183   1.516  0.00  0.00    +0.030 A 
ATOM     33  C   UNL     1       8.812   7.546   3.818  0.00  0.00    +0.030 A 
ATOM     35  C   UNL     1      10.105   7.157   1.377  0.00  0.00    +0.025 A 
ATOM     36  C   UNL     1       9.746   6.518   3.679  0.00  0.00    +0.025 A 
ATOM     37  C   UNL     1      10.392   6.323   2.458  0.00  0.00    +0.033 A 
BRANCH  37  12
ATOM      8  O   UNL     1      10.213   3.709   0.977  0.00  0.00    -0.276 OA
ATOM     12  N   UNL     1      11.325   5.296   2.319  0.00  0.00    -0.286 N 
ATOM     38  C   UNL     1      11.187   4.092   1.615  0.00  0.00    +0.214 C 
ATOM     39  C   UNL     1      12.431   3.244   1.709  0.00  0.00    +0.109 C 
ATOM     42  H   UNL     1      12.214   5.448   2.793  0.00  0.00    +0.155 HD
ENDBRANCH  37  12
ENDBRANCH   1  30
ENDBRANCH  11   1
ENDBRANCH  23  11
TORSDOF 7
ENDMDL
MODEL 6
REMARK VINA RESULT:      -7.1     24.284     27.513
REMARK  Name = 11879850
REMARK  8 active torsions:
REMARK  status: ('A' for Active; 'I' for Inactive)
REMARK    1  A    between atoms: S_1  and  N_11
REMARK    2  A    between atoms: S_1  and  C_30
REMARK    3  A    between atoms: O_6  and  C_34
REMARK    4  A    between atoms: N_11  and  C_23
REMARK    5  A    between atoms: N_12  and  C_37
REMARK    6  A    between atoms: C_22  and  C_25
REMARK    7  A    between atoms: C_28  and  C_34
REMARK    8  A    between atoms: C_38  and  C_39
REMARK                            x       y       z     vdW  Elec       q    Type
REMARK                         _______ _______ _______ _____ _____    ______ ____
ROOT
ATOM      2  O   UNL     1       8.557   7.930   2.703  0.00  0.00    -0.266 OA
ATOM      3  O   UNL     1      11.722  10.135   6.161  0.00  0.00    -0.270 OA
ATOM      9  N   UNL     1      11.117   8.034   6.993  0.00  0.00    -0.297 N 
ATOM     10  N   UNL     1       9.350   6.865   4.633  0.00  0.00    -0.310 N 
ATOM     13  C   UNL     1       8.671   7.574   6.998  0.00  0.00    +0.027 C 
ATOM     14  C   UNL     1      10.265   5.723   6.686  0.00  0.00    +0.054 C 
ATOM     15  C   UNL     1       8.953   6.121   7.363  0.00  0.00    +0.018 C 
ATOM     16  C   UNL     1       9.815   8.482   7.487  0.00  0.00    +0.113 C 
ATOM     17  C   UNL     1       8.464   7.673   5.482  0.00  0.00    +0.130 C 
ATOM     18  C   UNL     1      11.409   6.609   7.216  0.00  0.00    +0.117 C 
ATOM     19  C   UNL     1      10.166   5.864   5.178  0.00  0.00    +0.027 A 
ATOM     20  C   UNL     1      10.885   5.058   4.375  0.00  0.00    +0.024 A 
ATOM     21  C   UNL     1       9.264   7.079   3.242  0.00  0.00    +0.274 A 
ATOM     22  C   UNL     1      11.960   8.945   6.351  0.00  0.00    +0.247 C 
ATOM     23  C   UNL     1      10.099   6.177   2.411  0.00  0.00    +0.112 A 
ATOM     24  C   UNL     1      10.854   5.217   2.947  0.00  0.00    +0.031 A 
ENDROOT
BRANCH  22  25
ATOM     25  C   UNL     1      13.237   8.448   5.829  0.00  0.00    +0.038 A 
ATOM     26  C   UNL     1      13.285   7.836   4.578  0.00  0.00    +0.028 A 
ATOM     27  C   UNL     1      14.397   8.588   6.587  0.00  0.00    +0.013 A 
ATOM     28  C   UNL     1      14.499   7.362   4.083  0.00  0.00    +0.060 A 
ATOM     29  C   UNL     1      15.611   8.114   6.092  0.00  0.00    +0.002 A 
ATOM     31  C   UNL     1      15.662   7.501   4.840  0.00  0.00    +0.015 A 
BRANCH  28  34
ATOM      7  O   UNL     1      14.202   7.243   1.713  0.00  0.00    -0.245 OA
ATOM     34  C   UNL     1      14.553   6.725   2.777  0.00  0.00    +0.337 C 
BRANCH  34   6
ATOM      6  O   UNL     1      15.044   5.456   2.837  0.00  0.00    -0.477 OA
ATOM     41  H   UNL     1      15.120   5.138   3.763  0.00  0.00    +0.295 HD
ENDBRANCH  34   6
ENDBRANCH  28  34
ENDBRANCH  22  25
BRANCH  23  11
ATOM     11  N   UNL     1      10.105   6.307   1.010  0.00  0.00    -0.211 N 
ATOM     40  H   UNL     1       9.431   7.010   0.672  0.00  0.00    +0.174 HD
BRANCH  11   1
ATOM      1  S   UNL     1      10.149   4.879   0.103  0.00  0.00    +0.072 S 
ATOM      4  O   UNL     1       9.810   3.752   0.951  0.00  0.00    -0.150 OA
ATOM      5  O   UNL     1       9.458   5.080  -1.156  0.00  0.00    -0.150 OA
BRANCH   1  30
ATOM     30  C   UNL     1      11.878   4.769  -0.254  0.00  0.00    +0.109 A 
ATOM     32  C   UNL     1      12.589   3.666   0.184  0.00  0.00    +0.030 A 
ATOM     33  C   UNL     1      12.486   5.789  -0.963  0.00  0.00    +0.030 A 
ATOM     35  C   UNL     1      13.952   3.579  -0.097  0.00  0.00    +0.025 A 
ATOM     36  C   UNL     1      13.850   5.702  -1.245  0.00  0.00    +0.025 A 
ATOM     37  C   UNL     1      14.583   4.597  -0.812  0.00  0.00    +0.033 A 
BRANCH  37  12
ATOM      8  O   UNL     1      16.072   4.991  -3.398  0.00  0.00    -0.276 OA
ATOM     12  N   UNL     1      15.946   4.511  -1.094  0.00  0.00    -0.286 N 
ATOM     38  C   UNL     1      16.589   4.703  -2.324  0.00  0.00    +0.214 C 
ATOM     39  C   UNL     1      18.081   4.518  -2.210  0.00  0.00    +0.109 C 
ATOM     42  H   UNL     1      16.540   4.277  -0.300  0.00  0.00    +0.155 HD
ENDBRANCH  37  12
ENDBRANCH   1  30
ENDBRANCH  11   1
ENDBRANCH  23  11
TORSDOF 7
ENDMDL
MODEL 7
REMARK VINA RESULT:      -7.0      3.894      7.230
REMARK  Name = 11879850
REMARK  8 active torsions:
REMARK  status: ('A' for Active; 'I' for Inactive)
REMARK    1  A    between atoms: S_1  and  N_11
REMARK    2  A    between atoms: S_1  and  C_30
REMARK    3  A    between atoms: O_6  and  C_34
REMARK    4  A    between atoms: N_11  and  C_23
REMARK    5  A    between atoms: N_12  and  C_37
REMARK    6  A    between atoms: C_22  and  C_25
REMARK    7  A    between atoms: C_28  and  C_34
REMARK    8  A    between atoms: C_38  and  C_39
REMARK                            x       y       z     vdW  Elec       q    Type
REMARK                         _______ _______ _______ _____ _____    ______ ____
ROOT
ATOM      2  O   UNL     1      -7.942  -8.837  17.530  0.00  0.00    -0.266 OA
ATOM      3  O   UNL     1      -3.143 -10.387  16.344  0.00  0.00    -0.270 OA
ATOM      9  N   UNL     1      -4.525 -12.275  16.313  0.00  0.00    -0.297 N 
ATOM     10  N   UNL     1      -7.380 -11.021  16.893  0.00  0.00    -0.310 N 
ATOM     13  C   UNL     1      -5.941 -12.569  18.338  0.00  0.00    +0.027 C 
ATOM     14  C   UNL     1      -6.758 -13.348  16.150  0.00  0.00    +0.054 C 
ATOM     15  C   UNL     1      -6.697 -13.693  17.637  0.00  0.00    +0.018 C 
ATOM     16  C   UNL     1      -4.517 -12.441  17.766  0.00  0.00    +0.113 C 
ATOM     17  C   UNL     1      -6.741 -11.269  18.193  0.00  0.00    +0.130 C 
ATOM     18  C   UNL     1      -5.329 -13.266  15.579  0.00  0.00    +0.117 C 
ATOM     19  C   UNL     1      -7.475 -12.029  15.924  0.00  0.00    +0.027 A 
ATOM     20  C   UNL     1      -8.163 -11.819  14.787  0.00  0.00    +0.024 A 
ATOM     21  C   UNL     1      -7.977  -9.756  16.712  0.00  0.00    +0.274 A 
ATOM     22  C   UNL     1      -3.815 -11.218  15.737  0.00  0.00    +0.247 C 
ATOM     23  C   UNL     1      -8.700  -9.576  15.428  0.00  0.00    +0.112 A 
ATOM     24  C   UNL     1      -8.795 -10.554  14.527  0.00  0.00    +0.031 A 
ENDROOT
BRANCH  22  25
ATOM     25  C   UNL     1      -3.884 -11.057  14.281  0.00  0.00    +0.038 A 
ATOM     26  C   UNL     1      -4.883 -10.265  13.718  0.00  0.00    +0.028 A 
ATOM     27  C   UNL     1      -2.954 -11.698  13.468  0.00  0.00    +0.013 A 
ATOM     28  C   UNL     1      -4.950 -10.113  12.333  0.00  0.00    +0.060 A 
ATOM     29  C   UNL     1      -3.021 -11.547  12.083  0.00  0.00    +0.002 A 
ATOM     31  C   UNL     1      -4.019 -10.754  11.516  0.00  0.00    +0.015 A 
BRANCH  28  34
ATOM      7  O   UNL     1      -6.242  -9.207  10.536  0.00  0.00    -0.245 OA
ATOM     34  C   UNL     1      -5.989  -9.285  11.742  0.00  0.00    +0.337 C 
BRANCH  34   6
ATOM      6  O   UNL     1      -6.684  -8.577  12.675  0.00  0.00    -0.477 OA
ATOM     41  H   UNL     1      -6.841  -9.103  13.489  0.00  0.00    +0.295 HD
ENDBRANCH  34   6
ENDBRANCH  28  34
ENDBRANCH  22  25
BRANCH  23  11
ATOM     11  N   UNL     1      -9.322  -8.351  15.131  0.00  0.00    -0.211 N 
ATOM     40  H   UNL     1      -8.675  -7.551  15.185  0.00  0.00    +0.174 HD
BRANCH  11   1
ATOM      1  S   UNL     1     -10.844  -8.073  15.818  0.00  0.00    +0.072 S 
ATOM      4  O   UNL     1     -11.573  -9.324  15.912  0.00  0.00    -0.150 OA
ATOM      5  O   UNL     1     -10.705  -7.220  16.982  0.00  0.00    -0.150 OA
BRANCH   1  30
ATOM     30  C   UNL     1     -11.608  -7.111  14.546  0.00  0.00    +0.109 A 
ATOM     32  C   UNL     1     -12.013  -7.735  13.379  0.00  0.00    +0.030 A 
ATOM     33  C   UNL     1     -11.786  -5.753  14.742  0.00  0.00    +0.030 A 
ATOM     35  C   UNL     1     -12.616  -6.976  12.376  0.00  0.00    +0.025 A 
ATOM     36  C   UNL     1     -12.388  -4.994  13.738  0.00  0.00    +0.025 A 
ATOM     37  C   UNL     1     -12.804  -5.606  12.555  0.00  0.00    +0.033 A 
BRANCH  37  12
ATOM      8  O   UNL     1     -11.596  -4.158  10.208  0.00  0.00    -0.276 OA
ATOM     12  N   UNL     1     -13.406  -4.846  11.552  0.00  0.00    -0.286 N 
ATOM     38  C   UNL     1     -12.792  -4.189  10.477  0.00  0.00    +0.214 C 
ATOM     39  C   UNL     1     -13.798  -3.473   9.611  0.00  0.00    +0.109 C 
ATOM     42  H   UNL     1     -14.419  -4.765  11.617  0.00  0.00    +0.155 HD
ENDBRANCH  37  12
ENDBRANCH   1  30
ENDBRANCH  11   1
ENDBRANCH  23  11
TORSDOF 7
ENDMDL
MODEL 8
REMARK VINA RESULT:      -6.9      2.999      7.549
REMARK  Name = 11879850
REMARK  8 active torsions:
REMARK  status: ('A' for Active; 'I' for Inactive)
REMARK    1  A    between atoms: S_1  and  N_11
REMARK    2  A    between atoms: S_1  and  C_30
REMARK    3  A    between atoms: O_6  and  C_34
REMARK    4  A    between atoms: N_11  and  C_23
REMARK    5  A    between atoms: N_12  and  C_37
REMARK    6  A    between atoms: C_22  and  C_25
REMARK    7  A    between atoms: C_28  and  C_34
REMARK    8  A    between atoms: C_38  and  C_39
REMARK                            x       y       z     vdW  Elec       q    Type
REMARK                         _______ _______ _______ _____ _____    ______ ____
ROOT
ATOM      2  O   UNL     1      -5.044 -12.921  16.751  0.00  0.00    -0.266 OA
ATOM      3  O   UNL     1      -1.454 -11.119  13.480  0.00  0.00    -0.270 OA
ATOM      9  N   UNL     1      -2.437 -12.996  12.489  0.00  0.00    -0.297 N 
ATOM     10  N   UNL     1      -4.674 -13.771  14.600  0.00  0.00    -0.310 N 
ATOM     13  C   UNL     1      -2.536 -15.015  13.940  0.00  0.00    +0.027 C 
ATOM     14  C   UNL     1      -4.294 -14.628  12.260  0.00  0.00    +0.054 C 
ATOM     15  C   UNL     1      -3.423 -15.704  12.908  0.00  0.00    +0.018 C 
ATOM     16  C   UNL     1      -1.649 -13.954  13.262  0.00  0.00    +0.113 C 
ATOM     17  C   UNL     1      -3.425 -14.412  15.034  0.00  0.00    +0.130 C 
ATOM     18  C   UNL     1      -3.397 -13.597  11.548  0.00  0.00    +0.117 C 
ATOM     19  C   UNL     1      -5.157 -13.927  13.294  0.00  0.00    +0.027 A 
ATOM     20  C   UNL     1      -6.358 -13.429  12.946  0.00  0.00    +0.024 A 
ATOM     21  C   UNL     1      -5.407 -13.078  15.586  0.00  0.00    +0.274 A 
ATOM     22  C   UNL     1      -2.252 -11.627  12.696  0.00  0.00    +0.247 C 
ATOM     23  C   UNL     1      -6.711 -12.531  15.137  0.00  0.00    +0.112 A 
ATOM     24  C   UNL     1      -7.162 -12.707  13.895  0.00  0.00    +0.031 A 
ENDROOT
BRANCH  22  25
ATOM     25  C   UNL     1      -3.094 -10.697  11.935  0.00  0.00    +0.038 A 
ATOM     26  C   UNL     1      -4.441 -10.558  12.259  0.00  0.00    +0.028 A 
ATOM     27  C   UNL     1      -2.542  -9.960  10.891  0.00  0.00    +0.013 A 
ATOM     28  C   UNL     1      -5.242  -9.676  11.534  0.00  0.00    +0.060 A 
ATOM     29  C   UNL     1      -3.342  -9.078  10.166  0.00  0.00    +0.002 A 
ATOM     31  C   UNL     1      -4.693  -8.935  10.488  0.00  0.00    +0.015 A 
BRANCH  28  34
ATOM      7  O   UNL     1      -7.577 -10.164  11.366  0.00  0.00    -0.245 OA
ATOM     34  C   UNL     1      -6.649  -9.526  11.871  0.00  0.00    +0.337 C 
BRANCH  34   6
ATOM      6  O   UNL     1      -6.856  -8.581  12.829  0.00  0.00    -0.477 OA
ATOM     41  H   UNL     1      -6.402  -7.738  12.615  0.00  0.00    +0.295 HD
ENDBRANCH  34   6
ENDBRANCH  28  34
ENDBRANCH  22  25
BRANCH  23  11
ATOM     11  N   UNL     1      -7.521 -11.809  16.030  0.00  0.00    -0.211 N 
ATOM     40  H   UNL     1      -8.527 -11.974  15.880  0.00  0.00    +0.174 HD
BRANCH  11   1
ATOM      1  S   UNL     1      -7.108 -10.191  16.312  0.00  0.00    +0.072 S 
ATOM      4  O   UNL     1      -6.809 -10.001  17.718  0.00  0.00    -0.150 OA
ATOM      5  O   UNL     1      -6.170  -9.745  15.299  0.00  0.00    -0.150 OA
BRANCH   1  30
ATOM     30  C   UNL     1      -8.654  -9.396  15.988  0.00  0.00    +0.109 A 
ATOM     32  C   UNL     1      -9.336  -9.695  14.823  0.00  0.00    +0.030 A 
ATOM     33  C   UNL     1      -9.150  -8.488  16.906  0.00  0.00    +0.030 A 
ATOM     35  C   UNL     1     -10.555  -9.068  14.567  0.00  0.00    +0.025 A 
ATOM     36  C   UNL     1     -10.369  -7.860  16.651  0.00  0.00    +0.025 A 
ATOM     37  C   UNL     1     -11.072  -8.150  15.482  0.00  0.00    +0.033 A 
BRANCH  37  12
ATOM      8  O   UNL     1     -11.668  -5.450  14.291  0.00  0.00    -0.276 OA
ATOM     12  N   UNL     1     -12.292  -7.522  15.227  0.00  0.00    -0.286 N 
ATOM     38  C   UNL     1     -12.512  -6.255  14.669  0.00  0.00    +0.214 C 
ATOM     39  C   UNL     1     -13.983  -5.941  14.559  0.00  0.00    +0.109 C 
ATOM     42  H   UNL     1     -13.119  -8.059  15.481  0.00  0.00    +0.155 HD
ENDBRANCH  37  12
ENDBRANCH   1  30
ENDBRANCH  11   1
ENDBRANCH  23  11
TORSDOF 7
ENDMDL
MODEL 9
REMARK VINA RESULT:      -6.9     31.707     34.479
REMARK  Name = 11879850
REMARK  8 active torsions:
REMARK  status: ('A' for Active; 'I' for Inactive)
REMARK    1  A    between atoms: S_1  and  N_11
REMARK    2  A    between atoms: S_1  and  C_30
REMARK    3  A    between atoms: O_6  and  C_34
REMARK    4  A    between atoms: N_11  and  C_23
REMARK    5  A    between atoms: N_12  and  C_37
REMARK    6  A    between atoms: C_22  and  C_25
REMARK    7  A    between atoms: C_28  and  C_34
REMARK    8  A    between atoms: C_38  and  C_39
REMARK                            x       y       z     vdW  Elec       q    Type
REMARK                         _______ _______ _______ _____ _____    ______ ____
ROOT
ATOM      2  O   UNL     1      22.693   8.488  19.337  0.00  0.00    -0.266 OA
ATOM      3  O   UNL     1      26.113   4.638  18.771  0.00  0.00    -0.270 OA
ATOM      9  N   UNL     1      26.954   6.099  20.393  0.00  0.00    -0.297 N 
ATOM     10  N   UNL     1      24.615   8.226  20.651  0.00  0.00    -0.310 N 
ATOM     13  C   UNL     1      26.987   8.496  19.726  0.00  0.00    +0.027 C 
ATOM     14  C   UNL     1      26.658   7.888  22.089  0.00  0.00    +0.054 C 
ATOM     15  C   UNL     1      27.349   8.882  21.156  0.00  0.00    +0.018 C 
ATOM     16  C   UNL     1      27.462   7.064  19.419  0.00  0.00    +0.113 C 
ATOM     17  C   UNL     1      25.473   8.655  19.539  0.00  0.00    +0.130 C 
ATOM     18  C   UNL     1      27.174   6.465  21.802  0.00  0.00    +0.117 C 
ATOM     19  C   UNL     1      25.151   7.930  21.912  0.00  0.00    +0.027 A 
ATOM     20  C   UNL     1      24.340   7.650  22.949  0.00  0.00    +0.024 A 
ATOM     21  C   UNL     1      23.224   8.223  20.415  0.00  0.00    +0.274 A 
ATOM     22  C   UNL     1      26.301   4.948  19.945  0.00  0.00    +0.247 C 
ATOM     23  C   UNL     1      22.384   7.882  21.590  0.00  0.00    +0.112 A 
ATOM     24  C   UNL     1      22.912   7.623  22.786  0.00  0.00    +0.031 A 
ENDROOT
BRANCH  22  25
ATOM     25  C   UNL     1      25.765   4.027  20.953  0.00  0.00    +0.038 A 
ATOM     26  C   UNL     1      24.512   4.266  21.514  0.00  0.00    +0.028 A 
ATOM     27  C   UNL     1      26.511   2.919  21.345  0.00  0.00    +0.013 A 
ATOM     28  C   UNL     1      24.004   3.391  22.474  0.00  0.00    +0.060 A 
ATOM     29  C   UNL     1      26.002   2.044  22.304  0.00  0.00    +0.002 A 
ATOM     31  C   UNL     1      24.748   2.280  22.869  0.00  0.00    +0.015 A 
BRANCH  28  34
ATOM      7  O   UNL     1      22.492   4.121  24.178  0.00  0.00    -0.245 OA
ATOM     34  C   UNL     1      22.696   3.636  23.061  0.00  0.00    +0.337 C 
BRANCH  34   6
ATOM      6  O   UNL     1      21.678   3.267  22.235  0.00  0.00    -0.477 OA
ATOM     41  H   UNL     1      21.493   3.951  21.555  0.00  0.00    +0.295 HD
ENDBRANCH  34   6
ENDBRANCH  28  34
ENDBRANCH  22  25
BRANCH  23  11
ATOM     11  N   UNL     1      20.984   7.833  21.469  0.00  0.00    -0.211 N 
ATOM     40  H   UNL     1      20.508   8.543  22.045  0.00  0.00    +0.174 HD
BRANCH  11   1
ATOM      1  S   UNL     1      20.261   6.303  21.495  0.00  0.00    +0.072 S 
ATOM      4  O   UNL     1      20.957   5.418  20.581  0.00  0.00    -0.150 OA
ATOM      5  O   UNL     1      20.028   5.898  22.868  0.00  0.00    -0.150 OA
BRANCH   1  30
ATOM     30  C   UNL     1      18.687   6.671  20.778  0.00  0.00    +0.109 A 
ATOM     32  C   UNL     1      17.991   7.785  21.212  0.00  0.00    +0.030 A 
ATOM     33  C   UNL     1      18.181   5.837  19.796  0.00  0.00    +0.030 A 
ATOM     35  C   UNL     1      16.749   8.076  20.647  0.00  0.00    +0.025 A 
ATOM     36  C   UNL     1      16.939   6.127  19.231  0.00  0.00    +0.025 A 
ATOM     37  C   UNL     1      16.223   7.247  19.656  0.00  0.00    +0.033 A 
BRANCH  37  12
ATOM      8  O   UNL     1      13.443   6.585  20.601  0.00  0.00    -0.276 OA
ATOM     12  N   UNL     1      14.981   7.537  19.090  0.00  0.00    -0.286 N 
ATOM     38  C   UNL     1      13.710   7.201  19.575  0.00  0.00    +0.214 C 
ATOM     39  C   UNL     1      12.615   7.700  18.666  0.00  0.00    +0.109 C 
ATOM     42  H   UNL     1      15.013   8.057  18.215  0.00  0.00    +0.155 HD
ENDBRANCH  37  12
ENDBRANCH   1  30
ENDBRANCH  11   1
ENDBRANCH  23  11
TORSDOF 7
ENDMDL
MODEL 10
REMARK VINA RESULT:      -6.8     25.171     28.876
REMARK  Name = 11879850
REMARK  8 active torsions:
REMARK  status: ('A' for Active; 'I' for Inactive)
REMARK    1  A    between atoms: S_1  and  N_11
REMARK    2  A    between atoms: S_1  and  C_30
REMARK    3  A    between atoms: O_6  and  C_34
REMARK    4  A    between atoms: N_11  and  C_23
REMARK    5  A    between atoms: N_12  and  C_37
REMARK    6  A    between atoms: C_22  and  C_25
REMARK    7  A    between atoms: C_28  and  C_34
REMARK    8  A    between atoms: C_38  and  C_39
REMARK                            x       y       z     vdW  Elec       q    Type
REMARK                         _______ _______ _______ _____ _____    ______ ____
ROOT
ATOM      2  O   UNL     1      13.751   7.135   6.678  0.00  0.00    -0.266 OA
ATOM      3  O   UNL     1       9.809   6.254   3.435  0.00  0.00    -0.270 OA
ATOM      9  N   UNL     1       8.903   6.719   5.541  0.00  0.00    -0.297 N 
ATOM     10  N   UNL     1      11.493   7.376   7.251  0.00  0.00    -0.310 N 
ATOM     13  C   UNL     1       9.875   5.398   7.413  0.00  0.00    +0.027 C 
ATOM     14  C   UNL     1       9.057   7.684   7.823  0.00  0.00    +0.054 C 
ATOM     15  C   UNL     1       9.126   6.275   8.411  0.00  0.00    +0.018 C 
ATOM     16  C   UNL     1       9.138   5.372   6.062  0.00  0.00    +0.113 C 
ATOM     17  C   UNL     1      11.311   5.918   7.278  0.00  0.00    +0.130 C 
ATOM     18  C   UNL     1       8.280   7.652   6.493  0.00  0.00    +0.117 C 
ATOM     19  C   UNL     1      10.448   8.247   7.589  0.00  0.00    +0.027 A 
ATOM     20  C   UNL     1      10.663   9.572   7.669  0.00  0.00    +0.024 A 
ATOM     21  C   UNL     1      12.791   7.848   6.965  0.00  0.00    +0.274 A 
ATOM     22  C   UNL     1       9.287   7.028   4.234  0.00  0.00    +0.247 C 
ATOM     23  C   UNL     1      12.960   9.320   7.045  0.00  0.00    +0.112 A 
ATOM     24  C   UNL     1      11.958  10.130   7.388  0.00  0.00    +0.031 A 
ENDROOT
BRANCH  22  25
ATOM     25  C   UNL     1       9.077   8.401   3.763  0.00  0.00    +0.038 A 
ATOM     26  C   UNL     1       9.981   9.401   4.117  0.00  0.00    +0.028 A 
ATOM     27  C   UNL     1       7.975   8.699   2.967  0.00  0.00    +0.013 A 
ATOM     28  C   UNL     1       9.780  10.707   3.671  0.00  0.00    +0.060 A 
ATOM     29  C   UNL     1       7.774  10.005   2.522  0.00  0.00    +0.002 A 
ATOM     31  C   UNL     1       8.677  11.009   2.873  0.00  0.00    +0.015 A 
BRANCH  28  34
ATOM      7  O   UNL     1      10.609  12.512   5.003  0.00  0.00    -0.245 OA
ATOM     34  C   UNL     1      10.722  11.753   4.036  0.00  0.00    +0.337 C 
BRANCH  34   6
ATOM      6  O   UNL     1      11.781  11.820   3.182  0.00  0.00    -0.477 OA
ATOM     41  H   UNL     1      12.172  12.720   3.156  0.00  0.00    +0.295 HD
ENDBRANCH  34   6
ENDBRANCH  28  34
ENDBRANCH  22  25
BRANCH  23  11
ATOM     11  N   UNL     1      14.208   9.906   6.767  0.00  0.00    -0.211 N 
ATOM     40  H   UNL     1      14.478  10.620   7.460  0.00  0.00    +0.174 HD
BRANCH  11   1
ATOM      1  S   UNL     1      14.518  10.332   5.158  0.00  0.00    +0.072 S 
ATOM      4  O   UNL     1      13.501   9.759   4.297  0.00  0.00    -0.150 OA
ATOM      5  O   UNL     1      14.829  11.746   5.080  0.00  0.00    -0.150 OA
BRANCH   1  30
ATOM     30  C   UNL     1      16.019   9.443   4.866  0.00  0.00    +0.109 A 
ATOM     32  C   UNL     1      16.364   9.111   3.568  0.00  0.00    +0.030 A 
ATOM     33  C   UNL     1      16.818   9.097   5.940  0.00  0.00    +0.030 A 
ATOM     35  C   UNL     1      17.548   8.411   3.337  0.00  0.00    +0.025 A 
ATOM     36  C   UNL     1      18.002   8.396   5.710  0.00  0.00    +0.025 A 
ATOM     37  C   UNL     1      18.367   8.053   4.408  0.00  0.00    +0.033 A 
BRANCH  37  12
ATOM      8  O   UNL     1      20.945   8.007   5.962  0.00  0.00    -0.276 OA
ATOM     12  N   UNL     1      19.551   7.352   4.177  0.00  0.00    -0.286 N 
ATOM     38  C   UNL     1      20.729   7.369   4.937  0.00  0.00    +0.214 C 
ATOM     39  C   UNL     1      21.786   6.469   4.349  0.00  0.00    +0.109 C 
ATOM     42  H   UNL     1      19.550   6.757   3.351  0.00  0.00    +0.155 HD
ENDBRANCH  37  12
ENDBRANCH   1  30
ENDBRANCH  11   1
ENDBRANCH  23  11
TORSDOF 7
ENDMDL
