MODEL 1
REMARK VINA RESULT:      -6.4      0.000      0.000
REMARK  Name = 40777919
REMARK  9 active torsions:
REMARK  status: ('A' for Active; 'I' for Inactive)
REMARK    1  A    between atoms: O_2  and  C_12
REMARK    2  A    between atoms: O_3  and  C_13
REMARK    3  A    between atoms: N_6  and  C_8
REMARK    4  A    between atoms: N_7  and  C_17
REMARK    5  A    between atoms: C_11  and  C_15
REMARK    6  A    between atoms: C_14  and  C_17
REMARK    7  A    between atoms: C_15  and  C_16
REMARK    8  A    between atoms: C_18  and  C_19
REMARK    9  A    between atoms: C_24  and  C_25
REMARK                            x       y       z     vdW  Elec       q    Type
REMARK                         _______ _______ _______ _____ _____    ______ ____
ROOT
ATOM      1  O   UNL     1     -16.224   1.630  25.950  0.00  0.00    -0.366 OA
ATOM     11  C   UNL     1     -17.280   0.643  25.942  0.00  0.00    +0.158 C 
ATOM     12  C   UNL     1     -18.142   0.945  24.721  0.00  0.00    +0.175 C 
ATOM     13  C   UNL     1     -17.950   2.439  24.562  0.00  0.00    +0.176 C 
ATOM     14  C   UNL     1     -16.481   2.596  24.915  0.00  0.00    +0.167 C 
ENDROOT
BRANCH  12   2
ATOM      2  O   UNL     1     -17.586   0.252  23.605  0.00  0.00    -0.387 OA
ATOM     27  H   UNL     1     -18.162   0.422  22.841  0.00  0.00    +0.210 HD
ENDBRANCH  12   2
BRANCH  13   3
ATOM      3  O   UNL     1     -18.234   2.903  23.259  0.00  0.00    -0.387 OA
ATOM     28  H   UNL     1     -18.141   2.148  22.653  0.00  0.00    +0.210 HD
ENDBRANCH  13   3
BRANCH  11  15
ATOM     15  C   UNL     1     -18.043   0.766  27.255  0.00  0.00    +0.130 C 
BRANCH  15  16
ATOM      4  O   UNL     1     -17.343   2.394  28.905  0.00  0.00    -0.276 OA
ATOM      6  N   UNL     1     -16.189   0.387  28.737  0.00  0.00    -0.312 N 
ATOM     16  C   UNL     1     -17.177   1.295  28.383  0.00  0.00    +0.216 C 
ATOM     26  H   UNL     1     -16.130  -0.508  28.258  0.00  0.00    +0.149 HD
BRANCH   6   8
ATOM      8  C   UNL     1     -15.238   0.650  29.780  0.00  0.00    +0.073 C 
ATOM      9  C   UNL     1     -15.065  -0.300  30.928  0.00  0.00    +0.024 C 
ATOM     10  C   UNL     1     -13.978  -0.155  29.904  0.00  0.00    +0.024 C 
ENDBRANCH   6   8
ENDBRANCH  15  16
ENDBRANCH  11  15
BRANCH  14  17
ATOM     17  C   UNL     1     -16.127   3.986  25.415  0.00  0.00    +0.138 C 
BRANCH  17   7
ATOM      5  O   UNL     1     -16.762   5.537  23.084  0.00  0.00    -0.270 OA
ATOM      7  N   UNL     1     -15.196   4.630  24.537  0.00  0.00    -0.309 N 
ATOM     18  C   UNL     1     -15.593   5.367  23.424  0.00  0.00    +0.244 C 
ATOM     29  H   UNL     1     -14.211   4.486  24.731  0.00  0.00    +0.149 HD
BRANCH  18  19
ATOM     19  C   UNL     1     -14.505   5.950  22.599  0.00  0.00    +0.037 A 
ATOM     20  C   UNL     1     -14.610   7.260  22.128  0.00  0.00    +0.013 A 
ATOM     21  C   UNL     1     -13.378   5.189  22.294  0.00  0.00    +0.013 A 
ATOM     22  C   UNL     1     -13.588   7.806  21.353  0.00  0.00    +0.004 A 
ATOM     23  C   UNL     1     -12.355   5.736  21.518  0.00  0.00    +0.004 A 
ATOM     24  C   UNL     1     -12.460   7.045  21.048  0.00  0.00    -0.050 A 
ATOM     25  C   UNL     1     -11.368   7.629  20.218  0.00  0.00    +0.044 C 
ENDBRANCH  18  19
ENDBRANCH  17   7
ENDBRANCH  14  17
TORSDOF 8
ENDMDL
MODEL 2
REMARK VINA RESULT:      -6.3     19.876     21.244
REMARK  Name = 40777919
REMARK  9 active torsions:
REMARK  status: ('A' for Active; 'I' for Inactive)
REMARK    1  A    between atoms: O_2  and  C_12
REMARK    2  A    between atoms: O_3  and  C_13
REMARK    3  A    between atoms: N_6  and  C_8
REMARK    4  A    between atoms: N_7  and  C_17
REMARK    5  A    between atoms: C_11  and  C_15
REMARK    6  A    between atoms: C_14  and  C_17
REMARK    7  A    between atoms: C_15  and  C_16
REMARK    8  A    between atoms: C_18  and  C_19
REMARK    9  A    between atoms: C_24  and  C_25
REMARK                            x       y       z     vdW  Elec       q    Type
REMARK                         _______ _______ _______ _____ _____    ______ ____
ROOT
ATOM      1  O   UNL     1      -3.440 -10.168  16.492  0.00  0.00    -0.366 OA
ATOM     11  C   UNL     1      -4.743 -10.687  16.844  0.00  0.00    +0.158 C 
ATOM     12  C   UNL     1      -4.759 -12.146  16.400  0.00  0.00    +0.175 C 
ATOM     13  C   UNL     1      -3.793 -12.131  15.234  0.00  0.00    +0.176 C 
ATOM     14  C   UNL     1      -2.733 -11.162  15.728  0.00  0.00    +0.167 C 
ENDROOT
BRANCH  12   2
ATOM      2  O   UNL     1      -4.237 -12.939  17.466  0.00  0.00    -0.387 OA
ATOM     27  H   UNL     1      -3.481 -13.439  17.113  0.00  0.00    +0.210 HD
ENDBRANCH  12   2
BRANCH  13   3
ATOM      3  O   UNL     1      -3.253 -13.401  14.938  0.00  0.00    -0.387 OA
ATOM     28  H   UNL     1      -3.039 -13.832  15.784  0.00  0.00    +0.210 HD
ENDBRANCH  13   3
BRANCH  11  15
ATOM     15  C   UNL     1      -5.790  -9.837  16.136  0.00  0.00    +0.130 C 
BRANCH  15  16
ATOM      4  O   UNL     1      -7.079  -9.903  18.184  0.00  0.00    -0.276 OA
ATOM      6  N   UNL     1      -7.990  -8.883  16.308  0.00  0.00    -0.312 N 
ATOM     16  C   UNL     1      -7.001  -9.561  17.007  0.00  0.00    +0.216 C 
ATOM     26  H   UNL     1      -7.836  -8.628  15.336  0.00  0.00    +0.149 HD
BRANCH   6   8
ATOM      8  C   UNL     1      -9.236  -8.504  16.909  0.00  0.00    +0.073 C 
ATOM      9  C   UNL     1     -10.084  -7.419  16.315  0.00  0.00    +0.024 C 
ATOM     10  C   UNL     1     -10.546  -8.845  16.263  0.00  0.00    +0.024 C 
ENDBRANCH   6   8
ENDBRANCH  15  16
ENDBRANCH  11  15
BRANCH  14  17
ATOM     17  C   UNL     1      -1.961 -10.489  14.606  0.00  0.00    +0.138 C 
BRANCH  17   7
ATOM      5  O   UNL     1      -1.011  -9.644  12.033  0.00  0.00    -0.270 OA
ATOM      7  N   UNL     1      -2.654 -10.608  13.358  0.00  0.00    -0.309 N 
ATOM     18  C   UNL     1      -2.115 -10.169  12.151  0.00  0.00    +0.244 C 
ATOM     29  H   UNL     1      -3.593 -10.986  13.392  0.00  0.00    +0.149 HD
BRANCH  18  19
ATOM     19  C   UNL     1      -2.970 -10.340  10.949  0.00  0.00    +0.037 A 
ATOM     20  C   UNL     1      -3.434 -11.607  10.595  0.00  0.00    +0.013 A 
ATOM     21  C   UNL     1      -3.310  -9.232  10.173  0.00  0.00    +0.013 A 
ATOM     22  C   UNL     1      -4.235 -11.766   9.465  0.00  0.00    +0.004 A 
ATOM     23  C   UNL     1      -4.112  -9.391   9.043  0.00  0.00    +0.004 A 
ATOM     24  C   UNL     1      -4.575 -10.658   8.689  0.00  0.00    -0.050 A 
ATOM     25  C   UNL     1      -5.433 -10.828   7.481  0.00  0.00    +0.044 C 
ENDBRANCH  18  19
ENDBRANCH  17   7
ENDBRANCH  14  17
TORSDOF 8
ENDMDL
MODEL 3
REMARK VINA RESULT:      -6.3     29.208     31.868
REMARK  Name = 40777919
REMARK  9 active torsions:
REMARK  status: ('A' for Active; 'I' for Inactive)
REMARK    1  A    between atoms: O_2  and  C_12
REMARK    2  A    between atoms: O_3  and  C_13
REMARK    3  A    between atoms: N_6  and  C_8
REMARK    4  A    between atoms: N_7  and  C_17
REMARK    5  A    between atoms: C_11  and  C_15
REMARK    6  A    between atoms: C_14  and  C_17
REMARK    7  A    between atoms: C_15  and  C_16
REMARK    8  A    between atoms: C_18  and  C_19
REMARK    9  A    between atoms: C_24  and  C_25
REMARK                            x       y       z     vdW  Elec       q    Type
REMARK                         _______ _______ _______ _____ _____    ______ ____
ROOT
ATOM      1  O   UNL     1      12.628   9.647  19.091  0.00  0.00    -0.366 OA
ATOM     11  C   UNL     1      13.381  10.681  18.417  0.00  0.00    +0.158 C 
ATOM     12  C   UNL     1      13.748  10.123  17.047  0.00  0.00    +0.175 C 
ATOM     13  C   UNL     1      13.810   8.635  17.319  0.00  0.00    +0.176 C 
ATOM     14  C   UNL     1      12.653   8.454  18.287  0.00  0.00    +0.167 C 
ENDROOT
BRANCH  12   2
ATOM      2  O   UNL     1      12.680  10.418  16.148  0.00  0.00    -0.387 OA
ATOM     27  H   UNL     1      12.941  10.094  15.269  0.00  0.00    +0.210 HD
ENDBRANCH  12   2
BRANCH  13   3
ATOM      3  O   UNL     1      13.657   7.847  16.158  0.00  0.00    -0.387 OA
ATOM     28  H   UNL     1      13.337   6.972  16.438  0.00  0.00    +0.210 HD
ENDBRANCH  13   3
BRANCH  11  15
ATOM     15  C   UNL     1      14.598  11.004  19.274  0.00  0.00    +0.130 C 
BRANCH  15  16
ATOM      4  O   UNL     1      14.926  11.476  21.626  0.00  0.00    -0.276 OA
ATOM      6  N   UNL     1      12.995  12.229  20.582  0.00  0.00    -0.312 N 
ATOM     16  C   UNL     1      14.221  11.581  20.626  0.00  0.00    +0.216 C 
ATOM     26  H   UNL     1      12.481  12.278  19.705  0.00  0.00    +0.149 HD
BRANCH   6   8
ATOM      8  C   UNL     1      12.414  12.859  21.732  0.00  0.00    +0.073 C 
ATOM      9  C   UNL     1      10.969  13.264  21.748  0.00  0.00    +0.024 C 
ATOM     10  C   UNL     1      11.440  12.130  22.610  0.00  0.00    +0.024 C 
ENDBRANCH   6   8
ENDBRANCH  15  16
ENDBRANCH  11  15
BRANCH  14  17
ATOM     17  C   UNL     1      12.803   7.237  19.184  0.00  0.00    +0.138 C 
BRANCH  17   7
ATOM      5  O   UNL     1      14.558   8.080  21.294  0.00  0.00    -0.270 OA
ATOM      7  N   UNL     1      14.181   6.879  19.345  0.00  0.00    -0.309 N 
ATOM     18  C   UNL     1      14.961   7.335  20.404  0.00  0.00    +0.244 C 
ATOM     29  H   UNL     1      14.591   6.307  18.616  0.00  0.00    +0.149 HD
BRANCH  18  19
ATOM     19  C   UNL     1      16.379   6.894  20.414  0.00  0.00    +0.037 A 
ATOM     20  C   UNL     1      17.222   7.274  21.459  0.00  0.00    +0.013 A 
ATOM     21  C   UNL     1      16.869   6.100  19.378  0.00  0.00    +0.013 A 
ATOM     22  C   UNL     1      18.553   6.860  21.467  0.00  0.00    +0.004 A 
ATOM     23  C   UNL     1      18.201   5.685  19.386  0.00  0.00    +0.004 A 
ATOM     24  C   UNL     1      19.043   6.065  20.430  0.00  0.00    -0.050 A 
ATOM     25  C   UNL     1      20.467   5.623  20.439  0.00  0.00    +0.044 C 
ENDBRANCH  18  19
ENDBRANCH  17   7
ENDBRANCH  14  17
TORSDOF 8
ENDMDL
MODEL 4
REMARK VINA RESULT:      -6.1     30.612     33.839
REMARK  Name = 40777919
REMARK  9 active torsions:
REMARK  status: ('A' for Active; 'I' for Inactive)
REMARK    1  A    between atoms: O_2  and  C_12
REMARK    2  A    between atoms: O_3  and  C_13
REMARK    3  A    between atoms: N_6  and  C_8
REMARK    4  A    between atoms: N_7  and  C_17
REMARK    5  A    between atoms: C_11  and  C_15
REMARK    6  A    between atoms: C_14  and  C_17
REMARK    7  A    between atoms: C_15  and  C_16
REMARK    8  A    between atoms: C_18  and  C_19
REMARK    9  A    between atoms: C_24  and  C_25
REMARK                            x       y       z     vdW  Elec       q    Type
REMARK                         _______ _______ _______ _____ _____    ______ ____
ROOT
ATOM      1  O   UNL     1      11.057   6.890   7.395  0.00  0.00    -0.366 OA
ATOM     11  C   UNL     1       9.969   6.335   8.169  0.00  0.00    +0.158 C 
ATOM     12  C   UNL     1       9.634   4.989   7.536  0.00  0.00    +0.175 C 
ATOM     13  C   UNL     1      10.036   5.210   6.093  0.00  0.00    +0.176 C 
ATOM     14  C   UNL     1      11.292   6.050   6.252  0.00  0.00    +0.167 C 
ENDROOT
BRANCH  12   2
ATOM      2  O   UNL     1      10.468   3.999   8.137  0.00  0.00    -0.387 OA
ATOM     27  H   UNL     1      11.330   4.032   7.687  0.00  0.00    +0.210 HD
ENDBRANCH  12   2
BRANCH  13   3
ATOM      3  O   UNL     1      10.285   4.011   5.392  0.00  0.00    -0.387 OA
ATOM     28  H   UNL     1      10.372   3.300   6.049  0.00  0.00    +0.210 HD
ENDBRANCH  13   3
BRANCH  11  15
ATOM     15  C   UNL     1       8.809   7.322   8.117  0.00  0.00    +0.130 C 
BRANCH  15  16
ATOM      4  O   UNL     1       9.687   9.551   8.464  0.00  0.00    -0.276 OA
ATOM      6  N   UNL     1       9.080   8.897   6.321  0.00  0.00    -0.312 N 
ATOM     16  C   UNL     1       9.246   8.710   7.686  0.00  0.00    +0.216 C 
ATOM     26  H   UNL     1       8.716   8.140   5.748  0.00  0.00    +0.149 HD
BRANCH   6   8
ATOM      8  C   UNL     1       9.419  10.128   5.665  0.00  0.00    +0.073 C 
ATOM      9  C   UNL     1       8.853  10.471   4.319  0.00  0.00    +0.024 C 
ATOM     10  C   UNL     1       8.421  11.239   5.533  0.00  0.00    +0.024 C 
ENDBRANCH   6   8
ENDBRANCH  15  16
ENDBRANCH  11  15
BRANCH  14  17
ATOM     17  C   UNL     1      11.599   6.911   5.038  0.00  0.00    +0.138 C 
BRANCH  17   7
ATOM      5  O   UNL     1      10.143   7.012   2.566  0.00  0.00    -0.270 OA
ATOM      7  N   UNL     1      11.830   6.105   3.877  0.00  0.00    -0.309 N 
ATOM     18  C   UNL     1      11.072   6.222   2.714  0.00  0.00    +0.244 C 
ATOM     29  H   UNL     1      12.550   5.395   3.950  0.00  0.00    +0.149 HD
BRANCH  18  19
ATOM     19  C   UNL     1      11.420   5.296   1.607  0.00  0.00    +0.037 A 
ATOM     20  C   UNL     1      10.625   5.246   0.461  0.00  0.00    +0.013 A 
ATOM     21  C   UNL     1      12.542   4.474   1.712  0.00  0.00    +0.013 A 
ATOM     22  C   UNL     1      10.952   4.375  -0.578  0.00  0.00    +0.004 A 
ATOM     23  C   UNL     1      12.870   3.603   0.673  0.00  0.00    +0.004 A 
ATOM     24  C   UNL     1      12.075   3.554  -0.472  0.00  0.00    -0.050 A 
ATOM     25  C   UNL     1      12.424   2.623  -1.583  0.00  0.00    +0.044 C 
ENDBRANCH  18  19
ENDBRANCH  17   7
ENDBRANCH  14  17
TORSDOF 8
ENDMDL
MODEL 5
REMARK VINA RESULT:      -6.1     30.953     34.475
REMARK  Name = 40777919
REMARK  9 active torsions:
REMARK  status: ('A' for Active; 'I' for Inactive)
REMARK    1  A    between atoms: O_2  and  C_12
REMARK    2  A    between atoms: O_3  and  C_13
REMARK    3  A    between atoms: N_6  and  C_8
REMARK    4  A    between atoms: N_7  and  C_17
REMARK    5  A    between atoms: C_11  and  C_15
REMARK    6  A    between atoms: C_14  and  C_17
REMARK    7  A    between atoms: C_15  and  C_16
REMARK    8  A    between atoms: C_18  and  C_19
REMARK    9  A    between atoms: C_24  and  C_25
REMARK                            x       y       z     vdW  Elec       q    Type
REMARK                         _______ _______ _______ _____ _____    ______ ____
ROOT
ATOM      1  O   UNL     1      10.529   7.034   5.937  0.00  0.00    -0.366 OA
ATOM     11  C   UNL     1       9.986   6.876   7.268  0.00  0.00    +0.158 C 
ATOM     12  C   UNL     1       9.908   5.375   7.525  0.00  0.00    +0.175 C 
ATOM     13  C   UNL     1       9.726   4.825   6.126  0.00  0.00    +0.176 C 
ATOM     14  C   UNL     1      10.631   5.739   5.319  0.00  0.00    +0.167 C 
ENDROOT
BRANCH  12   2
ATOM      2  O   UNL     1      11.159   4.953   8.064  0.00  0.00    -0.387 OA
ATOM     27  H   UNL     1      10.971   4.293   8.754  0.00  0.00    +0.210 HD
ENDBRANCH  12   2
BRANCH  13   3
ATOM      3  O   UNL     1      10.098   3.469   6.005  0.00  0.00    -0.387 OA
ATOM     28  H   UNL     1       9.397   2.935   6.416  0.00  0.00    +0.210 HD
ENDBRANCH  13   3
BRANCH  11  15
ATOM     15  C   UNL     1       8.625   7.558   7.300  0.00  0.00    +0.130 C 
BRANCH  15  16
ATOM      4  O   UNL     1       9.055   9.872   6.733  0.00  0.00    -0.276 OA
ATOM      6  N   UNL     1       7.908   8.533   5.223  0.00  0.00    -0.312 N 
ATOM     16  C   UNL     1       8.570   8.789   6.415  0.00  0.00    +0.216 C 
ATOM     26  H   UNL     1       7.546   7.601   5.036  0.00  0.00    +0.149 HD
BRANCH   6   8
ATOM      8  C   UNL     1       7.722   9.536   4.214  0.00  0.00    +0.073 C 
ATOM      9  C   UNL     1       7.566   9.163   2.769  0.00  0.00    +0.024 C 
ATOM     10  C   UNL     1       6.399   9.716   3.531  0.00  0.00    +0.024 C 
ENDBRANCH   6   8
ENDBRANCH  15  16
ENDBRANCH  11  15
BRANCH  14  17
ATOM     17  C   UNL     1      10.237   5.839   3.855  0.00  0.00    +0.138 C 
BRANCH  17   7
ATOM      5  O   UNL     1      11.267   3.426   2.690  0.00  0.00    -0.270 OA
ATOM      7  N   UNL     1      11.383   5.723   3.002  0.00  0.00    -0.309 N 
ATOM     18  C   UNL     1      11.813   4.507   2.478  0.00  0.00    +0.244 C 
ATOM     29  H   UNL     1      11.910   6.571   2.828  0.00  0.00    +0.149 HD
BRANCH  18  19
ATOM     19  C   UNL     1      13.032   4.549   1.632  0.00  0.00    +0.037 A 
ATOM     20  C   UNL     1      13.990   3.539   1.733  0.00  0.00    +0.013 A 
ATOM     21  C   UNL     1      13.221   5.600   0.735  0.00  0.00    +0.013 A 
ATOM     22  C   UNL     1      15.135   3.581   0.938  0.00  0.00    +0.004 A 
ATOM     23  C   UNL     1      14.367   5.642  -0.061  0.00  0.00    +0.004 A 
ATOM     24  C   UNL     1      15.323   4.632   0.041  0.00  0.00    -0.050 A 
ATOM     25  C   UNL     1      16.548   4.677  -0.808  0.00  0.00    +0.044 C 
ENDBRANCH  18  19
ENDBRANCH  17   7
ENDBRANCH  14  17
TORSDOF 8
ENDMDL
MODEL 6
REMARK VINA RESULT:      -6.1     18.893     20.194
REMARK  Name = 40777919
REMARK  9 active torsions:
REMARK  status: ('A' for Active; 'I' for Inactive)
REMARK    1  A    between atoms: O_2  and  C_12
REMARK    2  A    between atoms: O_3  and  C_13
REMARK    3  A    between atoms: N_6  and  C_8
REMARK    4  A    between atoms: N_7  and  C_17
REMARK    5  A    between atoms: C_11  and  C_15
REMARK    6  A    between atoms: C_14  and  C_17
REMARK    7  A    between atoms: C_15  and  C_16
REMARK    8  A    between atoms: C_18  and  C_19
REMARK    9  A    between atoms: C_24  and  C_25
REMARK                            x       y       z     vdW  Elec       q    Type
REMARK                         _______ _______ _______ _____ _____    ______ ____
ROOT
ATOM      1  O   UNL     1      -4.828 -10.654  18.195  0.00  0.00    -0.366 OA
ATOM     11  C   UNL     1      -6.211 -11.028  17.998  0.00  0.00    +0.158 C 
ATOM     12  C   UNL     1      -6.195 -12.356  17.250  0.00  0.00    +0.175 C 
ATOM     13  C   UNL     1      -4.897 -12.265  16.475  0.00  0.00    +0.176 C 
ATOM     14  C   UNL     1      -3.989 -11.579  17.481  0.00  0.00    +0.167 C 
ENDROOT
BRANCH  12   2
ATOM      2  O   UNL     1      -6.126 -13.406  18.214  0.00  0.00    -0.387 OA
ATOM     27  H   UNL     1      -6.428 -13.042  19.063  0.00  0.00    +0.210 HD
ENDBRANCH  12   2
BRANCH  13   3
ATOM      3  O   UNL     1      -4.394 -13.524  16.079  0.00  0.00    -0.387 OA
ATOM     28  H   UNL     1      -5.087 -13.965  15.559  0.00  0.00    +0.210 HD
ENDBRANCH  13   3
BRANCH  11  15
ATOM     15  C   UNL     1      -6.889  -9.910  17.215  0.00  0.00    +0.130 C 
BRANCH  15  16
ATOM      4  O   UNL     1      -8.970 -10.508  18.298  0.00  0.00    -0.276 OA
ATOM      6  N   UNL     1      -8.815  -8.473  17.193  0.00  0.00    -0.312 N 
ATOM     16  C   UNL     1      -8.329  -9.693  17.640  0.00  0.00    +0.216 C 
ATOM     26  H   UNL     1      -8.210  -7.852  16.662  0.00  0.00    +0.149 HD
BRANCH   6   8
ATOM      8  C   UNL     1     -10.153  -8.030  17.463  0.00  0.00    +0.073 C 
ATOM      9  C   UNL     1     -10.836  -7.035  16.572  0.00  0.00    +0.024 C 
ATOM     10  C   UNL     1     -11.304  -8.460  16.602  0.00  0.00    +0.024 C 
ENDBRANCH   6   8
ENDBRANCH  15  16
ENDBRANCH  11  15
BRANCH  14  17
ATOM     17  C   UNL     1      -2.835 -10.830  16.838  0.00  0.00    +0.138 C 
BRANCH  17   7
ATOM      5  O   UNL     1      -1.449 -11.694  14.476  0.00  0.00    -0.270 OA
ATOM      7  N   UNL     1      -3.142 -10.469  15.486  0.00  0.00    -0.309 N 
ATOM     18  C   UNL     1      -2.414 -10.937  14.395  0.00  0.00    +0.244 C 
ATOM     29  H   UNL     1      -3.896  -9.804  15.352  0.00  0.00    +0.149 HD
BRANCH  18  19
ATOM     19  C   UNL     1      -2.842 -10.448  13.060  0.00  0.00    +0.037 A 
ATOM     20  C   UNL     1      -1.888 -10.099  12.104  0.00  0.00    +0.013 A 
ATOM     21  C   UNL     1      -4.200 -10.339  12.761  0.00  0.00    +0.013 A 
ATOM     22  C   UNL     1      -2.292  -9.639  10.851  0.00  0.00    +0.004 A 
ATOM     23  C   UNL     1      -4.604  -9.879  11.507  0.00  0.00    +0.004 A 
ATOM     24  C   UNL     1      -3.650  -9.530  10.552  0.00  0.00    -0.050 A 
ATOM     25  C   UNL     1      -4.081  -9.038   9.212  0.00  0.00    +0.044 C 
ENDBRANCH  18  19
ENDBRANCH  17   7
ENDBRANCH  14  17
TORSDOF 8
ENDMDL
MODEL 7
REMARK VINA RESULT:      -6.1     18.746     20.059
REMARK  Name = 40777919
REMARK  9 active torsions:
REMARK  status: ('A' for Active; 'I' for Inactive)
REMARK    1  A    between atoms: O_2  and  C_12
REMARK    2  A    between atoms: O_3  and  C_13
REMARK    3  A    between atoms: N_6  and  C_8
REMARK    4  A    between atoms: N_7  and  C_17
REMARK    5  A    between atoms: C_11  and  C_15
REMARK    6  A    between atoms: C_14  and  C_17
REMARK    7  A    between atoms: C_15  and  C_16
REMARK    8  A    between atoms: C_18  and  C_19
REMARK    9  A    between atoms: C_24  and  C_25
REMARK                            x       y       z     vdW  Elec       q    Type
REMARK                         _______ _______ _______ _____ _____    ______ ____
ROOT
ATOM      1  O   UNL     1      -6.484 -11.651  17.150  0.00  0.00    -0.366 OA
ATOM     11  C   UNL     1      -5.858 -12.287  18.288  0.00  0.00    +0.158 C 
ATOM     12  C   UNL     1      -6.817 -12.110  19.460  0.00  0.00    +0.175 C 
ATOM     13  C   UNL     1      -7.525 -10.822  19.096  0.00  0.00    +0.176 C 
ATOM     14  C   UNL     1      -7.671 -10.970  17.592  0.00  0.00    +0.167 C 
ENDROOT
BRANCH  12   2
ATOM      2  O   UNL     1      -7.736 -13.202  19.449  0.00  0.00    -0.387 OA
ATOM     27  H   UNL     1      -7.620 -13.689  20.283  0.00  0.00    +0.210 HD
ENDBRANCH  12   2
BRANCH  13   3
ATOM      3  O   UNL     1      -8.774 -10.671  19.737  0.00  0.00    -0.387 OA
ATOM     28  H   UNL     1      -9.417 -11.222  19.259  0.00  0.00    +0.210 HD
ENDBRANCH  13   3
BRANCH  11  15
ATOM     15  C   UNL     1      -4.510 -11.615  18.515  0.00  0.00    +0.130 C 
BRANCH  15  16
ATOM      4  O   UNL     1      -4.339  -9.749  16.981  0.00  0.00    -0.276 OA
ATOM      6  N   UNL     1      -3.134 -11.685  16.544  0.00  0.00    -0.312 N 
ATOM     16  C   UNL     1      -4.005 -10.893  17.279  0.00  0.00    +0.216 C 
ATOM     26  H   UNL     1      -2.904 -12.620  16.871  0.00  0.00    +0.149 HD
BRANCH   6   8
ATOM      8  C   UNL     1      -2.519 -11.232  15.330  0.00  0.00    +0.073 C 
ATOM      9  C   UNL     1      -1.066 -10.860  15.289  0.00  0.00    +0.024 C 
ATOM     10  C   UNL     1      -1.544 -12.094  14.584  0.00  0.00    +0.024 C 
ENDBRANCH   6   8
ENDBRANCH  15  16
ENDBRANCH  11  15
BRANCH  14  17
ATOM     17  C   UNL     1      -7.797  -9.642  16.865  0.00  0.00    +0.138 C 
BRANCH  17   7
ATOM      5  O   UNL     1      -8.591 -10.097  14.144  0.00  0.00    -0.270 OA
ATOM      7  N   UNL     1      -6.952  -9.602  15.709  0.00  0.00    -0.309 N 
ATOM     18  C   UNL     1      -7.423  -9.836  14.420  0.00  0.00    +0.244 C 
ATOM     29  H   UNL     1      -5.964  -9.441  15.872  0.00  0.00    +0.149 HD
BRANCH  18  19
ATOM     19  C   UNL     1      -6.415  -9.784  13.332  0.00  0.00    +0.037 A 
ATOM     20  C   UNL     1      -5.284 -10.600  13.386  0.00  0.00    +0.013 A 
ATOM     21  C   UNL     1      -6.598  -8.918  12.253  0.00  0.00    +0.013 A 
ATOM     22  C   UNL     1      -4.337 -10.549  12.363  0.00  0.00    +0.004 A 
ATOM     23  C   UNL     1      -5.651  -8.868  11.230  0.00  0.00    +0.004 A 
ATOM     24  C   UNL     1      -4.521  -9.683  11.285  0.00  0.00    -0.050 A 
ATOM     25  C   UNL     1      -3.508  -9.630  10.192  0.00  0.00    +0.044 C 
ENDBRANCH  18  19
ENDBRANCH  17   7
ENDBRANCH  14  17
TORSDOF 8
ENDMDL
MODEL 8
REMARK VINA RESULT:      -6.0      1.875      2.537
REMARK  Name = 40777919
REMARK  9 active torsions:
REMARK  status: ('A' for Active; 'I' for Inactive)
REMARK    1  A    between atoms: O_2  and  C_12
REMARK    2  A    between atoms: O_3  and  C_13
REMARK    3  A    between atoms: N_6  and  C_8
REMARK    4  A    between atoms: N_7  and  C_17
REMARK    5  A    between atoms: C_11  and  C_15
REMARK    6  A    between atoms: C_14  and  C_17
REMARK    7  A    between atoms: C_15  and  C_16
REMARK    8  A    between atoms: C_18  and  C_19
REMARK    9  A    between atoms: C_24  and  C_25
REMARK                            x       y       z     vdW  Elec       q    Type
REMARK                         _______ _______ _______ _____ _____    ______ ____
ROOT
ATOM      1  O   UNL     1     -15.840   2.680  24.677  0.00  0.00    -0.366 OA
ATOM     11  C   UNL     1     -17.175   2.128  24.611  0.00  0.00    +0.158 C 
ATOM     12  C   UNL     1     -17.740   2.531  23.254  0.00  0.00    +0.175 C 
ATOM     13  C   UNL     1     -17.006   3.827  22.979  0.00  0.00    +0.176 C 
ATOM     14  C   UNL     1     -15.624   3.516  23.527  0.00  0.00    +0.167 C 
ENDROOT
BRANCH  12   2
ATOM      2  O   UNL     1     -17.361   1.536  22.303  0.00  0.00    -0.387 OA
ATOM     27  H   UNL     1     -17.892   0.743  22.486  0.00  0.00    +0.210 HD
ENDBRANCH  12   2
BRANCH  13   3
ATOM      3  O   UNL     1     -16.969   4.169  21.610  0.00  0.00    -0.387 OA
ATOM     28  H   UNL     1     -17.487   3.503  21.128  0.00  0.00    +0.210 HD
ENDBRANCH  13   3
BRANCH  11  15
ATOM     15  C   UNL     1     -17.971   2.694  25.780  0.00  0.00    +0.130 C 
BRANCH  15  16
ATOM      4  O   UNL     1     -17.063   4.724  26.736  0.00  0.00    -0.276 OA
ATOM      6  N   UNL     1     -16.393   2.673  27.593  0.00  0.00    -0.312 N 
ATOM     16  C   UNL     1     -17.109   3.497  26.736  0.00  0.00    +0.216 C 
ATOM     26  H   UNL     1     -16.501   1.664  27.531  0.00  0.00    +0.149 HD
BRANCH   6   8
ATOM      8  C   UNL     1     -15.504   3.190  28.594  0.00  0.00    +0.073 C 
ATOM      9  C   UNL     1     -15.898   3.218  30.041  0.00  0.00    +0.024 C 
ATOM     10  C   UNL     1     -14.825   2.280  29.574  0.00  0.00    +0.024 C 
ENDBRANCH   6   8
ENDBRANCH  15  16
ENDBRANCH  11  15
BRANCH  14  17
ATOM     17  C   UNL     1     -14.845   4.755  23.935  0.00  0.00    +0.138 C 
BRANCH  17   7
ATOM      5  O   UNL     1     -15.357   7.227  22.569  0.00  0.00    -0.270 OA
ATOM      7  N   UNL     1     -14.107   5.290  22.830  0.00  0.00    -0.309 N 
ATOM     18  C   UNL     1     -14.426   6.503  22.225  0.00  0.00    +0.244 C 
ATOM     29  H   UNL     1     -13.356   4.717  22.463  0.00  0.00    +0.149 HD
BRANCH  18  19
ATOM     19  C   UNL     1     -13.580   6.906  21.074  0.00  0.00    +0.037 A 
ATOM     20  C   UNL     1     -12.207   6.659  21.094  0.00  0.00    +0.013 A 
ATOM     21  C   UNL     1     -14.159   7.533  19.970  0.00  0.00    +0.013 A 
ATOM     22  C   UNL     1     -11.414   7.040  20.012  0.00  0.00    +0.004 A 
ATOM     23  C   UNL     1     -13.365   7.913  18.887  0.00  0.00    +0.004 A 
ATOM     24  C   UNL     1     -11.993   7.666  18.908  0.00  0.00    -0.050 A 
ATOM     25  C   UNL     1     -11.144   8.073  17.752  0.00  0.00    +0.044 C 
ENDBRANCH  18  19
ENDBRANCH  17   7
ENDBRANCH  14  17
TORSDOF 8
ENDMDL
MODEL 9
REMARK VINA RESULT:      -5.9     30.602     33.803
REMARK  Name = 40777919
REMARK  9 active torsions:
REMARK  status: ('A' for Active; 'I' for Inactive)
REMARK    1  A    between atoms: O_2  and  C_12
REMARK    2  A    between atoms: O_3  and  C_13
REMARK    3  A    between atoms: N_6  and  C_8
REMARK    4  A    between atoms: N_7  and  C_17
REMARK    5  A    between atoms: C_11  and  C_15
REMARK    6  A    between atoms: C_14  and  C_17
REMARK    7  A    between atoms: C_15  and  C_16
REMARK    8  A    between atoms: C_18  and  C_19
REMARK    9  A    between atoms: C_24  and  C_25
REMARK                            x       y       z     vdW  Elec       q    Type
REMARK                         _______ _______ _______ _____ _____    ______ ____
ROOT
ATOM      1  O   UNL     1       9.952   7.945   6.397  0.00  0.00    -0.366 OA
ATOM     11  C   UNL     1       8.833   7.033   6.481  0.00  0.00    +0.158 C 
ATOM     12  C   UNL     1       9.241   5.940   7.462  0.00  0.00    +0.175 C 
ATOM     13  C   UNL     1      10.746   5.916   7.300  0.00  0.00    +0.176 C 
ATOM     14  C   UNL     1      11.058   7.394   7.134  0.00  0.00    +0.167 C 
ENDROOT
BRANCH  12   2
ATOM      2  O   UNL     1       8.891   6.372   8.776  0.00  0.00    -0.387 OA
ATOM     27  H   UNL     1       7.931   6.525   8.787  0.00  0.00    +0.210 HD
ENDBRANCH  12   2
BRANCH  13   3
ATOM      3  O   UNL     1      11.420   5.354   8.406  0.00  0.00    -0.387 OA
ATOM     28  H   UNL     1      12.207   4.896   8.066  0.00  0.00    +0.210 HD
ENDBRANCH  13   3
BRANCH  11  15
ATOM     15  C   UNL     1       8.558   6.502   5.080  0.00  0.00    +0.130 C 
BRANCH  15  16
ATOM      4  O   UNL     1       8.662   7.601   2.924  0.00  0.00    -0.276 OA
ATOM      6  N   UNL     1       7.498   8.618   4.656  0.00  0.00    -0.312 N 
ATOM     16  C   UNL     1       8.263   7.610   4.086  0.00  0.00    +0.216 C 
ATOM     26  H   UNL     1       7.200   8.539   5.625  0.00  0.00    +0.149 HD
BRANCH   6   8
ATOM      8  C   UNL     1       7.084   9.780   3.923  0.00  0.00    +0.073 C 
ATOM      9  C   UNL     1       5.774  10.453   4.212  0.00  0.00    +0.024 C 
ATOM     10  C   UNL     1       7.063  11.136   4.564  0.00  0.00    +0.024 C 
ENDBRANCH   6   8
ENDBRANCH  15  16
ENDBRANCH  11  15
BRANCH  14  17
ATOM     17  C   UNL     1      12.352   7.656   6.383  0.00  0.00    +0.138 C 
BRANCH  17   7
ATOM      5  O   UNL     1      11.799   8.302   3.641  0.00  0.00    -0.270 OA
ATOM      7  N   UNL     1      12.483   6.782   5.256  0.00  0.00    -0.309 N 
ATOM     18  C   UNL     1      12.192   7.181   3.954  0.00  0.00    +0.244 C 
ATOM     29  H   UNL     1      12.754   5.825   5.450  0.00  0.00    +0.149 HD
BRANCH  18  19
ATOM     19  C   UNL     1      12.353   6.149   2.898  0.00  0.00    +0.037 A 
ATOM     20  C   UNL     1      13.369   6.272   1.950  0.00  0.00    +0.013 A 
ATOM     21  C   UNL     1      11.489   5.055   2.855  0.00  0.00    +0.013 A 
ATOM     22  C   UNL     1      13.518   5.302   0.958  0.00  0.00    +0.004 A 
ATOM     23  C   UNL     1      11.638   4.085   1.864  0.00  0.00    +0.004 A 
ATOM     24  C   UNL     1      12.654   4.209   0.916  0.00  0.00    -0.050 A 
ATOM     25  C   UNL     1      12.814   3.172  -0.144  0.00  0.00    +0.044 C 
ENDBRANCH  18  19
ENDBRANCH  17   7
ENDBRANCH  14  17
TORSDOF 8
ENDMDL
MODEL 10
REMARK VINA RESULT:      -5.9     16.912     18.337
REMARK  Name = 40777919
REMARK  9 active torsions:
REMARK  status: ('A' for Active; 'I' for Inactive)
REMARK    1  A    between atoms: O_2  and  C_12
REMARK    2  A    between atoms: O_3  and  C_13
REMARK    3  A    between atoms: N_6  and  C_8
REMARK    4  A    between atoms: N_7  and  C_17
REMARK    5  A    between atoms: C_11  and  C_15
REMARK    6  A    between atoms: C_14  and  C_17
REMARK    7  A    between atoms: C_15  and  C_16
REMARK    8  A    between atoms: C_18  and  C_19
REMARK    9  A    between atoms: C_24  and  C_25
REMARK                            x       y       z     vdW  Elec       q    Type
REMARK                         _______ _______ _______ _____ _____    ______ ____
ROOT
ATOM      1  O   UNL     1      -5.971 -10.653  18.412  0.00  0.00    -0.366 OA
ATOM     11  C   UNL     1      -5.848 -11.992  18.944  0.00  0.00    +0.158 C 
ATOM     12  C   UNL     1      -4.522 -12.540  18.429  0.00  0.00    +0.175 C 
ATOM     13  C   UNL     1      -4.359 -11.792  17.122  0.00  0.00    +0.176 C 
ATOM     14  C   UNL     1      -4.893 -10.418  17.489  0.00  0.00    +0.167 C 
ENDROOT
BRANCH  12   2
ATOM      2  O   UNL     1      -3.499 -12.160  19.348  0.00  0.00    -0.387 OA
ATOM     27  H   UNL     1      -3.427 -12.867  20.012  0.00  0.00    +0.210 HD
ENDBRANCH  12   2
BRANCH  13   3
ATOM      3  O   UNL     1      -3.022 -11.737  16.672  0.00  0.00    -0.387 OA
ATOM     28  H   UNL     1      -2.949 -12.322  15.899  0.00  0.00    +0.210 HD
ENDBRANCH  13   3
BRANCH  11  15
ATOM     15  C   UNL     1      -7.050 -12.796  18.466  0.00  0.00    +0.130 C 
BRANCH  15  16
ATOM      4  O   UNL     1      -8.555 -13.612  20.178  0.00  0.00    -0.276 OA
ATOM      6  N   UNL     1      -8.873 -11.480  19.317  0.00  0.00    -0.312 N 
ATOM     16  C   UNL     1      -8.228 -12.704  19.419  0.00  0.00    +0.216 C 
ATOM     26  H   UNL     1      -8.526 -10.778  18.668  0.00  0.00    +0.149 HD
BRANCH   6   8
ATOM      8  C   UNL     1     -10.018 -11.144  20.113  0.00  0.00    +0.073 C 
ATOM      9  C   UNL     1     -10.909  -9.994  19.745  0.00  0.00    +0.024 C 
ATOM     10  C   UNL     1     -11.411 -11.402  19.619  0.00  0.00    +0.024 C 
ENDBRANCH   6   8
ENDBRANCH  15  16
ENDBRANCH  11  15
BRANCH  14  17
ATOM     17  C   UNL     1      -5.407  -9.633  16.294  0.00  0.00    +0.138 C 
BRANCH  17   7
ATOM      5  O   UNL     1      -7.608 -11.148  15.244  0.00  0.00    -0.270 OA
ATOM      7  N   UNL     1      -6.800  -9.328  16.436  0.00  0.00    -0.309 N 
ATOM     18  C   UNL     1      -7.806 -10.122  15.892  0.00  0.00    +0.244 C 
ATOM     29  H   UNL     1      -7.031  -8.465  16.916  0.00  0.00    +0.149 HD
BRANCH  18  19
ATOM     19  C   UNL     1      -9.199  -9.656  16.104  0.00  0.00    +0.037 A 
ATOM     20  C   UNL     1     -10.269 -10.520  15.868  0.00  0.00    +0.013 A 
ATOM     21  C   UNL     1      -9.439  -8.353  16.542  0.00  0.00    +0.013 A 
ATOM     22  C   UNL     1     -11.578 -10.080  16.067  0.00  0.00    +0.004 A 
ATOM     23  C   UNL     1     -10.748  -7.914  16.741  0.00  0.00    +0.004 A 
ATOM     24  C   UNL     1     -11.817  -8.777  16.504  0.00  0.00    -0.050 A 
ATOM     25  C   UNL     1     -13.216  -8.308  16.717  0.00  0.00    +0.044 C 
ENDBRANCH  18  19
ENDBRANCH  17   7
ENDBRANCH  14  17
TORSDOF 8
ENDMDL
