MODEL 1
REMARK VINA RESULT:      -6.5      0.000      0.000
REMARK  Name = 26745474
REMARK  9 active torsions:
REMARK  status: ('A' for Active; 'I' for Inactive)
REMARK    1  A    between atoms: S_2  and  N_8
REMARK    2  A    between atoms: S_2  and  C_19
REMARK    3  A    between atoms: O_5  and  C_16
REMARK    4  A    between atoms: O_5  and  C_28
REMARK    5  A    between atoms: N_9  and  C_17
REMARK    6  A    between atoms: C_11  and  C_16
REMARK    7  A    between atoms: C_17  and  C_20
REMARK    8  A    between atoms: C_27  and  C_32
REMARK    9  A    between atoms: C_32  and  C_33
REMARK                            x       y       z     vdW  Elec       q    Type
REMARK                         _______ _______ _______ _____ _____    ______ ____
ROOT
ATOM      8  N   UNL     1     -11.700   9.016  17.498  0.00  0.00    -0.157 NA
ATOM      9  N   UNL     1     -14.229   8.367  14.821  0.00  0.00    -0.328 N 
ATOM     10  N   UNL     1     -12.464   7.686  13.632  0.00  0.00    -0.240 NA
ATOM     11  C   UNL     1     -10.551   9.203  16.541  0.00  0.00    +0.194 C 
ATOM     12  C   UNL     1     -13.083   9.222  16.931  0.00  0.00    +0.165 C 
ATOM     13  C   UNL     1     -10.664   8.269  15.317  0.00  0.00    +0.089 C 
ATOM     14  C   UNL     1     -13.132   8.612  15.589  0.00  0.00    +0.057 A 
ATOM     15  C   UNL     1     -12.061   8.190  14.838  0.00  0.00    +0.066 A 
ATOM     18  C   UNL     1     -13.777   7.808  13.652  0.00  0.00    +0.200 A 
ENDROOT
BRANCH   8   2
ATOM      2  S   UNL     1     -11.469   9.594  19.095  0.00  0.00    +0.062 S 
ATOM      3  O   UNL     1     -12.214  10.822  19.263  0.00  0.00    -0.153 OA
ATOM      4  O   UNL     1     -10.061   9.524  19.419  0.00  0.00    -0.153 OA
BRANCH   2  19
ATOM     19  C   UNL     1     -12.300   8.328  20.003  0.00  0.00    +0.106 A 
ATOM     21  C   UNL     1     -11.581   7.242  20.501  0.00  0.00    +0.029 A 
ATOM     22  C   UNL     1     -13.675   8.413  20.218  0.00  0.00    +0.029 A 
ATOM     23  C   UNL     1     -12.238   6.240  21.216  0.00  0.00    +0.013 A 
ATOM     24  C   UNL     1     -14.332   7.411  20.934  0.00  0.00    +0.013 A 
ATOM     27  C   UNL     1     -13.613   6.325  21.433  0.00  0.00    +0.017 A 
BRANCH  27  32
ATOM      7  O   UNL     1     -15.355   4.769  21.759  0.00  0.00    -0.292 OA
ATOM     32  C   UNL     1     -14.298   5.281  22.177  0.00  0.00    +0.160 C 
ATOM     33  C   UNL     1     -13.731   4.784  23.505  0.00  0.00    +0.091 C 
ENDBRANCH  27  32
ENDBRANCH   2  19
ENDBRANCH   8   2
BRANCH  11  16
ATOM      6  O   UNL     1     -11.269  11.180  15.375  0.00  0.00    -0.249 OA
ATOM     16  C   UNL     1     -10.482  10.643  16.143  0.00  0.00    +0.326 C 
BRANCH  16   5
ATOM      5  O   UNL     1      -9.424  11.237  16.764  0.00  0.00    -0.467 OA
ATOM     28  C   UNL     1      -9.695  12.512  17.357  0.00  0.00    +0.280 C 
ENDBRANCH  16   5
ENDBRANCH  11  16
BRANCH   9  17
ATOM     17  C   UNL     1     -15.606   8.642  15.152  0.00  0.00    +0.158 C 
BRANCH  17  20
ATOM      1 CL   UNL     1     -18.085   4.463  18.703  0.00  0.00    -0.084 Cl
ATOM     20  C   UNL     1     -16.228   7.595  16.042  0.00  0.00    -0.028 A 
ATOM     25  C   UNL     1     -16.744   6.425  15.487  0.00  0.00    +0.007 A 
ATOM     26  C   UNL     1     -16.286   7.797  17.422  0.00  0.00    +0.007 A 
ATOM     29  C   UNL     1     -17.319   5.457  16.309  0.00  0.00    +0.020 A 
ATOM     30  C   UNL     1     -16.862   6.829  18.244  0.00  0.00    +0.020 A 
ATOM     31  C   UNL     1     -17.377   5.659  17.689  0.00  0.00    +0.041 A 
ENDBRANCH  17  20
ENDBRANCH   9  17
TORSDOF 7
ENDMDL
MODEL 2
REMARK VINA RESULT:      -6.4     27.070     30.582
REMARK  Name = 26745474
REMARK  9 active torsions:
REMARK  status: ('A' for Active; 'I' for Inactive)
REMARK    1  A    between atoms: S_2  and  N_8
REMARK    2  A    between atoms: S_2  and  C_19
REMARK    3  A    between atoms: O_5  and  C_16
REMARK    4  A    between atoms: O_5  and  C_28
REMARK    5  A    between atoms: N_9  and  C_17
REMARK    6  A    between atoms: C_11  and  C_16
REMARK    7  A    between atoms: C_17  and  C_20
REMARK    8  A    between atoms: C_27  and  C_32
REMARK    9  A    between atoms: C_32  and  C_33
REMARK                            x       y       z     vdW  Elec       q    Type
REMARK                         _______ _______ _______ _____ _____    ______ ____
ROOT
ATOM      8  N   UNL     1      11.676   6.297   5.404  0.00  0.00    -0.157 NA
ATOM      9  N   UNL     1      14.762   8.068   4.252  0.00  0.00    -0.328 N 
ATOM     10  N   UNL     1      15.482   7.691   6.334  0.00  0.00    -0.240 NA
ATOM     11  C   UNL     1      11.871   6.640   6.859  0.00  0.00    +0.194 C 
ATOM     12  C   UNL     1      12.374   7.188   4.406  0.00  0.00    +0.165 C 
ATOM     13  C   UNL     1      13.364   6.649   7.252  0.00  0.00    +0.089 C 
ATOM     14  C   UNL     1      13.723   7.494   4.920  0.00  0.00    +0.057 A 
ATOM     15  C   UNL     1      14.187   7.276   6.195  0.00  0.00    +0.066 A 
ATOM     18  C   UNL     1      15.801   8.165   5.145  0.00  0.00    +0.200 A 
ENDROOT
BRANCH   8   2
ATOM      2  S   UNL     1      10.112   5.768   4.945  0.00  0.00    +0.062 S 
ATOM      3  O   UNL     1       9.231   6.914   4.869  0.00  0.00    -0.153 OA
ATOM      4  O   UNL     1       9.760   4.606   5.731  0.00  0.00    -0.153 OA
BRANCH   2  19
ATOM     19  C   UNL     1      10.442   5.230   3.296  0.00  0.00    +0.106 A 
ATOM     21  C   UNL     1       9.976   5.976   2.213  0.00  0.00    +0.029 A 
ATOM     22  C   UNL     1      11.164   4.058   3.076  0.00  0.00    +0.029 A 
ATOM     23  C   UNL     1      10.235   5.550   0.910  0.00  0.00    +0.013 A 
ATOM     24  C   UNL     1      11.423   3.632   1.773  0.00  0.00    +0.013 A 
ATOM     27  C   UNL     1      10.958   4.378   0.690  0.00  0.00    +0.017 A 
BRANCH  27  32
ATOM      7  O   UNL     1      10.366   4.025  -1.565  0.00  0.00    -0.292 OA
ATOM     32  C   UNL     1      11.226   3.933  -0.667  0.00  0.00    +0.160 C 
ATOM     33  C   UNL     1      12.583   3.333  -1.026  0.00  0.00    +0.091 C 
ENDBRANCH  27  32
ENDBRANCH   2  19
ENDBRANCH   8   2
BRANCH  11  16
ATOM      6  O   UNL     1      11.621   9.028   6.729  0.00  0.00    -0.249 OA
ATOM     16  C   UNL     1      11.209   7.951   7.140  0.00  0.00    +0.326 C 
BRANCH  16   5
ATOM      5  O   UNL     1      10.102   7.748   7.908  0.00  0.00    -0.467 OA
ATOM     28  C   UNL     1       9.132   8.801   7.881  0.00  0.00    +0.280 C 
ENDBRANCH  16   5
ENDBRANCH  11  16
BRANCH   9  17
ATOM     17  C   UNL     1      14.783   8.502   2.877  0.00  0.00    +0.158 C 
BRANCH  17  20
ATOM      1 CL   UNL     1      16.527   4.201  -0.956  0.00  0.00    -0.084 Cl
ATOM     20  C   UNL     1      15.219   7.425   1.916  0.00  0.00    -0.028 A 
ATOM     25  C   UNL     1      16.296   7.649   1.059  0.00  0.00    +0.007 A 
ATOM     26  C   UNL     1      14.546   6.202   1.884  0.00  0.00    +0.007 A 
ATOM     29  C   UNL     1      16.700   6.653   0.170  0.00  0.00    +0.020 A 
ATOM     30  C   UNL     1      14.950   5.207   0.996  0.00  0.00    +0.020 A 
ATOM     31  C   UNL     1      16.027   5.431   0.139  0.00  0.00    +0.041 A 
ENDBRANCH  17  20
ENDBRANCH   9  17
TORSDOF 7
ENDMDL
MODEL 3
REMARK VINA RESULT:      -6.3     26.551     29.851
REMARK  Name = 26745474
REMARK  9 active torsions:
REMARK  status: ('A' for Active; 'I' for Inactive)
REMARK    1  A    between atoms: S_2  and  N_8
REMARK    2  A    between atoms: S_2  and  C_19
REMARK    3  A    between atoms: O_5  and  C_16
REMARK    4  A    between atoms: O_5  and  C_28
REMARK    5  A    between atoms: N_9  and  C_17
REMARK    6  A    between atoms: C_11  and  C_16
REMARK    7  A    between atoms: C_17  and  C_20
REMARK    8  A    between atoms: C_27  and  C_32
REMARK    9  A    between atoms: C_32  and  C_33
REMARK                            x       y       z     vdW  Elec       q    Type
REMARK                         _______ _______ _______ _____ _____    ______ ____
ROOT
ATOM      8  N   UNL     1      12.107   5.347   1.605  0.00  0.00    -0.157 NA
ATOM      9  N   UNL     1      14.986   7.404   2.815  0.00  0.00    -0.328 N 
ATOM     10  N   UNL     1      15.167   8.004   0.669  0.00  0.00    -0.240 NA
ATOM     11  C   UNL     1      12.628   5.220   0.196  0.00  0.00    +0.194 C 
ATOM     12  C   UNL     1      13.127   5.666   2.670  0.00  0.00    +0.165 C 
ATOM     13  C   UNL     1      13.355   6.501  -0.266  0.00  0.00    +0.089 C 
ATOM     14  C   UNL     1      14.061   6.673   2.132  0.00  0.00    +0.057 A 
ATOM     15  C   UNL     1      14.194   7.055   0.819  0.00  0.00    +0.066 A 
ATOM     18  C   UNL     1      15.627   8.192   1.891  0.00  0.00    +0.200 A 
ENDROOT
BRANCH   8   2
ATOM      2  S   UNL     1      10.881   4.244   2.071  0.00  0.00    +0.062 S 
ATOM      3  O   UNL     1      11.500   3.015   2.519  0.00  0.00    -0.153 OA
ATOM      4  O   UNL     1       9.849   4.234   1.058  0.00  0.00    -0.153 OA
BRANCH   2  19
ATOM     19  C   UNL     1      10.242   5.076   3.491  0.00  0.00    +0.106 A 
ATOM     21  C   UNL     1       9.766   6.382   3.376  0.00  0.00    +0.029 A 
ATOM     22  C   UNL     1      10.216   4.430   4.725  0.00  0.00    +0.029 A 
ATOM     23  C   UNL     1       9.263   7.041   4.498  0.00  0.00    +0.013 A 
ATOM     24  C   UNL     1       9.713   5.089   5.848  0.00  0.00    +0.013 A 
ATOM     27  C   UNL     1       9.236   6.395   5.734  0.00  0.00    +0.017 A 
BRANCH  27  32
ATOM      7  O   UNL     1       7.908   8.028   6.797  0.00  0.00    -0.292 OA
ATOM     32  C   UNL     1       8.713   7.082   6.903  0.00  0.00    +0.160 C 
ATOM     33  C   UNL     1       9.146   6.656   8.303  0.00  0.00    +0.091 C 
ENDBRANCH  27  32
ENDBRANCH   2  19
ENDBRANCH   8   2
BRANCH  11  16
ATOM      6  O   UNL     1      14.650   3.969   0.551  0.00  0.00    -0.249 OA
ATOM     16  C   UNL     1      13.508   4.014   0.113  0.00  0.00    +0.326 C 
BRANCH  16   5
ATOM      5  O   UNL     1      12.842   3.005  -0.516  0.00  0.00    -0.467 OA
ATOM     28  C   UNL     1      11.979   3.410  -1.584  0.00  0.00    +0.280 C 
ENDBRANCH  16   5
ENDBRANCH  11  16
BRANCH   9  17
ATOM     17  C   UNL     1      15.259   7.365   4.230  0.00  0.00    +0.158 C 
BRANCH  17  20
ATOM      1 CL   UNL     1      10.882   9.790   7.575  0.00  0.00    -0.084 Cl
ATOM     20  C   UNL     1      14.161   7.972   5.068  0.00  0.00    -0.028 A 
ATOM     25  C   UNL     1      13.554   7.221   6.073  0.00  0.00    +0.007 A 
ATOM     26  C   UNL     1      13.753   9.288   4.837  0.00  0.00    +0.007 A 
ATOM     29  C   UNL     1      12.539   7.782   6.848  0.00  0.00    +0.020 A 
ATOM     30  C   UNL     1      12.739   9.848   5.612  0.00  0.00    +0.020 A 
ATOM     31  C   UNL     1      12.132   9.097   6.617  0.00  0.00    +0.041 A 
ENDBRANCH  17  20
ENDBRANCH   9  17
TORSDOF 7
ENDMDL
MODEL 4
REMARK VINA RESULT:      -6.2     26.153     29.570
REMARK  Name = 26745474
REMARK  9 active torsions:
REMARK  status: ('A' for Active; 'I' for Inactive)
REMARK    1  A    between atoms: S_2  and  N_8
REMARK    2  A    between atoms: S_2  and  C_19
REMARK    3  A    between atoms: O_5  and  C_16
REMARK    4  A    between atoms: O_5  and  C_28
REMARK    5  A    between atoms: N_9  and  C_17
REMARK    6  A    between atoms: C_11  and  C_16
REMARK    7  A    between atoms: C_17  and  C_20
REMARK    8  A    between atoms: C_27  and  C_32
REMARK    9  A    between atoms: C_32  and  C_33
REMARK                            x       y       z     vdW  Elec       q    Type
REMARK                         _______ _______ _______ _____ _____    ______ ____
ROOT
ATOM      8  N   UNL     1      13.821   8.919  19.846  0.00  0.00    -0.157 NA
ATOM      9  N   UNL     1      13.768  12.539  18.907  0.00  0.00    -0.328 N 
ATOM     10  N   UNL     1      13.160  12.849  21.036  0.00  0.00    -0.240 NA
ATOM     11  C   UNL     1      12.826   9.067  20.968  0.00  0.00    +0.194 C 
ATOM     12  C   UNL     1      13.798   9.993  18.786  0.00  0.00    +0.165 C 
ATOM     13  C   UNL     1      12.988  10.413  21.707  0.00  0.00    +0.089 C 
ATOM     14  C   UNL     1      13.620  11.298  19.450  0.00  0.00    +0.057 A 
ATOM     15  C   UNL     1      13.243  11.514  20.753  0.00  0.00    +0.066 A 
ATOM     18  C   UNL     1      13.481  13.441  19.901  0.00  0.00    +0.200 A 
ENDROOT
BRANCH   8   2
ATOM      2  S   UNL     1      14.097   7.328  19.272  0.00  0.00    +0.062 S 
ATOM      3  O   UNL     1      14.045   7.334  17.826  0.00  0.00    -0.153 OA
ATOM      4  O   UNL     1      13.295   6.405  20.044  0.00  0.00    -0.153 OA
BRANCH   2  19
ATOM     19  C   UNL     1      15.783   7.117  19.752  0.00  0.00    +0.106 A 
ATOM     21  C   UNL     1      16.334   7.936  20.737  0.00  0.00    +0.029 A 
ATOM     22  C   UNL     1      16.563   6.135  19.144  0.00  0.00    +0.029 A 
ATOM     23  C   UNL     1      17.667   7.771  21.115  0.00  0.00    +0.013 A 
ATOM     24  C   UNL     1      17.896   5.970  19.521  0.00  0.00    +0.013 A 
ATOM     27  C   UNL     1      18.448   6.788  20.508  0.00  0.00    +0.017 A 
BRANCH  27  32
ATOM      7  O   UNL     1      20.475   7.532  21.456  0.00  0.00    -0.292 OA
ATOM     32  C   UNL     1      19.837   6.617  20.900  0.00  0.00    +0.160 C 
ATOM     33  C   UNL     1      20.555   5.296  20.634  0.00  0.00    +0.091 C 
ENDBRANCH  27  32
ENDBRANCH   2  19
ENDBRANCH   8   2
BRANCH  11  16
ATOM      6  O   UNL     1      11.185   8.861  19.224  0.00  0.00    -0.249 OA
ATOM     16  C   UNL     1      11.446   8.892  20.419  0.00  0.00    +0.326 C 
BRANCH  16   5
ATOM      5  O   UNL     1      10.557   8.776  21.445  0.00  0.00    -0.467 OA
ATOM     28  C   UNL     1      10.546   7.507  22.109  0.00  0.00    +0.280 C 
ENDBRANCH  16   5
ENDBRANCH  11  16
BRANCH   9  17
ATOM     17  C   UNL     1      14.145  12.861  17.553  0.00  0.00    +0.158 C 
BRANCH  17  20
ATOM      1 CL   UNL     1      20.097  12.827  16.659  0.00  0.00    -0.084 Cl
ATOM     20  C   UNL     1      15.636  12.854  17.329  0.00  0.00    -0.028 A 
ATOM     25  C   UNL     1      16.505  12.969  18.413  0.00  0.00    +0.007 A 
ATOM     26  C   UNL     1      16.147  12.730  16.036  0.00  0.00    +0.007 A 
ATOM     29  C   UNL     1      17.884  12.962  18.206  0.00  0.00    +0.020 A 
ATOM     30  C   UNL     1      17.526  12.724  15.829  0.00  0.00    +0.020 A 
ATOM     31  C   UNL     1      18.395  12.839  16.913  0.00  0.00    +0.041 A 
ENDBRANCH  17  20
ENDBRANCH   9  17
TORSDOF 7
ENDMDL
MODEL 5
REMARK VINA RESULT:      -6.1     18.841     20.766
REMARK  Name = 26745474
REMARK  9 active torsions:
REMARK  status: ('A' for Active; 'I' for Inactive)
REMARK    1  A    between atoms: S_2  and  N_8
REMARK    2  A    between atoms: S_2  and  C_19
REMARK    3  A    between atoms: O_5  and  C_16
REMARK    4  A    between atoms: O_5  and  C_28
REMARK    5  A    between atoms: N_9  and  C_17
REMARK    6  A    between atoms: C_11  and  C_16
REMARK    7  A    between atoms: C_17  and  C_20
REMARK    8  A    between atoms: C_27  and  C_32
REMARK    9  A    between atoms: C_32  and  C_33
REMARK                            x       y       z     vdW  Elec       q    Type
REMARK                         _______ _______ _______ _____ _____    ______ ____
ROOT
ATOM      8  N   UNL     1      -8.392 -10.560  17.828  0.00  0.00    -0.157 NA
ATOM      9  N   UNL     1      -9.802 -10.053  14.401  0.00  0.00    -0.328 N 
ATOM     10  N   UNL     1     -10.933  -8.381  15.360  0.00  0.00    -0.240 NA
ATOM     11  C   UNL     1      -9.571  -9.948  18.539  0.00  0.00    +0.194 C 
ATOM     12  C   UNL     1      -8.645 -11.073  16.431  0.00  0.00    +0.165 C 
ATOM     13  C   UNL     1     -10.173  -8.769  17.745  0.00  0.00    +0.089 C 
ATOM     14  C   UNL     1      -9.512 -10.106  15.731  0.00  0.00    +0.057 A 
ATOM     15  C   UNL     1     -10.220  -9.074  16.298  0.00  0.00    +0.066 A 
ATOM     18  C   UNL     1     -10.661  -8.997  14.225  0.00  0.00    +0.200 A 
ENDROOT
BRANCH   8   2
ATOM      2  S   UNL     1      -7.335 -11.517  18.779  0.00  0.00    +0.062 S 
ATOM      3  O   UNL     1      -7.839 -12.873  18.823  0.00  0.00    -0.153 OA
ATOM      4  O   UNL     1      -7.017 -10.798  19.993  0.00  0.00    -0.153 OA
BRANCH   2  19
ATOM     19  C   UNL     1      -5.901 -11.507  17.749  0.00  0.00    +0.106 A 
ATOM     21  C   UNL     1      -5.204 -10.317  17.537  0.00  0.00    +0.029 A 
ATOM     22  C   UNL     1      -5.467 -12.686  17.147  0.00  0.00    +0.029 A 
ATOM     23  C   UNL     1      -4.072 -10.308  16.722  0.00  0.00    +0.013 A 
ATOM     24  C   UNL     1      -4.335 -12.678  16.331  0.00  0.00    +0.013 A 
ATOM     27  C   UNL     1      -3.637 -11.488  16.119  0.00  0.00    +0.017 A 
BRANCH  27  32
ATOM      7  O   UNL     1      -2.232 -12.400  14.459  0.00  0.00    -0.292 OA
ATOM     32  C   UNL     1      -2.458 -11.479  15.268  0.00  0.00    +0.160 C 
ATOM     33  C   UNL     1      -1.459 -10.328  15.351  0.00  0.00    +0.091 C 
ENDBRANCH  27  32
ENDBRANCH   2  19
ENDBRANCH   8   2
BRANCH  11  16
ATOM      6  O   UNL     1     -11.316 -11.495  17.958  0.00  0.00    -0.249 OA
ATOM     16  C   UNL     1     -10.581 -11.016  18.811  0.00  0.00    +0.326 C 
BRANCH  16   5
ATOM      5  O   UNL     1     -10.544 -11.355  20.130  0.00  0.00    -0.467 OA
ATOM     28  C   UNL     1     -10.928 -12.702  20.430  0.00  0.00    +0.280 C 
ENDBRANCH  16   5
ENDBRANCH  11  16
BRANCH   9  17
ATOM     17  C   UNL     1      -9.317 -10.933  13.366  0.00  0.00    +0.158 C 
BRANCH  17  20
ATOM      1 CL   UNL     1      -3.488 -10.133  12.097  0.00  0.00    -0.084 Cl
ATOM     20  C   UNL     1      -7.857 -10.733  13.047  0.00  0.00    -0.028 A 
ATOM     25  C   UNL     1      -7.415  -9.515  12.531  0.00  0.00    +0.007 A 
ATOM     26  C   UNL     1      -6.946 -11.767  13.269  0.00  0.00    +0.007 A 
ATOM     29  C   UNL     1      -6.065  -9.329  12.236  0.00  0.00    +0.020 A 
ATOM     30  C   UNL     1      -5.595 -11.582  12.974  0.00  0.00    +0.020 A 
ATOM     31  C   UNL     1      -5.155 -10.363  12.458  0.00  0.00    +0.041 A 
ENDBRANCH  17  20
ENDBRANCH   9  17
TORSDOF 7
ENDMDL
MODEL 6
REMARK VINA RESULT:      -5.9     19.906     21.316
REMARK  Name = 26745474
REMARK  9 active torsions:
REMARK  status: ('A' for Active; 'I' for Inactive)
REMARK    1  A    between atoms: S_2  and  N_8
REMARK    2  A    between atoms: S_2  and  C_19
REMARK    3  A    between atoms: O_5  and  C_16
REMARK    4  A    between atoms: O_5  and  C_28
REMARK    5  A    between atoms: N_9  and  C_17
REMARK    6  A    between atoms: C_11  and  C_16
REMARK    7  A    between atoms: C_17  and  C_20
REMARK    8  A    between atoms: C_27  and  C_32
REMARK    9  A    between atoms: C_32  and  C_33
REMARK                            x       y       z     vdW  Elec       q    Type
REMARK                         _______ _______ _______ _____ _____    ______ ____
ROOT
ATOM      8  N   UNL     1      -5.892 -10.239  11.062  0.00  0.00    -0.157 NA
ATOM      9  N   UNL     1      -2.337 -10.898  12.018  0.00  0.00    -0.328 N 
ATOM     10  N   UNL     1      -1.897  -9.133  10.720  0.00  0.00    -0.240 NA
ATOM     11  C   UNL     1      -5.547  -9.559   9.762  0.00  0.00    +0.194 C 
ATOM     12  C   UNL     1      -4.843 -11.161  11.634  0.00  0.00    +0.165 C 
ATOM     13  C   UNL     1      -4.250  -8.729   9.873  0.00  0.00    +0.089 C 
ATOM     14  C   UNL     1      -3.522 -10.529  11.457  0.00  0.00    +0.057 A 
ATOM     15  C   UNL     1      -3.226  -9.448  10.662  0.00  0.00    +0.066 A 
ATOM     18  C   UNL     1      -1.387 -10.027  11.545  0.00  0.00    +0.200 A 
ENDROOT
BRANCH   8   2
ATOM      2  S   UNL     1      -7.511 -10.769  11.244  0.00  0.00    +0.062 S 
ATOM      3  O   UNL     1      -7.542 -12.214  11.195  0.00  0.00    -0.153 OA
ATOM      4  O   UNL     1      -8.364  -9.974  10.387  0.00  0.00    -0.153 OA
BRANCH   2  19
ATOM     19  C   UNL     1      -7.809 -10.278  12.914  0.00  0.00    +0.106 A 
ATOM     21  C   UNL     1      -6.812 -10.438  13.876  0.00  0.00    +0.029 A 
ATOM     22  C   UNL     1      -9.042  -9.733  13.271  0.00  0.00    +0.029 A 
ATOM     23  C   UNL     1      -7.048 -10.053  15.195  0.00  0.00    +0.013 A 
ATOM     24  C   UNL     1      -9.278  -9.347  14.591  0.00  0.00    +0.013 A 
ATOM     27  C   UNL     1      -8.281  -9.507  15.553  0.00  0.00    +0.017 A 
BRANCH  27  32
ATOM      7  O   UNL     1      -7.830  -9.538  17.868  0.00  0.00    -0.292 OA
ATOM     32  C   UNL     1      -8.527  -9.106  16.929  0.00  0.00    +0.160 C 
ATOM     33  C   UNL     1      -9.662  -8.139  17.257  0.00  0.00    +0.091 C 
ENDBRANCH  27  32
ENDBRANCH   2  19
ENDBRANCH   8   2
BRANCH  11  16
ATOM      6  O   UNL     1      -5.618 -11.791   8.871  0.00  0.00    -0.249 OA
ATOM     16  C   UNL     1      -5.462 -10.592   8.684  0.00  0.00    +0.326 C 
BRANCH  16   5
ATOM      5  O   UNL     1      -5.188  -9.987   7.494  0.00  0.00    -0.467 OA
ATOM     28  C   UNL     1      -6.326  -9.702   6.673  0.00  0.00    +0.280 C 
ENDBRANCH  16   5
ENDBRANCH  11  16
BRANCH   9  17
ATOM     17  C   UNL     1      -2.104 -11.992  12.928  0.00  0.00    +0.158 C 
BRANCH  17  20
ATOM      1 CL   UNL     1      -4.685 -11.217  18.310  0.00  0.00    -0.084 Cl
ATOM     20  C   UNL     1      -2.752 -11.797  14.276  0.00  0.00    -0.028 A 
ATOM     25  C   UNL     1      -3.710 -12.705  14.728  0.00  0.00    +0.007 A 
ATOM     26  C   UNL     1      -2.392 -10.709  15.073  0.00  0.00    +0.007 A 
ATOM     29  C   UNL     1      -4.309 -12.525  15.974  0.00  0.00    +0.020 A 
ATOM     30  C   UNL     1      -2.991 -10.529  16.319  0.00  0.00    +0.020 A 
ATOM     31  C   UNL     1      -3.948 -11.437  16.770  0.00  0.00    +0.041 A 
ENDBRANCH  17  20
ENDBRANCH   9  17
TORSDOF 7
ENDMDL
MODEL 7
REMARK VINA RESULT:      -5.8     26.471     29.782
REMARK  Name = 26745474
REMARK  9 active torsions:
REMARK  status: ('A' for Active; 'I' for Inactive)
REMARK    1  A    between atoms: S_2  and  N_8
REMARK    2  A    between atoms: S_2  and  C_19
REMARK    3  A    between atoms: O_5  and  C_16
REMARK    4  A    between atoms: O_5  and  C_28
REMARK    5  A    between atoms: N_9  and  C_17
REMARK    6  A    between atoms: C_11  and  C_16
REMARK    7  A    between atoms: C_17  and  C_20
REMARK    8  A    between atoms: C_27  and  C_32
REMARK    9  A    between atoms: C_32  and  C_33
REMARK                            x       y       z     vdW  Elec       q    Type
REMARK                         _______ _______ _______ _____ _____    ______ ____
ROOT
ATOM      8  N   UNL     1      14.397   9.155  19.937  0.00  0.00    -0.157 NA
ATOM      9  N   UNL     1      14.502  11.166  16.786  0.00  0.00    -0.328 N 
ATOM     10  N   UNL     1      13.987  12.877  18.129  0.00  0.00    -0.240 NA
ATOM     11  C   UNL     1      13.452  10.088  20.649  0.00  0.00    +0.194 C 
ATOM     12  C   UNL     1      14.394   9.221  18.430  0.00  0.00    +0.165 C 
ATOM     13  C   UNL     1      13.712  11.564  20.276  0.00  0.00    +0.089 C 
ATOM     14  C   UNL     1      14.308  10.637  18.026  0.00  0.00    +0.057 A 
ATOM     15  C   UNL     1      13.990  11.704  18.831  0.00  0.00    +0.066 A 
ATOM     18  C   UNL     1      14.298  12.519  16.897  0.00  0.00    +0.200 A 
ENDROOT
BRANCH   8   2
ATOM      2  S   UNL     1      14.569   7.585  20.602  0.00  0.00    +0.062 S 
ATOM      3  O   UNL     1      14.153   6.609  19.618  0.00  0.00    -0.153 OA
ATOM      4  O   UNL     1      14.018   7.579  21.939  0.00  0.00    -0.153 OA
BRANCH   2  19
ATOM     19  C   UNL     1      16.327   7.499  20.738  0.00  0.00    +0.106 A 
ATOM     21  C   UNL     1      17.023   8.501  21.414  0.00  0.00    +0.029 A 
ATOM     22  C   UNL     1      17.020   6.433  20.166  0.00  0.00    +0.029 A 
ATOM     23  C   UNL     1      18.413   8.435  21.519  0.00  0.00    +0.013 A 
ATOM     24  C   UNL     1      18.409   6.366  20.272  0.00  0.00    +0.013 A 
ATOM     27  C   UNL     1      19.106   7.368  20.949  0.00  0.00    +0.017 A 
BRANCH  27  32
ATOM      7  O   UNL     1      21.226   6.536  20.337  0.00  0.00    -0.292 OA
ATOM     32  C   UNL     1      20.554   7.300  21.057  0.00  0.00    +0.160 C 
ATOM     33  C   UNL     1      21.291   8.171  22.070  0.00  0.00    +0.091 C 
ENDBRANCH  27  32
ENDBRANCH   2  19
ENDBRANCH   8   2
BRANCH  11  16
ATOM      6  O   UNL     1      11.725   8.980  19.396  0.00  0.00    -0.249 OA
ATOM     16  C   UNL     1      12.047   9.673  20.352  0.00  0.00    +0.326 C 
BRANCH  16   5
ATOM      5  O   UNL     1      11.210  10.184  21.300  0.00  0.00    -0.467 OA
ATOM     28  C   UNL     1      10.891   9.299  22.380  0.00  0.00    +0.280 C 
ENDBRANCH  16   5
ENDBRANCH  11  16
BRANCH   9  17
ATOM     17  C   UNL     1      14.846  10.458  15.578  0.00  0.00    +0.158 C 
BRANCH  17  20
ATOM      1 CL   UNL     1      18.179  13.716  11.770  0.00  0.00    -0.084 Cl
ATOM     20  C   UNL     1      15.682  11.273  14.624  0.00  0.00    -0.028 A 
ATOM     25  C   UNL     1      15.132  11.721  13.422  0.00  0.00    +0.007 A 
ATOM     26  C   UNL     1      17.006  11.581  14.942  0.00  0.00    +0.007 A 
ATOM     29  C   UNL     1      15.904  12.475  12.540  0.00  0.00    +0.020 A 
ATOM     30  C   UNL     1      17.778  12.335  14.059  0.00  0.00    +0.020 A 
ATOM     31  C   UNL     1      17.228  12.783  12.859  0.00  0.00    +0.041 A 
ENDBRANCH  17  20
ENDBRANCH   9  17
TORSDOF 7
ENDMDL
MODEL 8
REMARK VINA RESULT:      -5.7     14.622     16.215
REMARK  Name = 26745474
REMARK  9 active torsions:
REMARK  status: ('A' for Active; 'I' for Inactive)
REMARK    1  A    between atoms: S_2  and  N_8
REMARK    2  A    between atoms: S_2  and  C_19
REMARK    3  A    between atoms: O_5  and  C_16
REMARK    4  A    between atoms: O_5  and  C_28
REMARK    5  A    between atoms: N_9  and  C_17
REMARK    6  A    between atoms: C_11  and  C_16
REMARK    7  A    between atoms: C_17  and  C_20
REMARK    8  A    between atoms: C_27  and  C_32
REMARK    9  A    between atoms: C_32  and  C_33
REMARK                            x       y       z     vdW  Elec       q    Type
REMARK                         _______ _______ _______ _____ _____    ______ ____
ROOT
ATOM      8  N   UNL     1     -12.805  -4.780  11.578  0.00  0.00    -0.157 NA
ATOM      9  N   UNL     1     -10.919  -7.170   9.406  0.00  0.00    -0.328 N 
ATOM     10  N   UNL     1     -10.048  -5.317   8.510  0.00  0.00    -0.240 NA
ATOM     11  C   UNL     1     -12.749  -3.643  10.590  0.00  0.00    +0.194 C 
ATOM     12  C   UNL     1     -12.625  -6.167  11.013  0.00  0.00    +0.165 C 
ATOM     13  C   UNL     1     -11.419  -3.627   9.807  0.00  0.00    +0.089 C 
ATOM     14  C   UNL     1     -11.556  -6.121   9.997  0.00  0.00    +0.057 A 
ATOM     15  C   UNL     1     -11.009  -4.997   9.429  0.00  0.00    +0.066 A 
ATOM     18  C   UNL     1     -10.019  -6.636   8.518  0.00  0.00    +0.200 A 
ENDROOT
BRANCH   8   2
ATOM      2  S   UNL     1     -13.959  -4.645  12.837  0.00  0.00    +0.062 S 
ATOM      3  O   UNL     1     -15.181  -5.303  12.427  0.00  0.00    -0.153 OA
ATOM      4  O   UNL     1     -13.971  -3.281  13.319  0.00  0.00    -0.153 OA
BRANCH   2  19
ATOM     19  C   UNL     1     -13.190  -5.651  14.068  0.00  0.00    +0.106 A 
ATOM     21  C   UNL     1     -11.883  -5.380  14.471  0.00  0.00    +0.029 A 
ATOM     22  C   UNL     1     -13.889  -6.716  14.634  0.00  0.00    +0.029 A 
ATOM     23  C   UNL     1     -11.275  -6.176  15.442  0.00  0.00    +0.013 A 
ATOM     24  C   UNL     1     -13.281  -7.512  15.606  0.00  0.00    +0.013 A 
ATOM     27  C   UNL     1     -11.973  -7.241  16.010  0.00  0.00    +0.017 A 
BRANCH  27  32
ATOM      7  O   UNL     1     -11.999  -8.861  17.723  0.00  0.00    -0.292 OA
ATOM     32  C   UNL     1     -11.339  -8.071  17.021  0.00  0.00    +0.160 C 
ATOM     33  C   UNL     1      -9.832  -7.990  17.248  0.00  0.00    +0.091 C 
ENDBRANCH  27  32
ENDBRANCH   2  19
ENDBRANCH   8   2
BRANCH  11  16
ATOM      6  O   UNL     1     -14.201  -4.714   9.001  0.00  0.00    -0.249 OA
ATOM     16  C   UNL     1     -13.934  -3.733   9.682  0.00  0.00    +0.326 C 
BRANCH  16   5
ATOM      5  O   UNL     1     -14.643  -2.571   9.740  0.00  0.00    -0.467 OA
ATOM     28  C   UNL     1     -15.986  -2.693  10.221  0.00  0.00    +0.280 C 
ENDBRANCH  16   5
ENDBRANCH  11  16
BRANCH   9  17
ATOM     17  C   UNL     1     -11.140  -8.575   9.647  0.00  0.00    +0.158 C 
BRANCH  17  20
ATOM      1 CL   UNL     1      -8.530 -10.574  14.689  0.00  0.00    -0.084 Cl
ATOM     20  C   UNL     1     -10.486  -9.075  10.910  0.00  0.00    -0.028 A 
ATOM     25  C   UNL     1     -11.210  -9.117  12.102  0.00  0.00    +0.007 A 
ATOM     26  C   UNL     1      -9.155  -9.496  10.888  0.00  0.00    +0.007 A 
ATOM     29  C   UNL     1     -10.605  -9.580  13.270  0.00  0.00    +0.020 A 
ATOM     30  C   UNL     1      -8.550  -9.959  12.057  0.00  0.00    +0.020 A 
ATOM     31  C   UNL     1      -9.275 -10.001  13.247  0.00  0.00    +0.041 A 
ENDBRANCH  17  20
ENDBRANCH   9  17
TORSDOF 7
ENDMDL
MODEL 9
REMARK VINA RESULT:      -5.6      6.835     10.385
REMARK  Name = 26745474
REMARK  9 active torsions:
REMARK  status: ('A' for Active; 'I' for Inactive)
REMARK    1  A    between atoms: S_2  and  N_8
REMARK    2  A    between atoms: S_2  and  C_19
REMARK    3  A    between atoms: O_5  and  C_16
REMARK    4  A    between atoms: O_5  and  C_28
REMARK    5  A    between atoms: N_9  and  C_17
REMARK    6  A    between atoms: C_11  and  C_16
REMARK    7  A    between atoms: C_17  and  C_20
REMARK    8  A    between atoms: C_27  and  C_32
REMARK    9  A    between atoms: C_32  and  C_33
REMARK                            x       y       z     vdW  Elec       q    Type
REMARK                         _______ _______ _______ _____ _____    ______ ____
ROOT
ATOM      8  N   UNL     1     -17.372   2.680  24.774  0.00  0.00    -0.157 NA
ATOM      9  N   UNL     1     -15.533   5.132  22.631  0.00  0.00    -0.328 N 
ATOM     10  N   UNL     1     -17.573   5.680  21.900  0.00  0.00    -0.240 NA
ATOM     11  C   UNL     1     -18.560   2.576  23.852  0.00  0.00    +0.194 C 
ATOM     12  C   UNL     1     -16.084   3.164  24.154  0.00  0.00    +0.165 C 
ATOM     13  C   UNL     1     -18.882   3.925  23.173  0.00  0.00    +0.089 C 
ATOM     14  C   UNL     1     -16.400   4.266  23.225  0.00  0.00    +0.057 A 
ATOM     15  C   UNL     1     -17.643   4.618  22.758  0.00  0.00    +0.066 A 
ATOM     18  C   UNL     1     -16.286   5.966  21.842  0.00  0.00    +0.200 A 
ENDROOT
BRANCH   8   2
ATOM      2  S   UNL     1     -17.202   1.443  25.947  0.00  0.00    +0.062 S 
ATOM      3  O   UNL     1     -16.097   0.587  25.571  0.00  0.00    -0.153 OA
ATOM      4  O   UNL     1     -18.507   0.892  26.241  0.00  0.00    -0.153 OA
BRANCH   2  19
ATOM     19  C   UNL     1     -16.692   2.405  27.336  0.00  0.00    +0.106 A 
ATOM     21  C   UNL     1     -16.024   1.795  28.398  0.00  0.00    +0.029 A 
ATOM     22  C   UNL     1     -16.959   3.773  27.373  0.00  0.00    +0.029 A 
ATOM     23  C   UNL     1     -15.624   2.555  29.498  0.00  0.00    +0.013 A 
ATOM     24  C   UNL     1     -16.558   4.533  28.472  0.00  0.00    +0.013 A 
ATOM     27  C   UNL     1     -15.890   3.924  29.534  0.00  0.00    +0.017 A 
BRANCH  27  32
ATOM      7  O   UNL     1     -14.583   4.319  31.457  0.00  0.00    -0.292 OA
ATOM     32  C   UNL     1     -15.473   4.715  30.680  0.00  0.00    +0.160 C 
ATOM     33  C   UNL     1     -16.127   6.065  30.961  0.00  0.00    +0.091 C 
ENDBRANCH  27  32
ENDBRANCH   2  19
ENDBRANCH   8   2
BRANCH  11  16
ATOM      6  O   UNL     1     -17.214   1.280  22.338  0.00  0.00    -0.249 OA
ATOM     16  C   UNL     1     -18.304   1.492  22.853  0.00  0.00    +0.326 C 
BRANCH  16   5
ATOM      5  O   UNL     1     -19.457   0.804  22.621  0.00  0.00    -0.467 OA
ATOM     28  C   UNL     1     -19.440  -0.574  23.012  0.00  0.00    +0.280 C 
ENDBRANCH  16   5
ENDBRANCH  11  16
BRANCH   9  17
ATOM     17  C   UNL     1     -14.100   5.176  22.783  0.00  0.00    +0.158 C 
BRANCH  17  20
ATOM      1 CL   UNL     1     -11.544   9.847  19.976  0.00  0.00    -0.084 Cl
ATOM     20  C   UNL     1     -13.459   6.346  22.080  0.00  0.00    -0.028 A 
ATOM     25  C   UNL     1     -12.380   6.139  21.221  0.00  0.00    +0.007 A 
ATOM     26  C   UNL     1     -13.946   7.638  22.289  0.00  0.00    +0.007 A 
ATOM     29  C   UNL     1     -11.787   7.221  20.571  0.00  0.00    +0.020 A 
ATOM     30  C   UNL     1     -13.353   8.720  21.640  0.00  0.00    +0.020 A 
ATOM     31  C   UNL     1     -12.274   8.512  20.780  0.00  0.00    +0.041 A 
ENDBRANCH  17  20
ENDBRANCH   9  17
TORSDOF 7
ENDMDL
MODEL 10
REMARK VINA RESULT:      -5.6     29.301     32.532
REMARK  Name = 26745474
REMARK  9 active torsions:
REMARK  status: ('A' for Active; 'I' for Inactive)
REMARK    1  A    between atoms: S_2  and  N_8
REMARK    2  A    between atoms: S_2  and  C_19
REMARK    3  A    between atoms: O_5  and  C_16
REMARK    4  A    between atoms: O_5  and  C_28
REMARK    5  A    between atoms: N_9  and  C_17
REMARK    6  A    between atoms: C_11  and  C_16
REMARK    7  A    between atoms: C_17  and  C_20
REMARK    8  A    between atoms: C_27  and  C_32
REMARK    9  A    between atoms: C_32  and  C_33
REMARK                            x       y       z     vdW  Elec       q    Type
REMARK                         _______ _______ _______ _____ _____    ______ ____
ROOT
ATOM      8  N   UNL     1      15.315   6.472   0.926  0.00  0.00    -0.157 NA
ATOM      9  N   UNL     1      12.156   4.824   2.063  0.00  0.00    -0.328 N 
ATOM     10  N   UNL     1      13.262   2.927   1.645  0.00  0.00    -0.240 NA
ATOM     11  C   UNL     1      15.755   5.316   0.065  0.00  0.00    +0.194 C 
ATOM     12  C   UNL     1      13.840   6.551   1.238  0.00  0.00    +0.165 C 
ATOM     13  C   UNL     1      15.368   3.957   0.685  0.00  0.00    +0.089 C 
ATOM     14  C   UNL     1      13.352   5.188   1.522  0.00  0.00    +0.057 A 
ATOM     15  C   UNL     1      14.010   4.008   1.270  0.00  0.00    +0.066 A 
ATOM     18  C   UNL     1      12.148   3.453   2.118  0.00  0.00    +0.200 A 
ENDROOT
BRANCH   8   2
ATOM      2  S   UNL     1      16.084   7.976   0.641  0.00  0.00    +0.062 S 
ATOM      3  O   UNL     1      15.115   9.039   0.799  0.00  0.00    -0.153 OA
ATOM      4  O   UNL     1      16.889   7.872  -0.556  0.00  0.00    -0.153 OA
BRANCH   2  19
ATOM     19  C   UNL     1      17.176   8.030   2.028  0.00  0.00    +0.106 A 
ATOM     21  C   UNL     1      18.556   8.059   1.826  0.00  0.00    +0.029 A 
ATOM     22  C   UNL     1      16.659   8.040   3.322  0.00  0.00    +0.029 A 
ATOM     23  C   UNL     1      19.419   8.099   2.922  0.00  0.00    +0.013 A 
ATOM     24  C   UNL     1      17.522   8.080   4.418  0.00  0.00    +0.013 A 
ATOM     27  C   UNL     1      18.903   8.110   4.217  0.00  0.00    +0.017 A 
BRANCH  27  32
ATOM      7  O   UNL     1      20.961   7.695   5.292  0.00  0.00    -0.292 OA
ATOM     32  C   UNL     1      19.802   8.150   5.359  0.00  0.00    +0.160 C 
ATOM     33  C   UNL     1      19.340   8.755   6.681  0.00  0.00    +0.091 C 
ENDBRANCH  27  32
ENDBRANCH   2  19
ENDBRANCH   8   2
BRANCH  11  16
ATOM      6  O   UNL     1      14.318   6.305  -1.590  0.00  0.00    -0.249 OA
ATOM     16  C   UNL     1      15.185   5.490  -1.307  0.00  0.00    +0.326 C 
BRANCH  16   5
ATOM      5  O   UNL     1      15.779   4.610  -2.162  0.00  0.00    -0.467 OA
ATOM     28  C   UNL     1      17.178   4.819  -2.386  0.00  0.00    +0.280 C 
ENDBRANCH  16   5
ENDBRANCH  11  16
BRANCH   9  17
ATOM     17  C   UNL     1      11.090   5.696   2.492  0.00  0.00    +0.158 C 
BRANCH  17  20
ATOM      1 CL   UNL     1      10.383   5.830   8.468  0.00  0.00    -0.084 Cl
ATOM     20  C   UNL     1      10.913   5.731   3.989  0.00  0.00    -0.028 A 
ATOM     25  C   UNL     1       9.927   4.951   4.594  0.00  0.00    +0.007 A 
ATOM     26  C   UNL     1      11.735   6.543   4.772  0.00  0.00    +0.007 A 
ATOM     29  C   UNL     1       9.762   4.982   5.978  0.00  0.00    +0.020 A 
ATOM     30  C   UNL     1      11.571   6.574   6.156  0.00  0.00    +0.020 A 
ATOM     31  C   UNL     1      10.585   5.794   6.759  0.00  0.00    +0.041 A 
ENDBRANCH  17  20
ENDBRANCH   9  17
TORSDOF 7
ENDMDL
