MODEL 1
REMARK VINA RESULT:      -6.5      0.000      0.000
REMARK  Name = 28961828
REMARK  12 active torsions:
REMARK  status: ('A' for Active; 'I' for Inactive)
REMARK    1  A    between atoms: O_5  and  C_16
REMARK    2  A    between atoms: O_6  and  C_22
REMARK    3  A    between atoms: O_6  and  C_25
REMARK    4  A    between atoms: O_7  and  C_23
REMARK    5  A    between atoms: O_9  and  C_31
REMARK    6  A    between atoms: O_9  and  C_32
REMARK    7  A    between atoms: N_10  and  C_13
REMARK    8  A    between atoms: N_11  and  C_21
REMARK    9  A    between atoms: N_12  and  C_26
REMARK   10  A    between atoms: C_14  and  C_22
REMARK   11  A    between atoms: C_15  and  C_21
REMARK   12  A    between atoms: C_18  and  C_23
REMARK                            x       y       z     vdW  Elec       q    Type
REMARK                         _______ _______ _______ _____ _____    ______ ____
ROOT
ATOM      4  O   UNL     1      21.344   7.596  21.414  0.00  0.00    -0.365 OA
ATOM     13  C   UNL     1      22.749   5.737  21.899  0.00  0.00    +0.118 C 
ATOM     15  C   UNL     1      21.830   6.362  20.841  0.00  0.00    +0.155 C 
ATOM     16  C   UNL     1      22.211   6.310  23.202  0.00  0.00    +0.165 C 
ATOM     18  C   UNL     1      21.847   7.721  22.759  0.00  0.00    +0.174 C 
ENDROOT
BRANCH  13  10
ATOM     10  N   UNL     1      22.875   4.290  21.864  0.00  0.00    -0.289 NA
ATOM     14  C   UNL     1      23.465   3.735  20.641  0.00  0.00    +0.083 C 
ATOM     17  C   UNL     1      23.637   3.756  22.991  0.00  0.00    +0.085 C 
ATOM     19  C   UNL     1      23.691   2.284  21.062  0.00  0.00    +0.022 C 
ATOM     20  C   UNL     1      24.040   2.355  22.545  0.00  0.00    +0.017 C 
BRANCH  14  22
ATOM     22  C   UNL     1      24.766   4.389  20.164  0.00  0.00    +0.178 C 
BRANCH  22   6
ATOM      6  O   UNL     1      25.566   3.401  19.540  0.00  0.00    -0.381 OA
ATOM     25  C   UNL     1      26.952   3.611  19.790  0.00  0.00    +0.194 C 
ENDBRANCH  22   6
ENDBRANCH  14  22
ENDBRANCH  13  10
BRANCH  16   5
ATOM      5  O   UNL     1      21.051   5.612  23.637  0.00  0.00    -0.388 OA
ATOM     33  H   UNL     1      21.324   4.994  24.337  0.00  0.00    +0.210 HD
ENDBRANCH  16   5
BRANCH  15  21
ATOM     21  C   UNL     1      20.611   5.547  20.425  0.00  0.00    +0.139 C 
BRANCH  21  11
ATOM      8  O   UNL     1      18.077   5.335  19.107  0.00  0.00    -0.253 OA
ATOM     11  N   UNL     1      19.396   6.210  20.794  0.00  0.00    -0.297 N 
ATOM     12  N   UNL     1      17.176   6.823  20.683  0.00  0.00    -0.269 N 
ATOM     24  C   UNL     1      18.186   6.056  20.095  0.00  0.00    +0.304 C 
ATOM     34  H   UNL     1      19.416   6.834  21.594  0.00  0.00    +0.150 HD
ATOM     36  H   UNL     1      17.435   7.369  21.502  0.00  0.00    +0.156 HD
BRANCH  12  26
ATOM     26  C   UNL     1      15.826   6.937  20.278  0.00  0.00    +0.035 A 
ATOM     27  C   UNL     1      15.519   7.185  18.940  0.00  0.00    +0.027 A 
ATOM     28  C   UNL     1      14.801   6.802  21.215  0.00  0.00    +0.027 A 
ATOM     29  C   UNL     1      14.187   7.299  18.540  0.00  0.00    +0.048 A 
ATOM     30  C   UNL     1      13.471   6.915  20.815  0.00  0.00    +0.048 A 
ATOM     31  C   UNL     1      13.163   7.163  19.477  0.00  0.00    +0.130 A 
BRANCH  31   9
ATOM      9  O   UNL     1      11.864   7.273  19.087  0.00  0.00    -0.406 OA
BRANCH   9  32
ATOM      1  F   UNL     1      10.353   8.769  18.328  0.00  0.00    -0.133 F 
ATOM      2  F   UNL     1      10.424   8.380  20.478  0.00  0.00    -0.133 F 
ATOM      3  F   UNL     1      12.044   9.517  19.494  0.00  0.00    -0.133 F 
ATOM     32  C   UNL     1      11.178   8.489  19.364  0.00  0.00    +0.575 C 
ENDBRANCH   9  32
ENDBRANCH  31   9
ENDBRANCH  12  26
ENDBRANCH  21  11
ENDBRANCH  15  21
BRANCH  18  23
ATOM     23  C   UNL     1      20.812   8.429  23.616  0.00  0.00    +0.190 C 
BRANCH  23   7
ATOM      7  O   UNL     1      19.523   7.950  23.267  0.00  0.00    -0.392 OA
ATOM     35  H   UNL     1      19.040   7.799  24.097  0.00  0.00    +0.210 HD
ENDBRANCH  23   7
ENDBRANCH  18  23
TORSDOF 11
ENDMDL
MODEL 2
REMARK VINA RESULT:      -6.2     30.955     34.854
REMARK  Name = 28961828
REMARK  12 active torsions:
REMARK  status: ('A' for Active; 'I' for Inactive)
REMARK    1  A    between atoms: O_5  and  C_16
REMARK    2  A    between atoms: O_6  and  C_22
REMARK    3  A    between atoms: O_6  and  C_25
REMARK    4  A    between atoms: O_7  and  C_23
REMARK    5  A    between atoms: O_9  and  C_31
REMARK    6  A    between atoms: O_9  and  C_32
REMARK    7  A    between atoms: N_10  and  C_13
REMARK    8  A    between atoms: N_11  and  C_21
REMARK    9  A    between atoms: N_12  and  C_26
REMARK   10  A    between atoms: C_14  and  C_22
REMARK   11  A    between atoms: C_15  and  C_21
REMARK   12  A    between atoms: C_18  and  C_23
REMARK                            x       y       z     vdW  Elec       q    Type
REMARK                         _______ _______ _______ _____ _____    ______ ____
ROOT
ATOM      4  O   UNL     1     -17.545   3.568  23.868  0.00  0.00    -0.365 OA
ATOM     13  C   UNL     1     -17.258   2.975  26.156  0.00  0.00    +0.118 C 
ATOM     15  C   UNL     1     -16.777   3.915  25.041  0.00  0.00    +0.155 C 
ATOM     16  C   UNL     1     -17.770   1.767  25.387  0.00  0.00    +0.165 C 
ATOM     18  C   UNL     1     -18.398   2.448  24.177  0.00  0.00    +0.174 C 
ENDROOT
BRANCH  13  10
ATOM     10  N   UNL     1     -16.298   2.681  27.205  0.00  0.00    -0.289 NA
ATOM     14  C   UNL     1     -16.091   3.747  28.192  0.00  0.00    +0.083 C 
ATOM     17  C   UNL     1     -16.618   1.463  27.947  0.00  0.00    +0.085 C 
ATOM     19  C   UNL     1     -15.272   3.007  29.248  0.00  0.00    +0.022 C 
ATOM     20  C   UNL     1     -15.807   1.578  29.232  0.00  0.00    +0.017 C 
BRANCH  14  22
ATOM     22  C   UNL     1     -17.358   4.361  28.796  0.00  0.00    +0.178 C 
BRANCH  22   6
ATOM      6  O   UNL     1     -17.169   5.759  28.918  0.00  0.00    -0.381 OA
ATOM     25  C   UNL     1     -17.494   6.442  27.712  0.00  0.00    +0.194 C 
ENDBRANCH  22   6
ENDBRANCH  14  22
ENDBRANCH  13  10
BRANCH  16   5
ATOM      5  O   UNL     1     -16.704   0.918  24.981  0.00  0.00    -0.388 OA
ATOM     33  H   UNL     1     -17.087   0.054  24.750  0.00  0.00    +0.210 HD
ENDBRANCH  16   5
BRANCH  15  21
ATOM     21  C   UNL     1     -15.304   3.825  24.659  0.00  0.00    +0.139 C 
BRANCH  21  11
ATOM      8  O   UNL     1     -14.262   4.120  22.008  0.00  0.00    -0.253 OA
ATOM     11  N   UNL     1     -14.854   5.039  24.047  0.00  0.00    -0.297 N 
ATOM     12  N   UNL     1     -13.994   6.418  22.411  0.00  0.00    -0.269 N 
ATOM     24  C   UNL     1     -14.353   5.106  22.735  0.00  0.00    +0.304 C 
ATOM     34  H   UNL     1     -14.888   5.893  24.595  0.00  0.00    +0.150 HD
ATOM     36  H   UNL     1     -14.134   7.121  23.132  0.00  0.00    +0.156 HD
BRANCH  12  26
ATOM     26  C   UNL     1     -13.453   6.893  21.193  0.00  0.00    +0.035 A 
ATOM     27  C   UNL     1     -12.100   6.707  20.911  0.00  0.00    +0.027 A 
ATOM     28  C   UNL     1     -14.273   7.548  20.274  0.00  0.00    +0.027 A 
ATOM     29  C   UNL     1     -11.567   7.177  19.711  0.00  0.00    +0.048 A 
ATOM     30  C   UNL     1     -13.741   8.017  19.074  0.00  0.00    +0.048 A 
ATOM     31  C   UNL     1     -12.387   7.831  18.792  0.00  0.00    +0.130 A 
BRANCH  31   9
ATOM      9  O   UNL     1     -11.867   8.289  17.620  0.00  0.00    -0.406 OA
BRANCH   9  32
ATOM      1  F   UNL     1     -11.155  10.140  16.544  0.00  0.00    -0.133 F 
ATOM      2  F   UNL     1     -11.250  10.194  18.727  0.00  0.00    -0.133 F 
ATOM      3  F   UNL     1      -9.695   9.001  17.704  0.00  0.00    -0.133 F 
ATOM     32  C   UNL     1     -10.983   9.403  17.665  0.00  0.00    +0.575 C 
ENDBRANCH   9  32
ENDBRANCH  31   9
ENDBRANCH  12  26
ENDBRANCH  21  11
ENDBRANCH  15  21
BRANCH  18  23
ATOM     23  C   UNL     1     -18.548   1.578  22.942  0.00  0.00    +0.190 C 
BRANCH  23   7
ATOM      7  O   UNL     1     -17.305   1.533  22.259  0.00  0.00    -0.392 OA
ATOM     35  H   UNL     1     -17.207   2.380  21.790  0.00  0.00    +0.210 HD
ENDBRANCH  23   7
ENDBRANCH  18  23
TORSDOF 11
ENDMDL
MODEL 3
REMARK VINA RESULT:      -6.2     28.220     32.055
REMARK  Name = 28961828
REMARK  12 active torsions:
REMARK  status: ('A' for Active; 'I' for Inactive)
REMARK    1  A    between atoms: O_5  and  C_16
REMARK    2  A    between atoms: O_6  and  C_22
REMARK    3  A    between atoms: O_6  and  C_25
REMARK    4  A    between atoms: O_7  and  C_23
REMARK    5  A    between atoms: O_9  and  C_31
REMARK    6  A    between atoms: O_9  and  C_32
REMARK    7  A    between atoms: N_10  and  C_13
REMARK    8  A    between atoms: N_11  and  C_21
REMARK    9  A    between atoms: N_12  and  C_26
REMARK   10  A    between atoms: C_14  and  C_22
REMARK   11  A    between atoms: C_15  and  C_21
REMARK   12  A    between atoms: C_18  and  C_23
REMARK                            x       y       z     vdW  Elec       q    Type
REMARK                         _______ _______ _______ _____ _____    ______ ____
ROOT
ATOM      4  O   UNL     1      -5.078 -10.169  18.258  0.00  0.00    -0.365 OA
ATOM     13  C   UNL     1      -4.439 -11.874  16.723  0.00  0.00    +0.118 C 
ATOM     15  C   UNL     1      -4.811 -10.390  16.856  0.00  0.00    +0.155 C 
ATOM     16  C   UNL     1      -5.142 -12.510  17.913  0.00  0.00    +0.165 C 
ATOM     18  C   UNL     1      -4.960 -11.422  18.963  0.00  0.00    +0.174 C 
ENDROOT
BRANCH  13  10
ATOM     10  N   UNL     1      -4.714 -12.491  15.438  0.00  0.00    -0.289 NA
ATOM     14  C   UNL     1      -3.891 -12.018  14.319  0.00  0.00    +0.083 C 
ATOM     17  C   UNL     1      -4.602 -13.948  15.469  0.00  0.00    +0.085 C 
ATOM     19  C   UNL     1      -4.248 -13.044  13.245  0.00  0.00    +0.022 C 
ATOM     20  C   UNL     1      -4.467 -14.349  14.004  0.00  0.00    +0.017 C 
BRANCH  14  22
ATOM     22  C   UNL     1      -2.381 -11.968  14.567  0.00  0.00    +0.178 C 
BRANCH  22   6
ATOM      6  O   UNL     1      -1.957 -10.617  14.513  0.00  0.00    -0.381 OA
ATOM     25  C   UNL     1      -1.082 -10.296  15.589  0.00  0.00    +0.194 C 
ENDBRANCH  22   6
ENDBRANCH  14  22
ENDBRANCH  13  10
BRANCH  16   5
ATOM      5  O   UNL     1      -6.524 -12.720  17.650  0.00  0.00    -0.388 OA
ATOM     33  H   UNL     1      -6.824 -13.451  18.216  0.00  0.00    +0.210 HD
ENDBRANCH  16   5
BRANCH  15  21
ATOM     21  C   UNL     1      -6.039  -9.922  16.084  0.00  0.00    +0.139 C 
BRANCH  21  11
ATOM      8  O   UNL     1      -8.625 -11.051  16.576  0.00  0.00    -0.253 OA
ATOM     11  N   UNL     1      -7.042  -9.411  16.970  0.00  0.00    -0.297 N 
ATOM     12  N   UNL     1      -9.061  -9.302  18.080  0.00  0.00    -0.269 N 
ATOM     24  C   UNL     1      -8.293 -10.023  17.160  0.00  0.00    +0.304 C 
ATOM     34  H   UNL     1      -6.841  -8.554  17.477  0.00  0.00    +0.150 HD
ATOM     36  H   UNL     1      -8.635  -8.467  18.474  0.00  0.00    +0.156 HD
BRANCH  12  26
ATOM     26  C   UNL     1     -10.368  -9.591  18.535  0.00  0.00    +0.035 A 
ATOM     27  C   UNL     1     -10.552 -10.297  19.724  0.00  0.00    +0.027 A 
ATOM     28  C   UNL     1     -11.474  -9.172  17.795  0.00  0.00    +0.027 A 
ATOM     29  C   UNL     1     -11.841 -10.583  20.172  0.00  0.00    +0.048 A 
ATOM     30  C   UNL     1     -12.762  -9.458  18.243  0.00  0.00    +0.048 A 
ATOM     31  C   UNL     1     -12.947 -10.163  19.432  0.00  0.00    +0.130 A 
BRANCH  31   9
ATOM      9  O   UNL     1     -14.205 -10.442  19.870  0.00  0.00    -0.406 OA
BRANCH   9  32
ATOM      1  F   UNL     1     -15.672 -10.027  21.535  0.00  0.00    -0.133 F 
ATOM      2  F   UNL     1     -14.051  -8.597  21.214  0.00  0.00    -0.133 F 
ATOM      3  F   UNL     1     -15.723  -8.733  19.774  0.00  0.00    -0.133 F 
ATOM     32  C   UNL     1     -14.906  -9.434  20.590  0.00  0.00    +0.575 C 
ENDBRANCH   9  32
ENDBRANCH  31   9
ENDBRANCH  12  26
ENDBRANCH  21  11
ENDBRANCH  15  21
BRANCH  18  23
ATOM     23  C   UNL     1      -5.957 -11.446  20.108  0.00  0.00    +0.190 C 
BRANCH  23   7
ATOM      7  O   UNL     1      -6.707 -10.242  20.089  0.00  0.00    -0.392 OA
ATOM     35  H   UNL     1      -6.819  -9.960  21.013  0.00  0.00    +0.210 HD
ENDBRANCH  23   7
ENDBRANCH  18  23
TORSDOF 11
ENDMDL
MODEL 4
REMARK VINA RESULT:      -6.1     18.235     21.725
REMARK  Name = 28961828
REMARK  12 active torsions:
REMARK  status: ('A' for Active; 'I' for Inactive)
REMARK    1  A    between atoms: O_5  and  C_16
REMARK    2  A    between atoms: O_6  and  C_22
REMARK    3  A    between atoms: O_6  and  C_25
REMARK    4  A    between atoms: O_7  and  C_23
REMARK    5  A    between atoms: O_9  and  C_31
REMARK    6  A    between atoms: O_9  and  C_32
REMARK    7  A    between atoms: N_10  and  C_13
REMARK    8  A    between atoms: N_11  and  C_21
REMARK    9  A    between atoms: N_12  and  C_26
REMARK   10  A    between atoms: C_14  and  C_22
REMARK   11  A    between atoms: C_15  and  C_21
REMARK   12  A    between atoms: C_18  and  C_23
REMARK                            x       y       z     vdW  Elec       q    Type
REMARK                         _______ _______ _______ _____ _____    ______ ____
ROOT
ATOM      4  O   UNL     1      14.155   5.432  -0.285  0.00  0.00    -0.365 OA
ATOM     13  C   UNL     1      12.805   4.097  -1.720  0.00  0.00    +0.118 C 
ATOM     15  C   UNL     1      13.012   5.512  -1.164  0.00  0.00    +0.155 C 
ATOM     16  C   UNL     1      13.413   3.213  -0.642  0.00  0.00    +0.165 C 
ATOM     18  C   UNL     1      14.604   4.063  -0.220  0.00  0.00    +0.174 C 
ENDROOT
BRANCH  13  10
ATOM     10  N   UNL     1      11.449   3.753  -2.111  0.00  0.00    -0.289 NA
ATOM     14  C   UNL     1      10.910   4.500  -3.253  0.00  0.00    +0.083 C 
ATOM     17  C   UNL     1      11.282   2.332  -2.408  0.00  0.00    +0.085 C 
ATOM     19  C   UNL     1       9.635   3.709  -3.540  0.00  0.00    +0.022 C 
ATOM     20  C   UNL     1       9.987   2.262  -3.209  0.00  0.00    +0.017 C 
BRANCH  14  22
ATOM     22  C   UNL     1      11.810   4.580  -4.491  0.00  0.00    +0.178 C 
BRANCH  22   6
ATOM      6  O   UNL     1      11.003   4.866  -5.619  0.00  0.00    -0.381 OA
ATOM     25  C   UNL     1      11.451   4.169  -6.777  0.00  0.00    +0.194 C 
ENDBRANCH  22   6
ENDBRANCH  14  22
ENDBRANCH  13  10
BRANCH  16   5
ATOM      5  O   UNL     1      12.520   3.034   0.449  0.00  0.00    -0.388 OA
ATOM     33  H   UNL     1      12.322   2.084   0.515  0.00  0.00    +0.210 HD
ENDBRANCH  16   5
BRANCH  15  21
ATOM     21  C   UNL     1      11.863   6.105  -0.357  0.00  0.00    +0.139 C 
BRANCH  21  11
ATOM      8  O   UNL     1       9.909   6.089   1.737  0.00  0.00    -0.253 OA
ATOM     11  N   UNL     1      12.117   6.010   1.049  0.00  0.00    -0.297 N 
ATOM     12  N   UNL     1      11.647   5.905   3.304  0.00  0.00    -0.269 N 
ATOM     24  C   UNL     1      11.101   6.009   2.021  0.00  0.00    +0.304 C 
ATOM     34  H   UNL     1      13.082   5.954   1.358  0.00  0.00    +0.150 HD
ATOM     36  H   UNL     1      12.661   5.847   3.366  0.00  0.00    +0.156 HD
BRANCH  12  26
ATOM     26  C   UNL     1      10.959   5.870   4.540  0.00  0.00    +0.035 A 
ATOM     27  C   UNL     1      10.099   4.811   4.829  0.00  0.00    +0.027 A 
ATOM     28  C   UNL     1      11.141   6.895   5.469  0.00  0.00    +0.027 A 
ATOM     29  C   UNL     1       9.420   4.777   6.047  0.00  0.00    +0.048 A 
ATOM     30  C   UNL     1      10.463   6.861   6.686  0.00  0.00    +0.048 A 
ATOM     31  C   UNL     1       9.602   5.802   6.976  0.00  0.00    +0.130 A 
BRANCH  31   9
ATOM      9  O   UNL     1       8.940   5.769   8.165  0.00  0.00    -0.406 OA
BRANCH   9  32
ATOM      1  F   UNL     1       9.659   3.716   8.769  0.00  0.00    -0.133 F 
ATOM      2  F   UNL     1      10.688   5.453   9.607  0.00  0.00    -0.133 F 
ATOM      3  F   UNL     1       8.645   4.935  10.274  0.00  0.00    -0.133 F 
ATOM     32  C   UNL     1       9.485   4.981   9.217  0.00  0.00    +0.575 C 
ENDBRANCH   9  32
ENDBRANCH  31   9
ENDBRANCH  12  26
ENDBRANCH  21  11
ENDBRANCH  15  21
BRANCH  18  23
ATOM     23  C   UNL     1      15.148   3.782   1.170  0.00  0.00    +0.190 C 
BRANCH  23   7
ATOM      7  O   UNL     1      14.324   4.430   2.125  0.00  0.00    -0.392 OA
ATOM     35  H   UNL     1      14.642   5.346   2.202  0.00  0.00    +0.210 HD
ENDBRANCH  23   7
ENDBRANCH  18  23
TORSDOF 11
ENDMDL
MODEL 5
REMARK VINA RESULT:      -5.9     17.147     20.201
REMARK  Name = 28961828
REMARK  12 active torsions:
REMARK  status: ('A' for Active; 'I' for Inactive)
REMARK    1  A    between atoms: O_5  and  C_16
REMARK    2  A    between atoms: O_6  and  C_22
REMARK    3  A    between atoms: O_6  and  C_25
REMARK    4  A    between atoms: O_7  and  C_23
REMARK    5  A    between atoms: O_9  and  C_31
REMARK    6  A    between atoms: O_9  and  C_32
REMARK    7  A    between atoms: N_10  and  C_13
REMARK    8  A    between atoms: N_11  and  C_21
REMARK    9  A    between atoms: N_12  and  C_26
REMARK   10  A    between atoms: C_14  and  C_22
REMARK   11  A    between atoms: C_15  and  C_21
REMARK   12  A    between atoms: C_18  and  C_23
REMARK                            x       y       z     vdW  Elec       q    Type
REMARK                         _______ _______ _______ _____ _____    ______ ____
ROOT
ATOM      4  O   UNL     1       8.895   6.057   6.987  0.00  0.00    -0.365 OA
ATOM     13  C   UNL     1      10.553   7.720   7.380  0.00  0.00    +0.118 C 
ATOM     15  C   UNL     1       9.209   7.437   6.694  0.00  0.00    +0.155 C 
ATOM     16  C   UNL     1      11.198   6.344   7.448  0.00  0.00    +0.165 C 
ATOM     18  C   UNL     1       9.980   5.475   7.736  0.00  0.00    +0.174 C 
ENDROOT
BRANCH  13  10
ATOM     10  N   UNL     1      11.372   8.759   6.781  0.00  0.00    -0.289 NA
ATOM     14  C   UNL     1      10.980  10.137   7.101  0.00  0.00    +0.083 C 
ATOM     17  C   UNL     1      12.790   8.628   7.107  0.00  0.00    +0.085 C 
ATOM     19  C   UNL     1      12.180  10.911   6.557  0.00  0.00    +0.022 C 
ATOM     20  C   UNL     1      13.379   9.999   6.798  0.00  0.00    +0.017 C 
BRANCH  14  22
ATOM     22  C   UNL     1      10.742  10.443   8.583  0.00  0.00    +0.178 C 
BRANCH  22   6
ATOM      6  O   UNL     1       9.347  10.548   8.804  0.00  0.00    -0.381 OA
ATOM     25  C   UNL     1       9.054  11.332   9.956  0.00  0.00    +0.194 C 
ENDBRANCH  22   6
ENDBRANCH  14  22
ENDBRANCH  13  10
BRANCH  16   5
ATOM      5  O   UNL     1      11.784   5.981   6.205  0.00  0.00    -0.388 OA
ATOM     33  H   UNL     1      11.063   5.733   5.601  0.00  0.00    +0.210 HD
ENDBRANCH  16   5
BRANCH  15  21
ATOM     21  C   UNL     1       9.167   7.598   5.179  0.00  0.00    +0.139 C 
BRANCH  21  11
ATOM      8  O   UNL     1      10.501   7.334   2.658  0.00  0.00    -0.253 OA
ATOM     11  N   UNL     1       9.517   6.375   4.520  0.00  0.00    -0.297 N 
ATOM     12  N   UNL     1      10.384   5.000   2.885  0.00  0.00    -0.269 N 
ATOM     24  C   UNL     1      10.174   6.325   3.278  0.00  0.00    +0.304 C 
ATOM     34  H   UNL     1       9.265   5.501   4.969  0.00  0.00    +0.150 HD
ATOM     36  H   UNL     1      10.050   4.278   3.518  0.00  0.00    +0.156 HD
BRANCH  12  26
ATOM     26  C   UNL     1      11.009   4.534   1.705  0.00  0.00    +0.035 A 
ATOM     27  C   UNL     1      10.401   4.740   0.466  0.00  0.00    +0.027 A 
ATOM     28  C   UNL     1      12.234   3.870   1.778  0.00  0.00    +0.027 A 
ATOM     29  C   UNL     1      11.017   4.280  -0.698  0.00  0.00    +0.048 A 
ATOM     30  C   UNL     1      12.849   3.411   0.615  0.00  0.00    +0.048 A 
ATOM     31  C   UNL     1      12.241   3.616  -0.624  0.00  0.00    +0.130 A 
BRANCH  31   9
ATOM      9  O   UNL     1      12.842   3.167  -1.759  0.00  0.00    -0.406 OA
BRANCH   9  32
ATOM      1  F   UNL     1      12.862   2.017  -3.701  0.00  0.00    -0.133 F 
ATOM      2  F   UNL     1      11.732   1.185  -2.026  0.00  0.00    -0.133 F 
ATOM      3  F   UNL     1      10.994   2.974  -3.093  0.00  0.00    -0.133 F 
ATOM     32  C   UNL     1      12.092   2.334  -2.635  0.00  0.00    +0.575 C 
ENDBRANCH   9  32
ENDBRANCH  31   9
ENDBRANCH  12  26
ENDBRANCH  21  11
ENDBRANCH  15  21
BRANCH  18  23
ATOM     23  C   UNL     1      10.119   4.011   7.359  0.00  0.00    +0.190 C 
BRANCH  23   7
ATOM      7  O   UNL     1      10.072   3.894   5.946  0.00  0.00    -0.392 OA
ATOM     35  H   UNL     1       9.395   4.518   5.631  0.00  0.00    +0.210 HD
ENDBRANCH  23   7
ENDBRANCH  18  23
TORSDOF 11
ENDMDL
MODEL 6
REMARK VINA RESULT:      -5.7     16.829     20.649
REMARK  Name = 28961828
REMARK  12 active torsions:
REMARK  status: ('A' for Active; 'I' for Inactive)
REMARK    1  A    between atoms: O_5  and  C_16
REMARK    2  A    between atoms: O_6  and  C_22
REMARK    3  A    between atoms: O_6  and  C_25
REMARK    4  A    between atoms: O_7  and  C_23
REMARK    5  A    between atoms: O_9  and  C_31
REMARK    6  A    between atoms: O_9  and  C_32
REMARK    7  A    between atoms: N_10  and  C_13
REMARK    8  A    between atoms: N_11  and  C_21
REMARK    9  A    between atoms: N_12  and  C_26
REMARK   10  A    between atoms: C_14  and  C_22
REMARK   11  A    between atoms: C_15  and  C_21
REMARK   12  A    between atoms: C_18  and  C_23
REMARK                            x       y       z     vdW  Elec       q    Type
REMARK                         _______ _______ _______ _____ _____    ______ ____
ROOT
ATOM      4  O   UNL     1       8.952   5.404   7.250  0.00  0.00    -0.365 OA
ATOM     13  C   UNL     1      10.581   7.109   6.918  0.00  0.00    +0.118 C 
ATOM     15  C   UNL     1       9.619   6.147   6.205  0.00  0.00    +0.155 C 
ATOM     16  C   UNL     1      10.860   6.400   8.234  0.00  0.00    +0.165 C 
ATOM     18  C   UNL     1       9.491   5.799   8.527  0.00  0.00    +0.174 C 
ENDROOT
BRANCH  13  10
ATOM     10  N   UNL     1      11.758   7.510   6.168  0.00  0.00    -0.289 NA
ATOM     14  C   UNL     1      11.545   8.565   5.170  0.00  0.00    +0.083 C 
ATOM     17  C   UNL     1      12.860   7.943   7.024  0.00  0.00    +0.085 C 
ATOM     19  C   UNL     1      12.987   8.908   4.801  0.00  0.00    +0.022 C 
ATOM     20  C   UNL     1      13.778   8.727   6.093  0.00  0.00    +0.017 C 
BRANCH  14  22
ATOM     22  C   UNL     1      10.780   9.802   5.651  0.00  0.00    +0.178 C 
BRANCH  22   6
ATOM      6  O   UNL     1       9.512   9.823   5.021  0.00  0.00    -0.381 OA
ATOM     25  C   UNL     1       8.895  11.102   5.123  0.00  0.00    +0.194 C 
ENDBRANCH  22   6
ENDBRANCH  14  22
ENDBRANCH  13  10
BRANCH  16   5
ATOM      5  O   UNL     1      11.830   5.372   8.077  0.00  0.00    -0.388 OA
ATOM     33  H   UNL     1      11.844   4.852   8.899  0.00  0.00    +0.210 HD
ENDBRANCH  16   5
BRANCH  15  21
ATOM     21  C   UNL     1      10.245   5.130   5.258  0.00  0.00    +0.139 C 
BRANCH  21  11
ATOM      8  O   UNL     1      11.214   3.750   2.943  0.00  0.00    -0.253 OA
ATOM     11  N   UNL     1      10.304   5.640   3.920  0.00  0.00    -0.297 N 
ATOM     12  N   UNL     1      10.730   5.652   1.654  0.00  0.00    -0.269 N 
ATOM     24  C   UNL     1      10.795   4.900   2.830  0.00  0.00    +0.304 C 
ATOM     34  H   UNL     1       9.987   6.590   3.755  0.00  0.00    +0.150 HD
ATOM     36  H   UNL     1      10.355   6.594   1.735  0.00  0.00    +0.156 HD
BRANCH  12  26
ATOM     26  C   UNL     1      11.126   5.264   0.353  0.00  0.00    +0.035 A 
ATOM     27  C   UNL     1      10.163   5.036  -0.629  0.00  0.00    +0.027 A 
ATOM     28  C   UNL     1      12.480   5.111   0.052  0.00  0.00    +0.027 A 
ATOM     29  C   UNL     1      10.554   4.652  -1.913  0.00  0.00    +0.048 A 
ATOM     30  C   UNL     1      12.870   4.728  -1.231  0.00  0.00    +0.048 A 
ATOM     31  C   UNL     1      11.907   4.499  -2.214  0.00  0.00    +0.130 A 
BRANCH  31   9
ATOM      9  O   UNL     1      12.288   4.126  -3.466  0.00  0.00    -0.406 OA
BRANCH   9  32
ATOM      1  F   UNL     1      12.269   1.978  -2.770  0.00  0.00    -0.133 F 
ATOM      2  F   UNL     1      10.841   2.571  -4.314  0.00  0.00    -0.133 F 
ATOM      3  F   UNL     1      12.992   2.398  -4.790  0.00  0.00    -0.133 F 
ATOM     32  C   UNL     1      12.093   2.770  -3.853  0.00  0.00    +0.575 C 
ENDBRANCH   9  32
ENDBRANCH  31   9
ENDBRANCH  12  26
ENDBRANCH  21  11
ENDBRANCH  15  21
BRANCH  18  23
ATOM     23  C   UNL     1       9.489   4.603   9.462  0.00  0.00    +0.190 C 
BRANCH  23   7
ATOM      7  O   UNL     1      10.372   4.862  10.541  0.00  0.00    -0.392 OA
ATOM     35  H   UNL     1       9.931   4.556  11.351  0.00  0.00    +0.210 HD
ENDBRANCH  23   7
ENDBRANCH  18  23
TORSDOF 11
ENDMDL
MODEL 7
REMARK VINA RESULT:      -5.5     27.982     31.044
REMARK  Name = 28961828
REMARK  12 active torsions:
REMARK  status: ('A' for Active; 'I' for Inactive)
REMARK    1  A    between atoms: O_5  and  C_16
REMARK    2  A    between atoms: O_6  and  C_22
REMARK    3  A    between atoms: O_6  and  C_25
REMARK    4  A    between atoms: O_7  and  C_23
REMARK    5  A    between atoms: O_9  and  C_31
REMARK    6  A    between atoms: O_9  and  C_32
REMARK    7  A    between atoms: N_10  and  C_13
REMARK    8  A    between atoms: N_11  and  C_21
REMARK    9  A    between atoms: N_12  and  C_26
REMARK   10  A    between atoms: C_14  and  C_22
REMARK   11  A    between atoms: C_15  and  C_21
REMARK   12  A    between atoms: C_18  and  C_23
REMARK                            x       y       z     vdW  Elec       q    Type
REMARK                         _______ _______ _______ _____ _____    ______ ____
ROOT
ATOM      4  O   UNL     1      -5.562 -10.146  18.082  0.00  0.00    -0.365 OA
ATOM     13  C   UNL     1      -4.535 -11.809  16.724  0.00  0.00    +0.118 C 
ATOM     15  C   UNL     1      -5.202 -10.426  16.712  0.00  0.00    +0.155 C 
ATOM     16  C   UNL     1      -5.142 -12.472  17.950  0.00  0.00    +0.165 C 
ATOM     18  C   UNL     1      -5.225 -11.284  18.901  0.00  0.00    +0.174 C 
ENDROOT
BRANCH  13  10
ATOM     10  N   UNL     1      -4.629 -12.577  15.494  0.00  0.00    -0.289 NA
ATOM     14  C   UNL     1      -3.742 -12.144  14.408  0.00  0.00    +0.083 C 
ATOM     17  C   UNL     1      -4.399 -14.006  15.694  0.00  0.00    +0.085 C 
ATOM     19  C   UNL     1      -3.904 -13.302  13.425  0.00  0.00    +0.022 C 
ATOM     20  C   UNL     1      -4.088 -14.538  14.300  0.00  0.00    +0.017 C 
BRANCH  14  22
ATOM     22  C   UNL     1      -2.273 -11.928  14.782  0.00  0.00    +0.178 C 
BRANCH  22   6
ATOM      6  O   UNL     1      -1.933 -10.578  14.523  0.00  0.00    -0.381 OA
ATOM     25  C   UNL     1      -1.081 -10.046  15.532  0.00  0.00    +0.194 C 
ENDBRANCH  22   6
ENDBRANCH  14  22
ENDBRANCH  13  10
BRANCH  16   5
ATOM      5  O   UNL     1      -6.442 -12.979  17.678  0.00  0.00    -0.388 OA
ATOM     33  H   UNL     1      -6.657 -12.759  16.755  0.00  0.00    +0.210 HD
ENDBRANCH  16   5
BRANCH  15  21
ATOM     21  C   UNL     1      -6.467 -10.285  15.874  0.00  0.00    +0.139 C 
BRANCH  21  11
ATOM      8  O   UNL     1      -6.712 -11.121  13.146  0.00  0.00    -0.253 OA
ATOM     11  N   UNL     1      -6.229  -9.486  14.710  0.00  0.00    -0.297 N 
ATOM     12  N   UNL     1      -6.071  -8.966  12.468  0.00  0.00    -0.269 N 
ATOM     24  C   UNL     1      -6.370  -9.968  13.397  0.00  0.00    +0.304 C 
ATOM     34  H   UNL     1      -5.929  -8.525  14.842  0.00  0.00    +0.150 HD
ATOM     36  H   UNL     1      -5.802  -8.061  12.845  0.00  0.00    +0.156 HD
BRANCH  12  26
ATOM     26  C   UNL     1      -6.096  -9.056  11.057  0.00  0.00    +0.035 A 
ATOM     27  C   UNL     1      -4.900  -9.094  10.341  0.00  0.00    +0.027 A 
ATOM     28  C   UNL     1      -7.315  -9.106  10.382  0.00  0.00    +0.027 A 
ATOM     29  C   UNL     1      -4.924  -9.182   8.949  0.00  0.00    +0.048 A 
ATOM     30  C   UNL     1      -7.339  -9.194   8.991  0.00  0.00    +0.048 A 
ATOM     31  C   UNL     1      -6.143  -9.232   8.273  0.00  0.00    +0.130 A 
BRANCH  31   9
ATOM      9  O   UNL     1      -6.167  -9.318   6.916  0.00  0.00    -0.406 OA
BRANCH   9  32
ATOM      1  F   UNL     1      -7.666 -10.748   6.019  0.00  0.00    -0.133 F 
ATOM      2  F   UNL     1      -5.647 -10.719   5.183  0.00  0.00    -0.133 F 
ATOM      3  F   UNL     1      -6.016 -11.585   7.183  0.00  0.00    -0.133 F 
ATOM     32  C   UNL     1      -6.357 -10.599   6.325  0.00  0.00    +0.575 C 
ENDBRANCH   9  32
ENDBRANCH  31   9
ENDBRANCH  12  26
ENDBRANCH  21  11
ENDBRANCH  15  21
BRANCH  18  23
ATOM     23  C   UNL     1      -6.241 -11.412  20.022  0.00  0.00    +0.190 C 
BRANCH  23   7
ATOM      7  O   UNL     1      -7.365 -10.603  19.716  0.00  0.00    -0.392 OA
ATOM     35  H   UNL     1      -7.088  -9.980  19.023  0.00  0.00    +0.210 HD
ENDBRANCH  23   7
ENDBRANCH  18  23
TORSDOF 11
ENDMDL
MODEL 8
REMARK VINA RESULT:      -5.5     29.281     31.631
REMARK  Name = 28961828
REMARK  12 active torsions:
REMARK  status: ('A' for Active; 'I' for Inactive)
REMARK    1  A    between atoms: O_5  and  C_16
REMARK    2  A    between atoms: O_6  and  C_22
REMARK    3  A    between atoms: O_6  and  C_25
REMARK    4  A    between atoms: O_7  and  C_23
REMARK    5  A    between atoms: O_9  and  C_31
REMARK    6  A    between atoms: O_9  and  C_32
REMARK    7  A    between atoms: N_10  and  C_13
REMARK    8  A    between atoms: N_11  and  C_21
REMARK    9  A    between atoms: N_12  and  C_26
REMARK   10  A    between atoms: C_14  and  C_22
REMARK   11  A    between atoms: C_15  and  C_21
REMARK   12  A    between atoms: C_18  and  C_23
REMARK                            x       y       z     vdW  Elec       q    Type
REMARK                         _______ _______ _______ _____ _____    ______ ____
ROOT
ATOM      4  O   UNL     1      -7.105 -10.122   9.210  0.00  0.00    -0.365 OA
ATOM     13  C   UNL     1      -4.951 -10.533  10.138  0.00  0.00    +0.118 C 
ATOM     15  C   UNL     1      -6.417 -10.232  10.476  0.00  0.00    +0.155 C 
ATOM     16  C   UNL     1      -4.791  -9.936   8.748  0.00  0.00    +0.165 C 
ATOM     18  C   UNL     1      -6.148 -10.267   8.141  0.00  0.00    +0.174 C 
ENDROOT
BRANCH  13  10
ATOM     10  N   UNL     1      -3.966 -10.103  11.114  0.00  0.00    -0.289 NA
ATOM     14  C   UNL     1      -3.668 -11.066  12.180  0.00  0.00    +0.083 C 
ATOM     17  C   UNL     1      -2.691  -9.720  10.510  0.00  0.00    +0.085 C 
ATOM     19  C   UNL     1      -2.443 -10.416  12.822  0.00  0.00    +0.022 C 
ATOM     20  C   UNL     1      -1.699  -9.753  11.667  0.00  0.00    +0.017 C 
BRANCH  14  22
ATOM     22  C   UNL     1      -3.370 -12.499  11.729  0.00  0.00    +0.178 C 
BRANCH  22   6
ATOM      6  O   UNL     1      -3.974 -13.396  12.643  0.00  0.00    -0.381 OA
ATOM     25  C   UNL     1      -5.255 -12.938  13.063  0.00  0.00    +0.194 C 
ENDBRANCH  22   6
ENDBRANCH  14  22
ENDBRANCH  13  10
BRANCH  16   5
ATOM      5  O   UNL     1      -4.603  -8.528   8.805  0.00  0.00    -0.388 OA
ATOM     33  H   UNL     1      -3.940  -8.292   8.134  0.00  0.00    +0.210 HD
ENDBRANCH  16   5
BRANCH  15  21
ATOM     21  C   UNL     1      -6.691  -8.947  11.250  0.00  0.00    +0.139 C 
BRANCH  21  11
ATOM      8  O   UNL     1      -7.985 -10.203  13.475  0.00  0.00    -0.253 OA
ATOM     11  N   UNL     1      -6.194  -9.036  12.590  0.00  0.00    -0.297 N 
ATOM     12  N   UNL     1      -6.162  -9.601  14.826  0.00  0.00    -0.269 N 
ATOM     24  C   UNL     1      -6.890  -9.671  13.634  0.00  0.00    +0.304 C 
ATOM     34  H   UNL     1      -5.298  -8.606  12.798  0.00  0.00    +0.150 HD
ATOM     36  H   UNL     1      -5.266  -9.122  14.786  0.00  0.00    +0.156 HD
BRANCH  12  26
ATOM     26  C   UNL     1      -6.520 -10.118  16.092  0.00  0.00    +0.035 A 
ATOM     27  C   UNL     1      -7.466  -9.454  16.874  0.00  0.00    +0.027 A 
ATOM     28  C   UNL     1      -5.929 -11.291  16.561  0.00  0.00    +0.027 A 
ATOM     29  C   UNL     1      -7.819  -9.963  18.124  0.00  0.00    +0.048 A 
ATOM     30  C   UNL     1      -6.282 -11.801  17.810  0.00  0.00    +0.048 A 
ATOM     31  C   UNL     1      -7.227 -11.137  18.592  0.00  0.00    +0.130 A 
BRANCH  31   9
ATOM      9  O   UNL     1      -7.572 -11.634  19.811  0.00  0.00    -0.406 OA
BRANCH   9  32
ATOM      1  F   UNL     1      -8.969 -12.954  18.627  0.00  0.00    -0.133 F 
ATOM      2  F   UNL     1      -8.318 -13.650  20.594  0.00  0.00    -0.133 F 
ATOM      3  F   UNL     1      -9.751 -11.976  20.419  0.00  0.00    -0.133 F 
ATOM     32  C   UNL     1      -8.655 -12.554  19.881  0.00  0.00    +0.575 C 
ENDBRANCH   9  32
ENDBRANCH  31   9
ENDBRANCH  12  26
ENDBRANCH  21  11
ENDBRANCH  15  21
BRANCH  18  23
ATOM     23  C   UNL     1      -6.571  -9.396   6.971  0.00  0.00    +0.190 C 
BRANCH  23   7
ATOM      7  O   UNL     1      -7.073  -8.167   7.472  0.00  0.00    -0.392 OA
ATOM     35  H   UNL     1      -8.026  -8.288   7.622  0.00  0.00    +0.210 HD
ENDBRANCH  23   7
ENDBRANCH  18  23
TORSDOF 11
ENDMDL
MODEL 9
REMARK VINA RESULT:      -5.4     29.735     32.236
REMARK  Name = 28961828
REMARK  12 active torsions:
REMARK  status: ('A' for Active; 'I' for Inactive)
REMARK    1  A    between atoms: O_5  and  C_16
REMARK    2  A    between atoms: O_6  and  C_22
REMARK    3  A    between atoms: O_6  and  C_25
REMARK    4  A    between atoms: O_7  and  C_23
REMARK    5  A    between atoms: O_9  and  C_31
REMARK    6  A    between atoms: O_9  and  C_32
REMARK    7  A    between atoms: N_10  and  C_13
REMARK    8  A    between atoms: N_11  and  C_21
REMARK    9  A    between atoms: N_12  and  C_26
REMARK   10  A    between atoms: C_14  and  C_22
REMARK   11  A    between atoms: C_15  and  C_21
REMARK   12  A    between atoms: C_18  and  C_23
REMARK                            x       y       z     vdW  Elec       q    Type
REMARK                         _______ _______ _______ _____ _____    ______ ____
ROOT
ATOM      4  O   UNL     1      -5.121  -8.376  10.439  0.00  0.00    -0.365 OA
ATOM     13  C   UNL     1      -6.077  -8.874   8.316  0.00  0.00    +0.118 C 
ATOM     15  C   UNL     1      -6.393  -8.447   9.756  0.00  0.00    +0.155 C 
ATOM     16  C   UNL     1      -4.765  -9.628   8.462  0.00  0.00    +0.165 C 
ATOM     18  C   UNL     1      -4.078  -8.794   9.536  0.00  0.00    +0.174 C 
ENDROOT
BRANCH  13  10
ATOM     10  N   UNL     1      -7.128  -9.589   7.614  0.00  0.00    -0.289 NA
ATOM     14  C   UNL     1      -8.340  -8.812   7.325  0.00  0.00    +0.083 C 
ATOM     17  C   UNL     1      -6.679 -10.171   6.351  0.00  0.00    +0.085 C 
ATOM     19  C   UNL     1      -9.070  -9.760   6.376  0.00  0.00    +0.022 C 
ATOM     20  C   UNL     1      -7.966 -10.454   5.585  0.00  0.00    +0.017 C 
BRANCH  14  22
ATOM     22  C   UNL     1      -8.122  -7.437   6.687  0.00  0.00    +0.178 C 
BRANCH  22   6
ATOM      6  O   UNL     1      -8.347  -6.442   7.668  0.00  0.00    -0.381 OA
ATOM     25  C   UNL     1      -9.509  -6.719   8.443  0.00  0.00    +0.194 C 
ENDBRANCH  22   6
ENDBRANCH  14  22
ENDBRANCH  13  10
BRANCH  16   5
ATOM      5  O   UNL     1      -4.976 -10.956   8.925  0.00  0.00    -0.388 OA
ATOM     33  H   UNL     1      -4.295 -11.520   8.521  0.00  0.00    +0.210 HD
ENDBRANCH  16   5
BRANCH  15  21
ATOM     21  C   UNL     1      -7.287  -9.380  10.565  0.00  0.00    +0.139 C 
BRANCH  21  11
ATOM      8  O   UNL     1      -7.499  -9.406  13.421  0.00  0.00    -0.253 OA
ATOM     11  N   UNL     1      -6.517 -10.176  11.473  0.00  0.00    -0.297 N 
ATOM     12  N   UNL     1      -5.791 -11.016  13.494  0.00  0.00    -0.269 N 
ATOM     24  C   UNL     1      -6.678 -10.134  12.869  0.00  0.00    +0.304 C 
ATOM     34  H   UNL     1      -5.808 -10.792  11.087  0.00  0.00    +0.150 HD
ATOM     36  H   UNL     1      -5.173 -11.548  12.887  0.00  0.00    +0.156 HD
BRANCH  12  26
ATOM     26  C   UNL     1      -5.645 -11.262  14.879  0.00  0.00    +0.035 A 
ATOM     27  C   UNL     1      -6.316 -12.332  15.471  0.00  0.00    +0.027 A 
ATOM     28  C   UNL     1      -4.830 -10.435  15.653  0.00  0.00    +0.027 A 
ATOM     29  C   UNL     1      -6.172 -12.574  16.838  0.00  0.00    +0.048 A 
ATOM     30  C   UNL     1      -4.686 -10.678  17.018  0.00  0.00    +0.048 A 
ATOM     31  C   UNL     1      -5.357 -11.748  17.611  0.00  0.00    +0.130 A 
BRANCH  31   9
ATOM      9  O   UNL     1      -5.216 -11.985  18.944  0.00  0.00    -0.406 OA
BRANCH   9  32
ATOM      1  F   UNL     1      -6.832 -10.445  19.283  0.00  0.00    -0.133 F 
ATOM      2  F   UNL     1      -7.197 -12.487  19.973  0.00  0.00    -0.133 F 
ATOM      3  F   UNL     1      -5.745 -11.194  21.025  0.00  0.00    -0.133 F 
ATOM     32  C   UNL     1      -6.246 -11.541  19.819  0.00  0.00    +0.575 C 
ENDBRANCH   9  32
ENDBRANCH  31   9
ENDBRANCH  12  26
ENDBRANCH  21  11
ENDBRANCH  15  21
BRANCH  18  23
ATOM     23  C   UNL     1      -2.992  -9.506  10.322  0.00  0.00    +0.190 C 
BRANCH  23   7
ATOM      7  O   UNL     1      -3.574 -10.103  11.470  0.00  0.00    -0.392 OA
ATOM     35  H   UNL     1      -4.135 -10.834  11.158  0.00  0.00    +0.210 HD
ENDBRANCH  23   7
ENDBRANCH  18  23
TORSDOF 11
ENDMDL
MODEL 10
REMARK VINA RESULT:      -5.4     30.895     35.109
REMARK  Name = 28961828
REMARK  12 active torsions:
REMARK  status: ('A' for Active; 'I' for Inactive)
REMARK    1  A    between atoms: O_5  and  C_16
REMARK    2  A    between atoms: O_6  and  C_22
REMARK    3  A    between atoms: O_6  and  C_25
REMARK    4  A    between atoms: O_7  and  C_23
REMARK    5  A    between atoms: O_9  and  C_31
REMARK    6  A    between atoms: O_9  and  C_32
REMARK    7  A    between atoms: N_10  and  C_13
REMARK    8  A    between atoms: N_11  and  C_21
REMARK    9  A    between atoms: N_12  and  C_26
REMARK   10  A    between atoms: C_14  and  C_22
REMARK   11  A    between atoms: C_15  and  C_21
REMARK   12  A    between atoms: C_18  and  C_23
REMARK                            x       y       z     vdW  Elec       q    Type
REMARK                         _______ _______ _______ _____ _____    ______ ____
ROOT
ATOM      4  O   UNL     1     -16.550   2.307  23.872  0.00  0.00    -0.365 OA
ATOM     13  C   UNL     1     -17.720   4.210  24.697  0.00  0.00    +0.118 C 
ATOM     15  C   UNL     1     -16.499   3.751  23.887  0.00  0.00    +0.155 C 
ATOM     16  C   UNL     1     -17.992   3.022  25.607  0.00  0.00    +0.165 C 
ATOM     18  C   UNL     1     -17.668   1.867  24.668  0.00  0.00    +0.174 C 
ENDROOT
BRANCH  13  10
ATOM     10  N   UNL     1     -17.598   5.491  25.369  0.00  0.00    -0.289 NA
ATOM     14  C   UNL     1     -17.777   6.673  24.518  0.00  0.00    +0.083 C 
ATOM     17  C   UNL     1     -18.514   5.632  26.500  0.00  0.00    +0.085 C 
ATOM     19  C   UNL     1     -17.860   7.777  25.571  0.00  0.00    +0.022 C 
ATOM     20  C   UNL     1     -18.564   7.133  26.762  0.00  0.00    +0.017 C 
BRANCH  14  22
ATOM     22  C   UNL     1     -19.011   6.670  23.611  0.00  0.00    +0.178 C 
BRANCH  22   6
ATOM      6  O   UNL     1     -18.689   7.339  22.405  0.00  0.00    -0.381 OA
ATOM     25  C   UNL     1     -17.513   6.805  21.805  0.00  0.00    +0.194 C 
ENDBRANCH  22   6
ENDBRANCH  14  22
ENDBRANCH  13  10
BRANCH  16   5
ATOM      5  O   UNL     1     -17.116   3.013  26.727  0.00  0.00    -0.388 OA
ATOM     33  H   UNL     1     -17.222   3.860  27.191  0.00  0.00    +0.210 HD
ENDBRANCH  16   5
BRANCH  15  21
ATOM     21  C   UNL     1     -15.130   4.149  24.428  0.00  0.00    +0.139 C 
BRANCH  21  11
ATOM      8  O   UNL     1     -14.180   4.359  21.735  0.00  0.00    -0.253 OA
ATOM     11  N   UNL     1     -14.643   5.331  23.783  0.00  0.00    -0.297 N 
ATOM     12  N   UNL     1     -13.777   6.643  22.096  0.00  0.00    -0.269 N 
ATOM     24  C   UNL     1     -14.191   5.356  22.452  0.00  0.00    +0.304 C 
ATOM     34  H   UNL     1     -14.611   6.191  24.320  0.00  0.00    +0.150 HD
ATOM     36  H   UNL     1     -13.852   7.361  22.812  0.00  0.00    +0.156 HD
BRANCH  12  26
ATOM     26  C   UNL     1     -13.261   7.076  20.852  0.00  0.00    +0.035 A 
ATOM     27  C   UNL     1     -14.111   7.645  19.905  0.00  0.00    +0.027 A 
ATOM     28  C   UNL     1     -11.901   6.933  20.573  0.00  0.00    +0.027 A 
ATOM     29  C   UNL     1     -13.603   8.071  18.678  0.00  0.00    +0.048 A 
ATOM     30  C   UNL     1     -11.393   7.359  19.347  0.00  0.00    +0.048 A 
ATOM     31  C   UNL     1     -12.243   7.929  18.398  0.00  0.00    +0.130 A 
BRANCH  31   9
ATOM      9  O   UNL     1     -11.747   8.345  17.202  0.00  0.00    -0.406 OA
BRANCH   9  32
ATOM      1  F   UNL     1      -9.633   9.094  17.460  0.00  0.00    -0.133 F 
ATOM      2  F   UNL     1     -10.896  10.075  15.970  0.00  0.00    -0.133 F 
ATOM      3  F   UNL     1     -11.268  10.382  18.127  0.00  0.00    -0.133 F 
ATOM     32  C   UNL     1     -10.898   9.487  17.185  0.00  0.00    +0.575 C 
ENDBRANCH   9  32
ENDBRANCH  31   9
ENDBRANCH  12  26
ENDBRANCH  21  11
ENDBRANCH  15  21
BRANCH  18  23
ATOM     23  C   UNL     1     -17.314   0.555  25.345  0.00  0.00    +0.190 C 
BRANCH  23   7
ATOM      7  O   UNL     1     -17.251  -0.465  24.361  0.00  0.00    -0.392 OA
ATOM     35  H   UNL     1     -18.164  -0.756  24.192  0.00  0.00    +0.210 HD
ENDBRANCH  23   7
ENDBRANCH  18  23
TORSDOF 11
ENDMDL
