MODEL 1
REMARK VINA RESULT:      -5.4      0.000      0.000
REMARK  Name = 75537114
REMARK  3 active torsions:
REMARK  status: ('A' for Active; 'I' for Inactive)
REMARK    1  A    between atoms: N_4  and  C_13
REMARK    2  A    between atoms: N_5  and  C_14
REMARK    3  A    between atoms: C_13  and  C_15
REMARK                            x       y       z     vdW  Elec       q    Type
REMARK                         _______ _______ _______ _____ _____    ______ ____
ROOT
ATOM      2  O   UNL     1      10.969  10.921  25.292  0.00  0.00    -0.252 OA
ATOM      3  N   UNL     1      11.033  10.459  22.990  0.00  0.00    -0.278 N 
ATOM      4  N   UNL     1      11.576   9.070  20.605  0.00  0.00    -0.293 NA
ATOM      5  N   UNL     1      11.561  12.532  23.675  0.00  0.00    -0.287 N 
ATOM      7  C   UNL     1      11.218  11.210  21.766  0.00  0.00    +0.109 C 
ATOM      8  C   UNL     1      12.108  10.435  20.794  0.00  0.00    +0.109 C 
ATOM      9  C   UNL     1      11.796  12.542  22.241  0.00  0.00    +0.132 C 
ATOM     10  C   UNL     1      10.656   9.063  22.914  0.00  0.00    +0.125 C 
ATOM     11  C   UNL     1      11.532   8.339  21.888  0.00  0.00    +0.104 C 
ATOM     12  C   UNL     1      11.159  11.261  24.132  0.00  0.00    +0.305 C 
ATOM     14  C   UNL     1      11.865  13.674  24.510  0.00  0.00    +0.133 C 
ENDROOT
BRANCH   4  13
ATOM     13  C   UNL     1      12.386   8.338  19.631  0.00  0.00    +0.147 C 
BRANCH  13  15
ATOM      1  S   UNL     1      13.023   9.371  17.130  0.00  0.00    -0.079 S 
ATOM      6  N   UNL     1      10.757   8.288  17.739  0.00  0.00    -0.251 NA
ATOM     15  C   UNL     1      11.939   8.605  18.217  0.00  0.00    +0.092 A 
ATOM     16  C   UNL     1      11.824   9.280  15.908  0.00  0.00    +0.066 A 
ATOM     17  C   UNL     1      10.692   8.676  16.415  0.00  0.00    +0.119 A 
ENDBRANCH  13  15
ENDBRANCH   4  13
TORSDOF 2
ENDMDL
MODEL 2
REMARK VINA RESULT:      -5.3      5.602      7.329
REMARK  Name = 75537114
REMARK  3 active torsions:
REMARK  status: ('A' for Active; 'I' for Inactive)
REMARK    1  A    between atoms: N_4  and  C_13
REMARK    2  A    between atoms: N_5  and  C_14
REMARK    3  A    between atoms: C_13  and  C_15
REMARK                            x       y       z     vdW  Elec       q    Type
REMARK                         _______ _______ _______ _____ _____    ______ ____
ROOT
ATOM      2  O   UNL     1      12.038   6.611  18.811  0.00  0.00    -0.252 OA
ATOM      3  N   UNL     1      14.105   7.228  19.741  0.00  0.00    -0.278 N 
ATOM      4  N   UNL     1      16.843   7.099  20.371  0.00  0.00    -0.293 NA
ATOM      5  N   UNL     1      12.271   7.375  21.030  0.00  0.00    -0.287 N 
ATOM      7  C   UNL     1      14.572   7.835  20.970  0.00  0.00    +0.109 C 
ATOM      8  C   UNL     1      15.843   7.139  21.458  0.00  0.00    +0.109 C 
ATOM      9  C   UNL     1      13.375   7.716  21.912  0.00  0.00    +0.132 C 
ATOM     10  C   UNL     1      15.043   7.003  18.660  0.00  0.00    +0.125 C 
ATOM     11  C   UNL     1      16.322   6.361  19.203  0.00  0.00    +0.104 C 
ATOM     12  C   UNL     1      12.719   7.023  19.740  0.00  0.00    +0.305 C 
ATOM     14  C   UNL     1      10.910   7.274  21.509  0.00  0.00    +0.133 C 
ENDROOT
BRANCH   4  13
ATOM     13  C   UNL     1      18.086   6.489  20.845  0.00  0.00    +0.147 C 
BRANCH  13  15
ATOM      1  S   UNL     1      20.001   6.810  22.833  0.00  0.00    -0.079 S 
ATOM      6  N   UNL     1      18.816   8.752  21.607  0.00  0.00    -0.251 NA
ATOM     15  C   UNL     1      18.894   7.443  21.685  0.00  0.00    +0.092 A 
ATOM     16  C   UNL     1      20.424   8.413  23.273  0.00  0.00    +0.066 A 
ATOM     17  C   UNL     1      19.694   9.307  22.517  0.00  0.00    +0.119 A 
ENDBRANCH  13  15
ENDBRANCH   4  13
TORSDOF 2
ENDMDL
MODEL 3
REMARK VINA RESULT:      -4.8      5.362      6.689
REMARK  Name = 75537114
REMARK  3 active torsions:
REMARK  status: ('A' for Active; 'I' for Inactive)
REMARK    1  A    between atoms: N_4  and  C_13
REMARK    2  A    between atoms: N_5  and  C_14
REMARK    3  A    between atoms: C_13  and  C_15
REMARK                            x       y       z     vdW  Elec       q    Type
REMARK                         _______ _______ _______ _____ _____    ______ ____
ROOT
ATOM      2  O   UNL     1      19.487   8.776  22.371  0.00  0.00    -0.252 OA
ATOM      3  N   UNL     1      17.876   8.007  20.845  0.00  0.00    -0.278 N 
ATOM      4  N   UNL     1      15.340   7.461  19.757  0.00  0.00    -0.293 NA
ATOM      5  N   UNL     1      19.638   6.686  21.288  0.00  0.00    -0.287 N 
ATOM      7  C   UNL     1      17.726   6.886  19.941  0.00  0.00    +0.109 C 
ATOM      8  C   UNL     1      16.293   6.355  19.983  0.00  0.00    +0.109 C 
ATOM      9  C   UNL     1      18.790   5.896  20.410  0.00  0.00    +0.132 C 
ATOM     10  C   UNL     1      16.904   9.081  20.809  0.00  0.00    +0.125 C 
ATOM     11  C   UNL     1      15.487   8.503  20.793  0.00  0.00    +0.104 C 
ATOM     12  C   UNL     1      19.056   7.933  21.596  0.00  0.00    +0.305 C 
ATOM     14  C   UNL     1      20.848   6.151  21.872  0.00  0.00    +0.133 C 
ENDROOT
BRANCH   4  13
ATOM     13  C   UNL     1      13.968   6.954  19.736  0.00  0.00    +0.147 C 
BRANCH  13  15
ATOM      1  S   UNL     1      13.884   8.224  17.265  0.00  0.00    -0.079 S 
ATOM      6  N   UNL     1      11.835   7.847  18.795  0.00  0.00    -0.251 NA
ATOM     15  C   UNL     1      13.130   7.646  18.694  0.00  0.00    +0.092 A 
ATOM     16  C   UNL     1      12.361   8.796  16.722  0.00  0.00    +0.066 A 
ATOM     17  C   UNL     1      11.396   8.507  17.664  0.00  0.00    +0.119 A 
ENDBRANCH  13  15
ENDBRANCH   4  13
TORSDOF 2
ENDMDL
MODEL 4
REMARK VINA RESULT:      -4.8     28.892     30.106
REMARK  Name = 75537114
REMARK  3 active torsions:
REMARK  status: ('A' for Active; 'I' for Inactive)
REMARK    1  A    between atoms: N_4  and  C_13
REMARK    2  A    between atoms: N_5  and  C_14
REMARK    3  A    between atoms: C_13  and  C_15
REMARK                            x       y       z     vdW  Elec       q    Type
REMARK                         _______ _______ _______ _____ _____    ______ ____
ROOT
ATOM      2  O   UNL     1     -17.224   1.946  22.543  0.00  0.00    -0.252 OA
ATOM      3  N   UNL     1     -16.494   2.238  24.756  0.00  0.00    -0.278 N 
ATOM      4  N   UNL     1     -16.474   2.037  27.561  0.00  0.00    -0.293 NA
ATOM      5  N   UNL     1     -16.440   4.009  23.375  0.00  0.00    -0.287 N 
ATOM      7  C   UNL     1     -15.858   3.283  25.530  0.00  0.00    +0.109 C 
ATOM      8  C   UNL     1     -16.483   3.369  26.923  0.00  0.00    +0.109 C 
ATOM      9  C   UNL     1     -16.036   4.532  24.670  0.00  0.00    +0.132 C 
ATOM     10  C   UNL     1     -16.673   0.927  25.346  0.00  0.00    +0.125 C 
ATOM     11  C   UNL     1     -17.244   1.064  26.760  0.00  0.00    +0.104 C 
ATOM     12  C   UNL     1     -16.773   2.640  23.443  0.00  0.00    +0.305 C 
ATOM     14  C   UNL     1     -16.612   4.864  22.222  0.00  0.00    +0.133 C 
ENDROOT
BRANCH   4  13
ATOM     13  C   UNL     1     -17.015   2.120  28.918  0.00  0.00    +0.147 C 
BRANCH  13  15
ATOM      1  S   UNL     1     -15.313   2.315  31.106  0.00  0.00    -0.079 S 
ATOM      6  N   UNL     1     -15.963   0.101  29.944  0.00  0.00    -0.251 NA
ATOM     15  C   UNL     1     -16.143   1.402  29.914  0.00  0.00    +0.092 A 
ATOM     16  C   UNL     1     -14.650   0.859  31.725  0.00  0.00    +0.066 A 
ATOM     17  C   UNL     1     -15.108  -0.209  30.982  0.00  0.00    +0.119 A 
ENDBRANCH  13  15
ENDBRANCH   4  13
TORSDOF 2
ENDMDL
MODEL 5
REMARK VINA RESULT:      -4.7     26.169     27.410
REMARK  Name = 75537114
REMARK  3 active torsions:
REMARK  status: ('A' for Active; 'I' for Inactive)
REMARK    1  A    between atoms: N_4  and  C_13
REMARK    2  A    between atoms: N_5  and  C_14
REMARK    3  A    between atoms: C_13  and  C_15
REMARK                            x       y       z     vdW  Elec       q    Type
REMARK                         _______ _______ _______ _____ _____    ______ ____
ROOT
ATOM      2  O   UNL     1      -8.318 -10.822  19.717  0.00  0.00    -0.252 OA
ATOM      3  N   UNL     1      -6.756 -11.047  17.978  0.00  0.00    -0.278 N 
ATOM      4  N   UNL     1      -4.256 -11.175  16.694  0.00  0.00    -0.293 NA
ATOM      5  N   UNL     1      -8.561  -9.757  17.627  0.00  0.00    -0.287 N 
ATOM      7  C   UNL     1      -6.660 -10.658  16.586  0.00  0.00    +0.109 C 
ATOM      8  C   UNL     1      -5.247 -10.168  16.266  0.00  0.00    +0.109 C 
ATOM      9  C   UNL     1      -7.755  -9.606  16.427  0.00  0.00    +0.132 C 
ATOM     10  C   UNL     1      -5.745 -11.917  18.542  0.00  0.00    +0.125 C 
ATOM     11  C   UNL     1      -4.350 -11.423  18.147  0.00  0.00    +0.104 C 
ATOM     12  C   UNL     1      -7.929 -10.577  18.583  0.00  0.00    +0.305 C 
ATOM     14  C   UNL     1      -9.784  -9.011  17.829  0.00  0.00    +0.133 C 
ENDROOT
BRANCH   4  13
ATOM     13  C   UNL     1      -2.905 -10.743  16.338  0.00  0.00    +0.147 C 
BRANCH  13  15
ATOM      1  S   UNL     1      -2.828 -12.729  14.396  0.00  0.00    -0.079 S 
ATOM      6  N   UNL     1      -2.029 -10.297  14.043  0.00  0.00    -0.251 NA
ATOM     15  C   UNL     1      -2.549 -11.121  14.925  0.00  0.00    +0.092 A 
ATOM     16  C   UNL     1      -2.205 -12.304  12.855  0.00  0.00    +0.066 A 
ATOM     17  C   UNL     1      -1.832 -10.977  12.858  0.00  0.00    +0.119 A 
ENDBRANCH  13  15
ENDBRANCH   4  13
TORSDOF 2
ENDMDL
MODEL 6
REMARK VINA RESULT:      -4.6     28.332     29.943
REMARK  Name = 75537114
REMARK  3 active torsions:
REMARK  status: ('A' for Active; 'I' for Inactive)
REMARK    1  A    between atoms: N_4  and  C_13
REMARK    2  A    between atoms: N_5  and  C_14
REMARK    3  A    between atoms: C_13  and  C_15
REMARK                            x       y       z     vdW  Elec       q    Type
REMARK                         _______ _______ _______ _____ _____    ______ ____
ROOT
ATOM      2  O   UNL     1     -15.783  -0.471  30.209  0.00  0.00    -0.252 OA
ATOM      3  N   UNL     1     -15.073   1.626  30.994  0.00  0.00    -0.278 N 
ATOM      4  N   UNL     1     -14.754   3.802  32.747  0.00  0.00    -0.293 NA
ATOM      5  N   UNL     1     -15.871   1.488  28.899  0.00  0.00    -0.287 N 
ATOM      7  C   UNL     1     -14.874   2.949  30.441  0.00  0.00    +0.109 C 
ATOM      8  C   UNL     1     -15.368   4.015  31.420  0.00  0.00    +0.109 C 
ATOM      9  C   UNL     1     -15.624   2.904  29.111  0.00  0.00    +0.132 C 
ATOM     10  C   UNL     1     -14.641   1.351  32.349  0.00  0.00    +0.125 C 
ATOM     11  C   UNL     1     -15.105   2.472  33.283  0.00  0.00    +0.104 C 
ATOM     12  C   UNL     1     -15.595   0.728  30.053  0.00  0.00    +0.305 C 
ATOM     14  C   UNL     1     -16.473   0.989  27.682  0.00  0.00    +0.133 C 
ENDROOT
BRANCH   4  13
ATOM     13  C   UNL     1     -15.172   4.852  33.675  0.00  0.00    +0.147 C 
BRANCH  13  15
ATOM      1  S   UNL     1     -15.941   7.443  33.029  0.00  0.00    -0.079 S 
ATOM      6  N   UNL     1     -13.516   6.557  32.910  0.00  0.00    -0.251 NA
ATOM     15  C   UNL     1     -14.752   6.219  33.204  0.00  0.00    +0.092 A 
ATOM     16  C   UNL     1     -14.715   8.527  32.515  0.00  0.00    +0.066 A 
ATOM     17  C   UNL     1     -13.497   7.880  32.515  0.00  0.00    +0.119 A 
ENDBRANCH  13  15
ENDBRANCH   4  13
TORSDOF 2
ENDMDL
MODEL 7
REMARK VINA RESULT:      -4.5     26.263     27.508
REMARK  Name = 75537114
REMARK  3 active torsions:
REMARK  status: ('A' for Active; 'I' for Inactive)
REMARK    1  A    between atoms: N_4  and  C_13
REMARK    2  A    between atoms: N_5  and  C_14
REMARK    3  A    between atoms: C_13  and  C_15
REMARK                            x       y       z     vdW  Elec       q    Type
REMARK                         _______ _______ _______ _____ _____    ______ ____
ROOT
ATOM      2  O   UNL     1      -1.445 -10.601  15.212  0.00  0.00    -0.252 OA
ATOM      3  N   UNL     1      -2.750 -10.670  13.260  0.00  0.00    -0.278 N 
ATOM      4  N   UNL     1      -3.618 -10.043  10.660  0.00  0.00    -0.293 NA
ATOM      5  N   UNL     1      -3.803 -10.641  15.245  0.00  0.00    -0.287 N 
ATOM      7  C   UNL     1      -4.151 -10.827  12.931  0.00  0.00    +0.109 C 
ATOM      8  C   UNL     1      -4.542  -9.876  11.800  0.00  0.00    +0.109 C 
ATOM      9  C   UNL     1      -4.867 -10.575  14.256  0.00  0.00    +0.132 C 
ATOM     10  C   UNL     1      -1.767 -10.668  12.196  0.00  0.00    +0.125 C 
ATOM     11  C   UNL     1      -2.227  -9.750  11.061  0.00  0.00    +0.104 C 
ATOM     12  C   UNL     1      -2.527 -10.637  14.643  0.00  0.00    +0.305 C 
ATOM     14  C   UNL     1      -4.068 -10.561  16.664  0.00  0.00    +0.133 C 
ENDROOT
BRANCH   4  13
ATOM     13  C   UNL     1      -4.019  -9.180   9.548  0.00  0.00    +0.147 C 
BRANCH  13  15
ATOM      1  S   UNL     1      -6.448  -9.254   8.199  0.00  0.00    -0.079 S 
ATOM      6  N   UNL     1      -4.576 -11.019   7.954  0.00  0.00    -0.251 NA
ATOM     15  C   UNL     1      -4.903  -9.903   8.567  0.00  0.00    +0.092 A 
ATOM     16  C   UNL     1      -6.718 -10.567   7.129  0.00  0.00    +0.066 A 
ATOM     17  C   UNL     1      -5.617 -11.398   7.130  0.00  0.00    +0.119 A 
ENDBRANCH  13  15
ENDBRANCH   4  13
TORSDOF 2
ENDMDL
MODEL 8
REMARK VINA RESULT:      -4.5     26.596     28.543
REMARK  Name = 75537114
REMARK  3 active torsions:
REMARK  status: ('A' for Active; 'I' for Inactive)
REMARK    1  A    between atoms: N_4  and  C_13
REMARK    2  A    between atoms: N_5  and  C_14
REMARK    3  A    between atoms: C_13  and  C_15
REMARK                            x       y       z     vdW  Elec       q    Type
REMARK                         _______ _______ _______ _____ _____    ______ ____
ROOT
ATOM      2  O   UNL     1      -4.620 -10.454  13.238  0.00  0.00    -0.252 OA
ATOM      3  N   UNL     1      -5.093 -11.077  15.453  0.00  0.00    -0.278 N 
ATOM      4  N   UNL     1      -6.414 -11.149  17.935  0.00  0.00    -0.293 NA
ATOM      5  N   UNL     1      -2.958 -10.653  14.898  0.00  0.00    -0.287 N 
ATOM      7  C   UNL     1      -4.336 -11.408  16.642  0.00  0.00    +0.109 C 
ATOM      8  C   UNL     1      -4.985 -10.783  17.877  0.00  0.00    +0.109 C 
ATOM      9  C   UNL     1      -2.929 -10.901  16.330  0.00  0.00    +0.132 C 
ATOM     10  C   UNL     1      -6.530 -11.257  15.454  0.00  0.00    +0.125 C 
ATOM     11  C   UNL     1      -7.130 -10.670  16.734  0.00  0.00    +0.104 C 
ATOM     12  C   UNL     1      -4.269 -10.701  14.383  0.00  0.00    +0.305 C 
ATOM     14  C   UNL     1      -1.775 -10.258  14.165  0.00  0.00    +0.133 C 
ENDROOT
BRANCH   4  13
ATOM     13  C   UNL     1      -7.031 -10.606  19.145  0.00  0.00    +0.147 C 
BRANCH  13  15
ATOM      1  S   UNL     1      -8.273 -13.077  19.416  0.00  0.00    -0.079 S 
ATOM      6  N   UNL     1      -9.381 -10.807  19.962  0.00  0.00    -0.251 NA
ATOM     15  C   UNL     1      -8.272 -11.365  19.532  0.00  0.00    +0.092 A 
ATOM     16  C   UNL     1      -9.890 -13.090  19.987  0.00  0.00    +0.066 A 
ATOM     17  C   UNL     1     -10.308 -11.797  20.222  0.00  0.00    +0.119 A 
ENDBRANCH  13  15
ENDBRANCH   4  13
TORSDOF 2
ENDMDL
MODEL 9
REMARK VINA RESULT:      -4.5     26.878     28.223
REMARK  Name = 75537114
REMARK  3 active torsions:
REMARK  status: ('A' for Active; 'I' for Inactive)
REMARK    1  A    between atoms: N_4  and  C_13
REMARK    2  A    between atoms: N_5  and  C_14
REMARK    3  A    between atoms: C_13  and  C_15
REMARK                            x       y       z     vdW  Elec       q    Type
REMARK                         _______ _______ _______ _____ _____    ______ ____
ROOT
ATOM      2  O   UNL     1      -4.287 -11.790  18.571  0.00  0.00    -0.252 OA
ATOM      3  N   UNL     1      -6.072 -10.431  17.872  0.00  0.00    -0.278 N 
ATOM      4  N   UNL     1      -8.722  -9.595  17.444  0.00  0.00    -0.293 NA
ATOM      5  N   UNL     1      -4.342 -10.722  16.469  0.00  0.00    -0.287 N 
ATOM      7  C   UNL     1      -6.360  -9.559  16.754  0.00  0.00    +0.109 C 
ATOM      8  C   UNL     1      -7.807  -9.743  16.294  0.00  0.00    +0.109 C 
ATOM      9  C   UNL     1      -5.305  -9.937  15.716  0.00  0.00    +0.132 C 
ATOM     10  C   UNL     1      -6.989 -10.476  18.992  0.00  0.00    +0.125 C 
ATOM     11  C   UNL     1      -8.428 -10.600  18.485  0.00  0.00    +0.104 C 
ATOM     12  C   UNL     1      -4.830 -11.069  17.745  0.00  0.00    +0.305 C 
ATOM     14  C   UNL     1      -3.108 -11.194  15.879  0.00  0.00    +0.133 C 
ENDROOT
BRANCH   4  13
ATOM     13  C   UNL     1     -10.113  -9.709  17.005  0.00  0.00    +0.147 C 
BRANCH  13  15
ATOM      1  S   UNL     1     -11.190  -8.410  14.797  0.00  0.00    -0.079 S 
ATOM      6  N   UNL     1     -10.671  -7.276  17.060  0.00  0.00    -0.251 NA
ATOM     15  C   UNL     1     -10.624  -8.421  16.416  0.00  0.00    +0.092 A 
ATOM     16  C   UNL     1     -11.534  -6.737  14.953  0.00  0.00    +0.066 A 
ATOM     17  C   UNL     1     -11.193  -6.313  16.220  0.00  0.00    +0.119 A 
ENDBRANCH  13  15
ENDBRANCH   4  13
TORSDOF 2
ENDMDL
MODEL 10
REMARK VINA RESULT:      -4.4     26.512     28.325
REMARK  Name = 75537114
REMARK  3 active torsions:
REMARK  status: ('A' for Active; 'I' for Inactive)
REMARK    1  A    between atoms: N_4  and  C_13
REMARK    2  A    between atoms: N_5  and  C_14
REMARK    3  A    between atoms: C_13  and  C_15
REMARK                            x       y       z     vdW  Elec       q    Type
REMARK                         _______ _______ _______ _____ _____    ______ ____
ROOT
ATOM      2  O   UNL     1      -1.719 -11.040  15.977  0.00  0.00    -0.252 OA
ATOM      3  N   UNL     1      -4.009 -10.843  16.461  0.00  0.00    -0.278 N 
ATOM      4  N   UNL     1      -6.510 -11.432  17.604  0.00  0.00    -0.293 NA
ATOM      5  N   UNL     1      -3.348 -10.612  14.327  0.00  0.00    -0.287 N 
ATOM      7  C   UNL     1      -5.212 -10.472  15.747  0.00  0.00    +0.109 C 
ATOM      8  C   UNL     1      -6.368 -11.395  16.135  0.00  0.00    +0.109 C 
ATOM      9  C   UNL     1      -4.800 -10.544  14.278  0.00  0.00    +0.132 C 
ATOM     10  C   UNL     1      -4.070 -11.053  17.893  0.00  0.00    +0.125 C 
ATOM     11  C   UNL     1      -5.275 -11.932  18.241  0.00  0.00    +0.104 C 
ATOM     12  C   UNL     1      -2.878 -10.851  15.634  0.00  0.00    +0.305 C 
ATOM     14  C   UNL     1      -2.539 -10.584  13.128  0.00  0.00    +0.133 C 
ENDROOT
BRANCH   4  13
ATOM     13  C   UNL     1      -7.651 -12.265  17.985  0.00  0.00    +0.147 C 
BRANCH  13  15
ATOM      1  S   UNL     1      -9.767 -10.513  17.560  0.00  0.00    -0.079 S 
ATOM      6  N   UNL     1      -9.034 -11.399  19.875  0.00  0.00    -0.251 NA
ATOM     15  C   UNL     1      -8.764 -11.450  18.589  0.00  0.00    +0.092 A 
ATOM     16  C   UNL     1     -10.646  -9.986  18.936  0.00  0.00    +0.066 A 
ATOM     17  C   UNL     1     -10.113 -10.560  20.071  0.00  0.00    +0.119 A 
ENDBRANCH  13  15
ENDBRANCH   4  13
TORSDOF 2
ENDMDL
