MODEL 1
REMARK VINA RESULT:      -7.5      0.000      0.000
REMARK  Name = 45361713
REMARK  7 active torsions:
REMARK  status: ('A' for Active; 'I' for Inactive)
REMARK    1  A    between atoms: N_9  and  C_24
REMARK    2  A    between atoms: C_12  and  C_18
REMARK    3  A    between atoms: C_13  and  C_22
REMARK    4  A    between atoms: C_23  and  C_26
REMARK    5  A    between atoms: C_24  and  C_25
REMARK    6  A    between atoms: C_24  and  C_28
REMARK    7  A    between atoms: C_25  and  C_27
REMARK                            x       y       z     vdW  Elec       q    Type
REMARK                         _______ _______ _______ _____ _____    ______ ____
ROOT
ATOM      2  O   UNL     1       8.122   8.134  -2.087  0.00  0.00    -0.275 OA
ATOM      4  O   UNL     1      12.260   2.331  -2.899  0.00  0.00    -0.270 OA
ATOM      6  N   UNL     1       9.135   6.081  -2.506  0.00  0.00    -0.287 N 
ATOM      7  N   UNL     1      11.515   4.543  -2.785  0.00  0.00    -0.294 N 
ATOM     13  C   UNL     1      10.301   6.396  -1.669  0.00  0.00    +0.179 C 
ATOM     16  C   UNL     1       9.088   4.726  -3.081  0.00  0.00    +0.127 C 
ATOM     17  C   UNL     1      11.624   5.911  -2.262  0.00  0.00    +0.140 C 
ATOM     18  C   UNL     1       8.081   7.000  -2.570  0.00  0.00    +0.219 C 
ATOM     19  C   UNL     1      10.415   4.343  -3.723  0.00  0.00    +0.127 C 
ATOM     23  C   UNL     1      12.353   3.476  -2.459  0.00  0.00    +0.247 C 
ENDROOT
BRANCH  23  26
ATOM      1  F   UNL     1      14.191   3.301   2.023  0.00  0.00    -0.205 F 
ATOM     26  C   UNL     1      13.449   3.720  -1.514  0.00  0.00    +0.040 A 
ATOM     31  C   UNL     1      13.296   3.388  -0.168  0.00  0.00    +0.051 A 
ATOM     32  C   UNL     1      14.643   4.284  -1.963  0.00  0.00    +0.013 A 
ATOM     35  C   UNL     1      14.338   3.620   0.730  0.00  0.00    +0.124 A 
ATOM     36  C   UNL     1      15.685   4.517  -1.064  0.00  0.00    +0.004 A 
ATOM     38  C   UNL     1      15.532   4.184   0.282  0.00  0.00    +0.038 A 
ENDBRANCH  23  26
BRANCH  18  12
ATOM      8  N   UNL     1       5.432   8.848  -4.442  0.00  0.00    -0.316 NA
ATOM     12  C   UNL     1       6.836   6.550  -3.283  0.00  0.00    +0.078 C 
ATOM     14  C   UNL     1       5.590   7.161  -2.641  0.00  0.00    +0.028 C 
ATOM     15  C   UNL     1       6.908   6.891  -4.772  0.00  0.00    +0.028 C 
ATOM     20  C   UNL     1       5.421   8.639  -2.995  0.00  0.00    +0.081 C 
ATOM     21  C   UNL     1       6.684   8.381  -5.037  0.00  0.00    +0.081 C 
ATOM     41  H   UNL     1       5.314   9.841  -4.640  0.00  0.00    +0.122 HD
ENDBRANCH  18  12
BRANCH  13  22
ATOM      3  O   UNL     1       9.549   4.662  -0.207  0.00  0.00    -0.274 OA
ATOM      9  N   UNL     1      10.395   6.624   0.715  0.00  0.00    -0.302 N 
ATOM     22  C   UNL     1      10.040   5.781  -0.324  0.00  0.00    +0.236 C 
ATOM     42  H   UNL     1      10.832   7.517   0.503  0.00  0.00    +0.150 HD
BRANCH   9  24
ATOM     24  C   UNL     1      10.223   6.278   2.107  0.00  0.00    +0.163 C 
BRANCH  24  28
ATOM      5  O   UNL     1      12.530   5.807   2.712  0.00  0.00    -0.274 OA
ATOM     11  N   UNL     1      11.038   4.062   2.628  0.00  0.00    -0.328 N 
ATOM     28  C   UNL     1      11.395   5.389   2.495  0.00  0.00    +0.231 C 
ATOM     44  H   UNL     1      11.724   3.364   2.894  0.00  0.00    +0.145 HD
ATOM     45  H   UNL     1      10.092   3.734   2.466  0.00  0.00    +0.145 HD
ENDBRANCH  24  28
BRANCH  24  25
ATOM     25  C   UNL     1      10.172   7.516   3.010  0.00  0.00    +0.069 C 
BRANCH  25  27
ATOM     10  N   UNL     1       7.749   7.081   5.750  0.00  0.00    -0.360 N 
ATOM     27  C   UNL     1       9.410   7.273   4.291  0.00  0.00    -0.020 A 
ATOM     29  C   UNL     1       9.963   6.894   5.547  0.00  0.00    +0.003 A 
ATOM     30  C   UNL     1       8.048   7.379   4.448  0.00  0.00    +0.087 A 
ATOM     33  C   UNL     1       8.900   6.782   6.444  0.00  0.00    +0.047 A 
ATOM     34  C   UNL     1      11.269   6.637   6.006  0.00  0.00    +0.010 A 
ATOM     37  C   UNL     1       9.078   6.422   7.785  0.00  0.00    +0.026 A 
ATOM     39  C   UNL     1      11.463   6.276   7.344  0.00  0.00    +0.001 A 
ATOM     40  C   UNL     1      10.383   6.171   8.219  0.00  0.00    +0.002 A 
ATOM     43  H   UNL     1       6.819   7.082   6.146  0.00  0.00    +0.165 HD
ENDBRANCH  25  27
ENDBRANCH  24  25
ENDBRANCH   9  24
ENDBRANCH  13  22
TORSDOF 7
ENDMDL
MODEL 2
REMARK VINA RESULT:      -7.4      3.916      8.266
REMARK  Name = 45361713
REMARK  7 active torsions:
REMARK  status: ('A' for Active; 'I' for Inactive)
REMARK    1  A    between atoms: N_9  and  C_24
REMARK    2  A    between atoms: C_12  and  C_18
REMARK    3  A    between atoms: C_13  and  C_22
REMARK    4  A    between atoms: C_23  and  C_26
REMARK    5  A    between atoms: C_24  and  C_25
REMARK    6  A    between atoms: C_24  and  C_28
REMARK    7  A    between atoms: C_25  and  C_27
REMARK                            x       y       z     vdW  Elec       q    Type
REMARK                         _______ _______ _______ _____ _____    ______ ____
ROOT
ATOM      2  O   UNL     1      10.991   6.330   5.268  0.00  0.00    -0.275 OA
ATOM      4  O   UNL     1      15.855  11.273   3.434  0.00  0.00    -0.270 OA
ATOM      6  N   UNL     1      12.252   8.154   4.561  0.00  0.00    -0.287 N 
ATOM      7  N   UNL     1      14.736   9.546   4.541  0.00  0.00    -0.294 N 
ATOM     13  C   UNL     1      13.508   7.391   4.572  0.00  0.00    +0.179 C 
ATOM     16  C   UNL     1      12.331   9.539   4.066  0.00  0.00    +0.127 C 
ATOM     17  C   UNL     1      14.699   8.189   5.101  0.00  0.00    +0.140 C 
ATOM     18  C   UNL     1      11.055   7.490   4.854  0.00  0.00    +0.219 C 
ATOM     19  C   UNL     1      13.493  10.294   4.696  0.00  0.00    +0.127 C 
ATOM     23  C   UNL     1      15.827  10.136   3.902  0.00  0.00    +0.247 C 
ENDROOT
BRANCH  23  26
ATOM      1  F   UNL     1      19.719   8.008   5.859  0.00  0.00    -0.205 F 
ATOM     26  C   UNL     1      17.059   9.349   3.769  0.00  0.00    +0.040 A 
ATOM     31  C   UNL     1      17.819   9.047   4.899  0.00  0.00    +0.051 A 
ATOM     32  C   UNL     1      17.470   8.903   2.513  0.00  0.00    +0.013 A 
ATOM     35  C   UNL     1      18.989   8.299   4.774  0.00  0.00    +0.124 A 
ATOM     36  C   UNL     1      18.641   8.156   2.386  0.00  0.00    +0.004 A 
ATOM     38  C   UNL     1      19.400   7.853   3.517  0.00  0.00    +0.038 A 
ENDBRANCH  23  26
BRANCH  18  12
ATOM      8  N   UNL     1       7.750   7.443   6.588  0.00  0.00    -0.316 NA
ATOM     12  C   UNL     1       9.785   8.266   4.644  0.00  0.00    +0.078 C 
ATOM     14  C   UNL     1       8.630   7.332   4.280  0.00  0.00    +0.028 C 
ATOM     15  C   UNL     1       9.445   9.099   5.881  0.00  0.00    +0.028 C 
ATOM     20  C   UNL     1       8.113   6.551   5.489  0.00  0.00    +0.081 C 
ATOM     21  C   UNL     1       8.894   8.244   7.023  0.00  0.00    +0.081 C 
ATOM     41  H   UNL     1       7.407   6.889   7.373  0.00  0.00    +0.122 HD
ENDBRANCH  18  12
BRANCH  13  22
ATOM      3  O   UNL     1      14.297   7.632   2.330  0.00  0.00    -0.274 OA
ATOM      9  N   UNL     1      13.231   5.656   2.943  0.00  0.00    -0.302 N 
ATOM     22  C   UNL     1      13.737   6.925   3.163  0.00  0.00    +0.236 C 
ATOM     42  H   UNL     1      12.820   5.143   3.718  0.00  0.00    +0.150 HD
BRANCH   9  24
ATOM     24  C   UNL     1      13.303   4.988   1.663  0.00  0.00    +0.163 C 
BRANCH  24  28
ATOM      5  O   UNL     1      14.882   3.170   1.990  0.00  0.00    -0.274 OA
ATOM     11  N   UNL     1      15.616   5.094   0.972  0.00  0.00    -0.328 N 
ATOM     28  C   UNL     1      14.663   4.310   1.588  0.00  0.00    +0.231 C 
ATOM     44  H   UNL     1      16.564   4.756   0.846  0.00  0.00    +0.145 HD
ATOM     45  H   UNL     1      15.416   6.026   0.625  0.00  0.00    +0.145 HD
ENDBRANCH  24  28
BRANCH  24  25
ATOM     25  C   UNL     1      12.182   3.957   1.484  0.00  0.00    +0.069 C 
BRANCH  25  27
ATOM     10  N   UNL     1       9.704   5.026  -1.023  0.00  0.00    -0.360 N 
ATOM     27  C   UNL     1      11.321   4.236   0.275  0.00  0.00    -0.020 A 
ATOM     29  C   UNL     1      11.520   3.730  -1.041  0.00  0.00    +0.003 A 
ATOM     30  C   UNL     1      10.198   5.028   0.254  0.00  0.00    +0.087 A 
ATOM     33  C   UNL     1      10.491   4.241  -1.835  0.00  0.00    +0.047 A 
ATOM     34  C   UNL     1      12.479   2.885  -1.634  0.00  0.00    +0.010 A 
ATOM     37  C   UNL     1      10.373   3.949  -3.199  0.00  0.00    +0.026 A 
ATOM     39  C   UNL     1      12.373   2.584  -2.996  0.00  0.00    +0.001 A 
ATOM     40  C   UNL     1      11.336   3.108  -3.765  0.00  0.00    +0.002 A 
ATOM     43  H   UNL     1       8.880   5.527  -1.326  0.00  0.00    +0.165 HD
ENDBRANCH  25  27
ENDBRANCH  24  25
ENDBRANCH   9  24
ENDBRANCH  13  22
TORSDOF 7
ENDMDL
MODEL 3
REMARK VINA RESULT:      -7.3     25.171     28.199
REMARK  Name = 45361713
REMARK  7 active torsions:
REMARK  status: ('A' for Active; 'I' for Inactive)
REMARK    1  A    between atoms: N_9  and  C_24
REMARK    2  A    between atoms: C_12  and  C_18
REMARK    3  A    between atoms: C_13  and  C_22
REMARK    4  A    between atoms: C_23  and  C_26
REMARK    5  A    between atoms: C_24  and  C_25
REMARK    6  A    between atoms: C_24  and  C_28
REMARK    7  A    between atoms: C_25  and  C_27
REMARK                            x       y       z     vdW  Elec       q    Type
REMARK                         _______ _______ _______ _____ _____    ______ ____
ROOT
ATOM      2  O   UNL     1      -8.559  -9.156  16.729  0.00  0.00    -0.275 OA
ATOM      4  O   UNL     1      -6.890 -11.556  10.178  0.00  0.00    -0.270 OA
ATOM      6  N   UNL     1      -8.345 -10.163  14.643  0.00  0.00    -0.287 N 
ATOM      7  N   UNL     1      -7.178 -10.179  12.045  0.00  0.00    -0.294 N 
ATOM     13  C   UNL     1      -6.965  -9.692  14.468  0.00  0.00    +0.179 C 
ATOM     16  C   UNL     1      -8.874 -11.046  13.589  0.00  0.00    +0.127 C 
ATOM     17  C   UNL     1      -6.653  -9.238  13.042  0.00  0.00    +0.140 C 
ATOM     18  C   UNL     1      -9.004  -9.895  15.847  0.00  0.00    +0.219 C 
ATOM     19  C   UNL     1      -8.596 -10.489  12.199  0.00  0.00    +0.127 C 
ATOM     23  C   UNL     1      -6.447 -10.767  11.013  0.00  0.00    +0.247 C 
ENDROOT
BRANCH  23  26
ATOM      1  F   UNL     1      -1.790 -11.614  12.061  0.00  0.00    -0.205 F 
ATOM     26  C   UNL     1      -5.024 -10.426  10.892  0.00  0.00    +0.040 A 
ATOM     31  C   UNL     1      -4.064 -11.197  11.547  0.00  0.00    +0.051 A 
ATOM     32  C   UNL     1      -4.633  -9.331  10.121  0.00  0.00    +0.013 A 
ATOM     35  C   UNL     1      -2.712 -10.874  11.432  0.00  0.00    +0.124 A 
ATOM     36  C   UNL     1      -3.281  -9.007  10.007  0.00  0.00    +0.004 A 
ATOM     38  C   UNL     1      -2.321  -9.779  10.661  0.00  0.00    +0.038 A 
ENDBRANCH  23  26
BRANCH  18  12
ATOM      8  N   UNL     1     -12.418  -8.548  16.534  0.00  0.00    -0.316 NA
ATOM     12  C   UNL     1     -10.338 -10.558  16.050  0.00  0.00    +0.078 C 
ATOM     14  C   UNL     1     -10.887 -10.263  17.446  0.00  0.00    +0.028 C 
ATOM     15  C   UNL     1     -11.330 -10.125  14.969  0.00  0.00    +0.028 C 
ATOM     20  C   UNL     1     -11.426  -8.836  17.568  0.00  0.00    +0.081 C 
ATOM     21  C   UNL     1     -11.851  -8.705  15.195  0.00  0.00    +0.081 C 
ATOM     41  H   UNL     1     -12.756  -7.593  16.648  0.00  0.00    +0.122 HD
ENDBRANCH  18  12
BRANCH  13  22
ATOM      3  O   UNL     1      -6.203 -11.957  14.450  0.00  0.00    -0.274 OA
ATOM      9  N   UNL     1      -5.137 -10.421  15.836  0.00  0.00    -0.302 N 
ATOM     22  C   UNL     1      -6.071 -10.820  14.896  0.00  0.00    +0.236 C 
ATOM     42  H   UNL     1      -5.091  -9.442  16.105  0.00  0.00    +0.150 HD
BRANCH   9  24
ATOM     24  C   UNL     1      -4.173 -11.322  16.425  0.00  0.00    +0.163 C 
BRANCH  24  28
ATOM      5  O   UNL     1      -2.583 -10.332  14.876  0.00  0.00    -0.274 OA
ATOM     11  N   UNL     1      -1.816 -11.088  16.906  0.00  0.00    -0.328 N 
ATOM     28  C   UNL     1      -2.797 -10.872  15.960  0.00  0.00    +0.231 C 
ATOM     44  H   UNL     1      -0.854 -10.822  16.727  0.00  0.00    +0.145 HD
ATOM     45  H   UNL     1      -2.010 -11.515  17.805  0.00  0.00    +0.145 HD
ENDBRANCH  24  28
BRANCH  24  25
ATOM     25  C   UNL     1      -4.244 -11.325  17.957  0.00  0.00    +0.069 C 
BRANCH  25  27
ATOM     10  N   UNL     1      -7.514 -10.629  19.501  0.00  0.00    -0.360 N 
ATOM     27  C   UNL     1      -5.661 -11.292  18.476  0.00  0.00    -0.020 A 
ATOM     29  C   UNL     1      -6.660 -12.286  18.275  0.00  0.00    +0.003 A 
ATOM     30  C   UNL     1      -6.216 -10.287  19.233  0.00  0.00    +0.087 A 
ATOM     33  C   UNL     1      -7.812 -11.845  18.929  0.00  0.00    +0.047 A 
ATOM     34  C   UNL     1      -6.695 -13.521  17.598  0.00  0.00    +0.010 A 
ATOM     37  C   UNL     1      -9.004 -12.580  18.939  0.00  0.00    +0.026 A 
ATOM     39  C   UNL     1      -7.878 -14.267  17.600  0.00  0.00    +0.001 A 
ATOM     40  C   UNL     1      -9.013 -13.803  18.261  0.00  0.00    +0.002 A 
ATOM     43  H   UNL     1      -8.161 -10.071  20.042  0.00  0.00    +0.165 HD
ENDBRANCH  25  27
ENDBRANCH  24  25
ENDBRANCH   9  24
ENDBRANCH  13  22
TORSDOF 7
ENDMDL
MODEL 4
REMARK VINA RESULT:      -7.3     24.660     27.707
REMARK  Name = 45361713
REMARK  7 active torsions:
REMARK  status: ('A' for Active; 'I' for Inactive)
REMARK    1  A    between atoms: N_9  and  C_24
REMARK    2  A    between atoms: C_12  and  C_18
REMARK    3  A    between atoms: C_13  and  C_22
REMARK    4  A    between atoms: C_23  and  C_26
REMARK    5  A    between atoms: C_24  and  C_25
REMARK    6  A    between atoms: C_24  and  C_28
REMARK    7  A    between atoms: C_25  and  C_27
REMARK                            x       y       z     vdW  Elec       q    Type
REMARK                         _______ _______ _______ _____ _____    ______ ____
ROOT
ATOM      2  O   UNL     1      -7.154 -12.331  10.827  0.00  0.00    -0.275 OA
ATOM      4  O   UNL     1      -8.872  -8.873  16.872  0.00  0.00    -0.270 OA
ATOM      6  N   UNL     1      -7.879 -10.938  12.543  0.00  0.00    -0.287 N 
ATOM      7  N   UNL     1      -8.434 -10.556  15.310  0.00  0.00    -0.294 N 
ATOM     13  C   UNL     1      -7.041 -11.606  13.548  0.00  0.00    +0.179 C 
ATOM     16  C   UNL     1      -8.633  -9.758  13.001  0.00  0.00    +0.127 C 
ATOM     17  C   UNL     1      -7.731 -11.778  14.901  0.00  0.00    +0.140 C 
ATOM     18  C   UNL     1      -7.787 -11.343  11.207  0.00  0.00    +0.219 C 
ATOM     19  C   UNL     1      -9.358 -10.030  14.312  0.00  0.00    +0.127 C 
ATOM     23  C   UNL     1      -8.281  -9.897  16.531  0.00  0.00    +0.247 C 
ENDROOT
BRANCH  23  26
ATOM      1  F   UNL     1      -7.368 -12.626  20.433  0.00  0.00    -0.205 F 
ATOM     26  C   UNL     1      -7.343 -10.461  17.509  0.00  0.00    +0.040 A 
ATOM     31  C   UNL     1      -7.811 -11.291  18.527  0.00  0.00    +0.051 A 
ATOM     32  C   UNL     1      -5.982 -10.166  17.419  0.00  0.00    +0.013 A 
ATOM     35  C   UNL     1      -6.919 -11.828  19.455  0.00  0.00    +0.124 A 
ATOM     36  C   UNL     1      -5.090 -10.702  18.348  0.00  0.00    +0.004 A 
ATOM     38  C   UNL     1      -5.558 -11.533  19.365  0.00  0.00    +0.038 A 
ENDBRANCH  23  26
BRANCH  18  12
ATOM      8  N   UNL     1      -9.767 -12.212   8.165  0.00  0.00    -0.316 NA
ATOM     12  C   UNL     1      -8.519 -10.506  10.196  0.00  0.00    +0.078 C 
ATOM     14  C   UNL     1      -7.923 -10.692   8.800  0.00  0.00    +0.028 C 
ATOM     15  C   UNL     1     -10.014 -10.830  10.201  0.00  0.00    +0.028 C 
ATOM     20  C   UNL     1      -8.317 -12.032   8.176  0.00  0.00    +0.081 C 
ATOM     21  C   UNL     1     -10.320 -12.164   9.518  0.00  0.00    +0.081 C 
ATOM     41  H   UNL     1      -9.992 -13.112   7.740  0.00  0.00    +0.122 HD
ENDBRANCH  18  12
BRANCH  13  22
ATOM      3  O   UNL     1      -5.798  -9.565  13.577  0.00  0.00    -0.274 OA
ATOM      9  N   UNL     1      -4.665 -11.578  13.865  0.00  0.00    -0.302 N 
ATOM     22  C   UNL     1      -5.786 -10.790  13.668  0.00  0.00    +0.236 C 
ATOM     42  H   UNL     1      -4.776 -12.583  13.965  0.00  0.00    +0.150 HD
BRANCH   9  24
ATOM     24  C   UNL     1      -3.331 -11.038  13.990  0.00  0.00    +0.163 C 
BRANCH  24  28
ATOM      5  O   UNL     1      -2.149 -10.585  16.066  0.00  0.00    -0.274 OA
ATOM     11  N   UNL     1      -3.343 -12.540  15.884  0.00  0.00    -0.328 N 
ATOM     28  C   UNL     1      -2.855 -11.342  15.403  0.00  0.00    +0.231 C 
ATOM     44  H   UNL     1      -3.112 -12.857  16.819  0.00  0.00    +0.145 HD
ATOM     45  H   UNL     1      -3.943 -13.145  15.334  0.00  0.00    +0.145 HD
ENDBRANCH  24  28
BRANCH  24  25
ATOM     25  C   UNL     1      -2.364 -11.635  12.961  0.00  0.00    +0.069 C 
BRANCH  25  27
ATOM     10  N   UNL     1      -3.923 -13.015   9.923  0.00  0.00    -0.360 N 
ATOM     27  C   UNL     1      -3.028 -11.926  11.637  0.00  0.00    -0.020 A 
ATOM     29  C   UNL     1      -3.450 -10.968  10.672  0.00  0.00    +0.003 A 
ATOM     30  C   UNL     1      -3.332 -13.175  11.147  0.00  0.00    +0.087 A 
ATOM     33  C   UNL     1      -4.007 -11.678   9.607  0.00  0.00    +0.047 A 
ATOM     34  C   UNL     1      -3.411  -9.561  10.604  0.00  0.00    +0.010 A 
ATOM     37  C   UNL     1      -4.532 -11.049   8.472  0.00  0.00    +0.026 A 
ATOM     39  C   UNL     1      -3.931  -8.918   9.475  0.00  0.00    +0.001 A 
ATOM     40  C   UNL     1      -4.481  -9.652   8.427  0.00  0.00    +0.002 A 
ATOM     43  H   UNL     1      -4.249 -13.769   9.334  0.00  0.00    +0.165 HD
ENDBRANCH  25  27
ENDBRANCH  24  25
ENDBRANCH   9  24
ENDBRANCH  13  22
TORSDOF 7
ENDMDL
MODEL 5
REMARK VINA RESULT:      -7.3     23.512     25.722
REMARK  Name = 45361713
REMARK  7 active torsions:
REMARK  status: ('A' for Active; 'I' for Inactive)
REMARK    1  A    between atoms: N_9  and  C_24
REMARK    2  A    between atoms: C_12  and  C_18
REMARK    3  A    between atoms: C_13  and  C_22
REMARK    4  A    between atoms: C_23  and  C_26
REMARK    5  A    between atoms: C_24  and  C_25
REMARK    6  A    between atoms: C_24  and  C_28
REMARK    7  A    between atoms: C_25  and  C_27
REMARK                            x       y       z     vdW  Elec       q    Type
REMARK                         _______ _______ _______ _____ _____    ______ ____
ROOT
ATOM      2  O   UNL     1      -7.556  -7.482   8.470  0.00  0.00    -0.275 OA
ATOM      4  O   UNL     1      -3.737 -13.286  10.255  0.00  0.00    -0.270 OA
ATOM      6  N   UNL     1      -6.557  -9.559   8.791  0.00  0.00    -0.287 N 
ATOM      7  N   UNL     1      -4.357 -11.089   9.756  0.00  0.00    -0.294 N 
ATOM     13  C   UNL     1      -5.844  -9.118   9.998  0.00  0.00    +0.179 C 
ATOM     16  C   UNL     1      -6.417 -10.980   8.431  0.00  0.00    +0.127 C 
ATOM     17  C   UNL     1      -4.418  -9.662  10.095  0.00  0.00    +0.140 C 
ATOM     18  C   UNL     1      -7.440  -8.672   8.166  0.00  0.00    +0.219 C 
ATOM     19  C   UNL     1      -4.962 -11.429   8.472  0.00  0.00    +0.127 C 
ATOM     23  C   UNL     1      -3.787 -12.091  10.542  0.00  0.00    +0.247 C 
ENDROOT
BRANCH  23  26
ATOM      1  F   UNL     1      -2.992 -12.905  15.254  0.00  0.00    -0.205 F 
ATOM     26  C   UNL     1      -3.187 -11.706  11.825  0.00  0.00    +0.040 A 
ATOM     31  C   UNL     1      -3.379 -12.504  12.953  0.00  0.00    +0.051 A 
ATOM     32  C   UNL     1      -2.424 -10.541  11.916  0.00  0.00    +0.013 A 
ATOM     35  C   UNL     1      -2.808 -12.138  14.172  0.00  0.00    +0.124 A 
ATOM     36  C   UNL     1      -1.854 -10.175  13.135  0.00  0.00    +0.004 A 
ATOM     38  C   UNL     1      -2.045 -10.974  14.262  0.00  0.00    +0.038 A 
ENDBRANCH  23  26
BRANCH  18  12
ATOM      8  N   UNL     1      -8.416  -7.338   4.818  0.00  0.00    -0.316 NA
ATOM     12  C   UNL     1      -8.283  -9.231   7.054  0.00  0.00    +0.078 C 
ATOM     14  C   UNL     1      -9.504  -8.346   6.798  0.00  0.00    +0.028 C 
ATOM     15  C   UNL     1      -7.456  -9.406   5.779  0.00  0.00    +0.028 C 
ATOM     20  C   UNL     1      -9.140  -7.058   6.056  0.00  0.00    +0.081 C 
ATOM     21  C   UNL     1      -7.179  -8.073   5.080  0.00  0.00    +0.081 C 
ATOM     41  H   UNL     1      -8.194  -6.460   4.351  0.00  0.00    +0.122 HD
ENDBRANCH  18  12
BRANCH  13  22
ATOM      3  O   UNL     1      -7.875  -9.804  11.053  0.00  0.00    -0.274 OA
ATOM      9  N   UNL     1      -5.951  -9.592  12.345  0.00  0.00    -0.302 N 
ATOM     22  C   UNL     1      -6.679  -9.548  11.169  0.00  0.00    +0.236 C 
ATOM     42  H   UNL     1      -4.953  -9.399  12.319  0.00  0.00    +0.150 HD
BRANCH   9  24
ATOM     24  C   UNL     1      -6.527  -9.954  13.619  0.00  0.00    +0.163 C 
BRANCH  24  28
ATOM      5  O   UNL     1      -6.398 -12.356  13.267  0.00  0.00    -0.274 OA
ATOM     11  N   UNL     1      -8.457 -11.409  13.646  0.00  0.00    -0.328 N 
ATOM     28  C   UNL     1      -7.089 -11.360  13.473  0.00  0.00    +0.231 C 
ATOM     44  H   UNL     1      -8.957 -12.290  13.586  0.00  0.00    +0.145 HD
ATOM     45  H   UNL     1      -9.013 -10.583  13.837  0.00  0.00    +0.145 HD
ENDBRANCH  24  28
BRANCH  24  25
ATOM     25  C   UNL     1      -5.499  -9.906  14.756  0.00  0.00    +0.069 C 
BRANCH  25  27
ATOM     10  N   UNL     1      -7.559  -9.501  17.782  0.00  0.00    -0.360 N 
ATOM     27  C   UNL     1      -6.140  -9.898  16.122  0.00  0.00    -0.020 A 
ATOM     29  C   UNL     1      -5.637 -10.525  17.298  0.00  0.00    +0.003 A 
ATOM     30  C   UNL     1      -7.322  -9.277  16.453  0.00  0.00    +0.087 A 
ATOM     33  C   UNL     1      -6.546 -10.259  18.324  0.00  0.00    +0.047 A 
ATOM     34  C   UNL     1      -4.493 -11.294  17.587  0.00  0.00    +0.010 A 
ATOM     37  C   UNL     1      -6.368 -10.728  19.631  0.00  0.00    +0.026 A 
ATOM     39  C   UNL     1      -4.301 -11.769  18.889  0.00  0.00    +0.001 A 
ATOM     40  C   UNL     1      -5.225 -11.489  19.894  0.00  0.00    +0.002 A 
ATOM     43  H   UNL     1      -8.360  -9.157  18.293  0.00  0.00    +0.165 HD
ENDBRANCH  25  27
ENDBRANCH  24  25
ENDBRANCH   9  24
ENDBRANCH  13  22
TORSDOF 7
ENDMDL
MODEL 6
REMARK VINA RESULT:      -7.2     24.341     27.274
REMARK  Name = 45361713
REMARK  7 active torsions:
REMARK  status: ('A' for Active; 'I' for Inactive)
REMARK    1  A    between atoms: N_9  and  C_24
REMARK    2  A    between atoms: C_12  and  C_18
REMARK    3  A    between atoms: C_13  and  C_22
REMARK    4  A    between atoms: C_23  and  C_26
REMARK    5  A    between atoms: C_24  and  C_25
REMARK    6  A    between atoms: C_24  and  C_28
REMARK    7  A    between atoms: C_25  and  C_27
REMARK                            x       y       z     vdW  Elec       q    Type
REMARK                         _______ _______ _______ _____ _____    ______ ____
ROOT
ATOM      2  O   UNL     1      -7.767 -12.118  10.286  0.00  0.00    -0.275 OA
ATOM      4  O   UNL     1      -8.683  -8.633  16.489  0.00  0.00    -0.270 OA
ATOM      6  N   UNL     1      -8.290 -10.735  12.082  0.00  0.00    -0.287 N 
ATOM      7  N   UNL     1      -8.395 -10.321  14.898  0.00  0.00    -0.294 N 
ATOM     13  C   UNL     1      -7.247 -11.317  12.938  0.00  0.00    +0.179 C 
ATOM     16  C   UNL     1      -9.040  -9.599  12.646  0.00  0.00    +0.127 C 
ATOM     17  C   UNL     1      -7.685 -11.502  14.390  0.00  0.00    +0.140 C 
ATOM     18  C   UNL     1      -8.397 -11.167  10.756  0.00  0.00    +0.219 C 
ATOM     19  C   UNL     1      -9.511  -9.886  14.065  0.00  0.00    +0.127 C 
ATOM     23  C   UNL     1      -8.086  -9.622  16.066  0.00  0.00    +0.247 C 
ENDROOT
BRANCH  23  26
ATOM      1  F   UNL     1      -6.343 -11.850  20.003  0.00  0.00    -0.205 F 
ATOM     26  C   UNL     1      -6.957 -10.094  16.876  0.00  0.00    +0.040 A 
ATOM     31  C   UNL     1      -7.192 -10.760  18.078  0.00  0.00    +0.051 A 
ATOM     32  C   UNL     1      -5.649  -9.875  16.443  0.00  0.00    +0.013 A 
ATOM     35  C   UNL     1      -6.118 -11.209  18.848  0.00  0.00    +0.124 A 
ATOM     36  C   UNL     1      -4.575 -10.323  17.213  0.00  0.00    +0.004 A 
ATOM     38  C   UNL     1      -4.810 -10.991  18.415  0.00  0.00    +0.038 A 
ENDBRANCH  23  26
BRANCH  18  12
ATOM      8  N   UNL     1     -10.550 -12.200   7.887  0.00  0.00    -0.316 NA
ATOM     12  C   UNL     1      -9.349 -10.409   9.873  0.00  0.00    +0.078 C 
ATOM     14  C   UNL     1      -8.888 -10.447   8.416  0.00  0.00    +0.028 C 
ATOM     15  C   UNL     1     -10.771 -10.955  10.012  0.00  0.00    +0.028 C 
ATOM     20  C   UNL     1      -9.149 -11.805   7.760  0.00  0.00    +0.081 C 
ATOM     21  C   UNL     1     -10.953 -12.291   9.290  0.00  0.00    +0.081 C 
ATOM     41  H   UNL     1     -10.687 -13.105   7.437  0.00  0.00    +0.122 HD
ENDBRANCH  18  12
BRANCH  13  22
ATOM      3  O   UNL     1      -6.170  -9.202  12.656  0.00  0.00    -0.274 OA
ATOM      9  N   UNL     1      -4.860 -11.106  12.930  0.00  0.00    -0.302 N 
ATOM     22  C   UNL     1      -6.053 -10.413  12.831  0.00  0.00    +0.236 C 
ATOM     42  H   UNL     1      -4.880 -12.105  13.115  0.00  0.00    +0.150 HD
BRANCH   9  24
ATOM     24  C   UNL     1      -3.566 -10.471  12.837  0.00  0.00    +0.163 C 
BRANCH  24  28
ATOM      5  O   UNL     1      -2.803 -12.104  14.468  0.00  0.00    -0.274 OA
ATOM     11  N   UNL     1      -1.868 -10.005  14.494  0.00  0.00    -0.328 N 
ATOM     28  C   UNL     1      -2.739 -10.962  14.015  0.00  0.00    +0.231 C 
ATOM     44  H   UNL     1      -1.250 -10.208  15.272  0.00  0.00    +0.145 HD
ATOM     45  H   UNL     1      -1.810  -9.074  14.097  0.00  0.00    +0.145 HD
ENDBRANCH  24  28
BRANCH  24  25
ATOM     25  C   UNL     1      -2.856 -10.791  11.516  0.00  0.00    +0.069 C 
BRANCH  25  27
ATOM     10  N   UNL     1      -4.339  -8.679   8.888  0.00  0.00    -0.360 N 
ATOM     27  C   UNL     1      -3.540 -10.175  10.321  0.00  0.00    -0.020 A 
ATOM     29  C   UNL     1      -4.184 -10.874   9.260  0.00  0.00    +0.003 A 
ATOM     30  C   UNL     1      -3.653  -8.829  10.063  0.00  0.00    +0.087 A 
ATOM     33  C   UNL     1      -4.676  -9.911   8.376  0.00  0.00    +0.047 A 
ATOM     34  C   UNL     1      -4.395 -12.235   8.967  0.00  0.00    +0.010 A 
ATOM     37  C   UNL     1      -5.371 -10.244   7.207  0.00  0.00    +0.026 A 
ATOM     39  C   UNL     1      -5.088 -12.583   7.802  0.00  0.00    +0.001 A 
ATOM     40  C   UNL     1      -5.569 -11.602   6.938  0.00  0.00    +0.002 A 
ATOM     43  H   UNL     1      -4.567  -7.793   8.460  0.00  0.00    +0.165 HD
ENDBRANCH  25  27
ENDBRANCH  24  25
ENDBRANCH   9  24
ENDBRANCH  13  22
TORSDOF 7
ENDMDL
MODEL 7
REMARK VINA RESULT:      -7.2     25.375     29.374
REMARK  Name = 45361713
REMARK  7 active torsions:
REMARK  status: ('A' for Active; 'I' for Inactive)
REMARK    1  A    between atoms: N_9  and  C_24
REMARK    2  A    between atoms: C_12  and  C_18
REMARK    3  A    between atoms: C_13  and  C_22
REMARK    4  A    between atoms: C_23  and  C_26
REMARK    5  A    between atoms: C_24  and  C_25
REMARK    6  A    between atoms: C_24  and  C_28
REMARK    7  A    between atoms: C_25  and  C_27
REMARK                            x       y       z     vdW  Elec       q    Type
REMARK                         _______ _______ _______ _____ _____    ______ ____
ROOT
ATOM      2  O   UNL     1      -5.823 -10.005  17.511  0.00  0.00    -0.275 OA
ATOM      4  O   UNL     1     -12.931  -9.074  17.248  0.00  0.00    -0.270 OA
ATOM      6  N   UNL     1      -8.145 -10.031  17.658  0.00  0.00    -0.287 N 
ATOM      7  N   UNL     1     -10.629  -8.677  17.330  0.00  0.00    -0.294 N 
ATOM     13  C   UNL     1      -8.305  -9.070  16.558  0.00  0.00    +0.179 C 
ATOM     16  C   UNL     1      -9.385 -10.591  18.223  0.00  0.00    +0.127 C 
ATOM     17  C   UNL     1      -9.414  -8.046  16.800  0.00  0.00    +0.140 C 
ATOM     18  C   UNL     1      -6.860 -10.476  17.986  0.00  0.00    +0.219 C 
ATOM     19  C   UNL     1     -10.411  -9.504  18.512  0.00  0.00    +0.127 C 
ATOM     23  C   UNL     1     -11.914  -8.544  16.802  0.00  0.00    +0.247 C 
ENDROOT
BRANCH  23  26
ATOM      1  F   UNL     1     -12.280  -8.032  11.995  0.00  0.00    -0.205 F 
ATOM     26  C   UNL     1     -12.090  -7.701  15.614  0.00  0.00    +0.040 A 
ATOM     31  C   UNL     1     -12.101  -8.279  14.344  0.00  0.00    +0.051 A 
ATOM     32  C   UNL     1     -12.247  -6.322  15.754  0.00  0.00    +0.013 A 
ATOM     35  C   UNL     1     -12.269  -7.477  13.215  0.00  0.00    +0.124 A 
ATOM     36  C   UNL     1     -12.413  -5.520  14.625  0.00  0.00    +0.004 A 
ATOM     38  C   UNL     1     -12.426  -6.098  13.355  0.00  0.00    +0.038 A 
ENDBRANCH  23  26
BRANCH  18  12
ATOM      8  N   UNL     1      -4.452 -13.297  18.408  0.00  0.00    -0.316 NA
ATOM     12  C   UNL     1      -6.768 -11.594  18.986  0.00  0.00    +0.078 C 
ATOM     14  C   UNL     1      -6.898 -12.953  18.296  0.00  0.00    +0.028 C 
ATOM     15  C   UNL     1      -5.464 -11.507  19.782  0.00  0.00    +0.028 C 
ATOM     20  C   UNL     1      -5.627 -13.344  17.540  0.00  0.00    +0.081 C 
ATOM     21  C   UNL     1      -4.254 -11.958  18.963  0.00  0.00    +0.081 C 
ATOM     41  H   UNL     1      -3.626 -13.565  17.872  0.00  0.00    +0.122 HD
ENDBRANCH  18  12
BRANCH  13  22
ATOM      3  O   UNL     1      -9.508 -10.659  15.238  0.00  0.00    -0.274 OA
ATOM      9  N   UNL     1      -7.614  -9.649  14.337  0.00  0.00    -0.302 N 
ATOM     22  C   UNL     1      -8.562  -9.879  15.319  0.00  0.00    +0.236 C 
ATOM     42  H   UNL     1      -6.894  -8.950  14.496  0.00  0.00    +0.150 HD
BRANCH   9  24
ATOM     24  C   UNL     1      -7.622 -10.320  13.057  0.00  0.00    +0.163 C 
BRANCH  24  28
ATOM      5  O   UNL     1      -6.360  -8.422  12.213  0.00  0.00    -0.274 OA
ATOM     11  N   UNL     1      -7.820  -9.489  10.796  0.00  0.00    -0.328 N 
ATOM     28  C   UNL     1      -7.199  -9.298  12.013  0.00  0.00    +0.231 C 
ATOM     44  H   UNL     1      -7.618  -8.883  10.008  0.00  0.00    +0.145 HD
ATOM     45  H   UNL     1      -8.494 -10.230  10.638  0.00  0.00    +0.145 HD
ENDBRANCH  24  28
BRANCH  24  25
ATOM     25  C   UNL     1      -6.681 -11.530  13.031  0.00  0.00    +0.069 C 
BRANCH  25  27
ATOM     10  N   UNL     1      -3.665 -10.917  15.054  0.00  0.00    -0.360 N 
ATOM     27  C   UNL     1      -5.320 -11.224  13.608  0.00  0.00    -0.020 A 
ATOM     29  C   UNL     1      -4.154 -10.856  12.878  0.00  0.00    +0.003 A 
ATOM     30  C   UNL     1      -4.987 -11.253  14.942  0.00  0.00    +0.087 A 
ATOM     33  C   UNL     1      -3.131 -10.668  13.810  0.00  0.00    +0.047 A 
ATOM     34  C   UNL     1      -3.871 -10.664  11.512  0.00  0.00    +0.010 A 
ATOM     37  C   UNL     1      -1.833 -10.297  13.442  0.00  0.00    +0.026 A 
ATOM     39  C   UNL     1      -2.578 -10.292  11.129  0.00  0.00    +0.001 A 
ATOM     40  C   UNL     1      -1.576 -10.112  12.080  0.00  0.00    +0.002 A 
ATOM     43  H   UNL     1      -3.155 -10.857  15.924  0.00  0.00    +0.165 HD
ENDBRANCH  25  27
ENDBRANCH  24  25
ENDBRANCH   9  24
ENDBRANCH  13  22
TORSDOF 7
ENDMDL
MODEL 8
REMARK VINA RESULT:      -7.2     25.246     28.492
REMARK  Name = 45361713
REMARK  7 active torsions:
REMARK  status: ('A' for Active; 'I' for Inactive)
REMARK    1  A    between atoms: N_9  and  C_24
REMARK    2  A    between atoms: C_12  and  C_18
REMARK    3  A    between atoms: C_13  and  C_22
REMARK    4  A    between atoms: C_23  and  C_26
REMARK    5  A    between atoms: C_24  and  C_25
REMARK    6  A    between atoms: C_24  and  C_28
REMARK    7  A    between atoms: C_25  and  C_27
REMARK                            x       y       z     vdW  Elec       q    Type
REMARK                         _______ _______ _______ _____ _____    ______ ____
ROOT
ATOM      2  O   UNL     1      -8.060  -9.326  17.364  0.00  0.00    -0.275 OA
ATOM      4  O   UNL     1      -6.371 -12.674  11.249  0.00  0.00    -0.270 OA
ATOM      6  N   UNL     1      -7.735 -10.713  15.525  0.00  0.00    -0.287 N 
ATOM      7  N   UNL     1      -6.915 -11.027  12.816  0.00  0.00    -0.294 N 
ATOM     13  C   UNL     1      -6.627  -9.900  15.006  0.00  0.00    +0.179 C 
ATOM     16  C   UNL     1      -8.038 -11.952  14.788  0.00  0.00    +0.127 C 
ATOM     17  C   UNL     1      -6.642  -9.749  13.485  0.00  0.00    +0.140 C 
ATOM     18  C   UNL     1      -8.315 -10.364  16.749  0.00  0.00    +0.219 C 
ATOM     19  C   UNL     1      -8.116 -11.709  13.287  0.00  0.00    +0.127 C 
ATOM     23  C   UNL     1      -6.139 -11.603  11.808  0.00  0.00    +0.247 C 
ENDROOT
BRANCH  23  26
ATOM      1  F   UNL     1      -3.960  -8.448   8.842  0.00  0.00    -0.205 F 
ATOM     26  C   UNL     1      -4.941 -10.883  11.361  0.00  0.00    +0.040 A 
ATOM     31  C   UNL     1      -5.022  -9.991  10.292  0.00  0.00    +0.051 A 
ATOM     32  C   UNL     1      -3.722 -11.092  12.006  0.00  0.00    +0.013 A 
ATOM     35  C   UNL     1      -3.883  -9.306   9.868  0.00  0.00    +0.124 A 
ATOM     36  C   UNL     1      -2.582 -10.408  11.581  0.00  0.00    +0.004 A 
ATOM     38  C   UNL     1      -2.663  -9.514  10.513  0.00  0.00    +0.038 A 
ENDBRANCH  23  26
BRANCH  18  12
ATOM      8  N   UNL     1      -9.844 -10.702  20.138  0.00  0.00    -0.316 NA
ATOM     12  C   UNL     1      -9.312 -11.331  17.324  0.00  0.00    +0.078 C 
ATOM     14  C   UNL     1      -8.696 -12.128  18.475  0.00  0.00    +0.028 C 
ATOM     15  C   UNL     1     -10.578 -10.603  17.778  0.00  0.00    +0.028 C 
ATOM     20  C   UNL     1      -8.565 -11.295  19.752  0.00  0.00    +0.081 C 
ATOM     21  C   UNL     1     -10.368  -9.834  19.084  0.00  0.00    +0.081 C 
ATOM     41  H   UNL     1      -9.719 -10.159  20.992  0.00  0.00    +0.122 HD
ENDBRANCH  18  12
BRANCH  13  22
ATOM      3  O   UNL     1      -4.281 -10.351  14.933  0.00  0.00    -0.274 OA
ATOM      9  N   UNL     1      -5.576 -11.385  16.567  0.00  0.00    -0.302 N 
ATOM     22  C   UNL     1      -5.360 -10.551  15.484  0.00  0.00    +0.236 C 
ATOM     42  H   UNL     1      -6.507 -11.445  16.970  0.00  0.00    +0.150 HD
BRANCH   9  24
ATOM     24  C   UNL     1      -4.524 -12.146  17.201  0.00  0.00    +0.163 C 
BRANCH  24  28
ATOM      5  O   UNL     1      -5.212 -10.874  19.156  0.00  0.00    -0.274 OA
ATOM     11  N   UNL     1      -3.327 -12.181  19.301  0.00  0.00    -0.328 N 
ATOM     28  C   UNL     1      -4.407 -11.643  18.632  0.00  0.00    +0.231 C 
ATOM     44  H   UNL     1      -3.142 -11.938  20.268  0.00  0.00    +0.145 HD
ATOM     45  H   UNL     1      -2.684 -12.831  18.864  0.00  0.00    +0.145 HD
ENDBRANCH  24  28
BRANCH  24  25
ATOM     25  C   UNL     1      -4.808 -13.652  17.187  0.00  0.00    +0.069 C 
BRANCH  25  27
ATOM     10  N   UNL     1      -5.886 -15.155  14.002  0.00  0.00    -0.360 N 
ATOM     27  C   UNL     1      -4.987 -14.199  15.791  0.00  0.00    -0.020 A 
ATOM     29  C   UNL     1      -4.018 -14.190  14.748  0.00  0.00    +0.003 A 
ATOM     30  C   UNL     1      -6.124 -14.798  15.302  0.00  0.00    +0.087 A 
ATOM     33  C   UNL     1      -4.609 -14.796  13.637  0.00  0.00    +0.047 A 
ATOM     34  C   UNL     1      -2.693 -13.724  14.642  0.00  0.00    +0.010 A 
ATOM     37  C   UNL     1      -3.938 -14.959  12.419  0.00  0.00    +0.026 A 
ATOM     39  C   UNL     1      -2.010 -13.880  13.431  0.00  0.00    +0.001 A 
ATOM     40  C   UNL     1      -2.624 -14.489  12.339  0.00  0.00    +0.002 A 
ATOM     43  H   UNL     1      -6.552 -15.617  13.397  0.00  0.00    +0.165 HD
ENDBRANCH  25  27
ENDBRANCH  24  25
ENDBRANCH   9  24
ENDBRANCH  13  22
TORSDOF 7
ENDMDL
MODEL 9
REMARK VINA RESULT:      -7.1     19.552     22.736
REMARK  Name = 45361713
REMARK  7 active torsions:
REMARK  status: ('A' for Active; 'I' for Inactive)
REMARK    1  A    between atoms: N_9  and  C_24
REMARK    2  A    between atoms: C_12  and  C_18
REMARK    3  A    between atoms: C_13  and  C_22
REMARK    4  A    between atoms: C_23  and  C_26
REMARK    5  A    between atoms: C_24  and  C_25
REMARK    6  A    between atoms: C_24  and  C_28
REMARK    7  A    between atoms: C_25  and  C_27
REMARK                            x       y       z     vdW  Elec       q    Type
REMARK                         _______ _______ _______ _____ _____    ______ ____
ROOT
ATOM      2  O   UNL     1      19.204   6.312  22.685  0.00  0.00    -0.275 OA
ATOM      4  O   UNL     1      14.070   7.286  17.771  0.00  0.00    -0.270 OA
ATOM      6  N   UNL     1      17.841   6.626  20.826  0.00  0.00    -0.287 N 
ATOM      7  N   UNL     1      15.239   6.584  19.670  0.00  0.00    -0.294 N 
ATOM     13  C   UNL     1      16.680   7.010  21.642  0.00  0.00    +0.179 C 
ATOM     16  C   UNL     1      17.668   6.704  19.365  0.00  0.00    +0.127 C 
ATOM     17  C   UNL     1      15.359   6.442  21.126  0.00  0.00    +0.140 C 
ATOM     18  C   UNL     1      19.062   6.376  21.462  0.00  0.00    +0.219 C 
ATOM     19  C   UNL     1      16.369   6.048  18.918  0.00  0.00    +0.127 C 
ATOM     23  C   UNL     1      14.168   7.169  18.992  0.00  0.00    +0.247 C 
ENDROOT
BRANCH  23  26
ATOM      1  F   UNL     1      10.335   6.471  21.876  0.00  0.00    -0.205 F 
ATOM     26  C   UNL     1      13.050   7.693  19.785  0.00  0.00    +0.040 A 
ATOM     31  C   UNL     1      12.207   6.816  20.466  0.00  0.00    +0.051 A 
ATOM     32  C   UNL     1      12.832   9.069  19.859  0.00  0.00    +0.013 A 
ATOM     35  C   UNL     1      11.145   7.314  21.222  0.00  0.00    +0.124 A 
ATOM     36  C   UNL     1      11.770   9.567  20.613  0.00  0.00    +0.004 A 
ATOM     38  C   UNL     1      10.927   8.690  21.295  0.00  0.00    +0.038 A 
ENDBRANCH  23  26
BRANCH  18  12
ATOM      8  N   UNL     1      22.672   5.756  22.181  0.00  0.00    -0.316 NA
ATOM     12  C   UNL     1      20.256   6.173  20.572  0.00  0.00    +0.078 C 
ATOM     14  C   UNL     1      21.295   7.274  20.796  0.00  0.00    +0.028 C 
ATOM     15  C   UNL     1      20.869   4.789  20.791  0.00  0.00    +0.028 C 
ATOM     20  C   UNL     1      22.067   7.084  22.104  0.00  0.00    +0.081 C 
ATOM     21  C   UNL     1      21.659   4.704  22.098  0.00  0.00    +0.081 C 
ATOM     41  H   UNL     1      23.179   5.667  23.061  0.00  0.00    +0.122 HD
ENDBRANCH  18  12
BRANCH  13  22
ATOM      3  O   UNL     1      15.635   9.151  21.460  0.00  0.00    -0.274 OA
ATOM      9  N   UNL     1      17.908   9.045  21.950  0.00  0.00    -0.302 N 
ATOM     22  C   UNL     1      16.661   8.511  21.676  0.00  0.00    +0.236 C 
ATOM     42  H   UNL     1      18.683   8.420  22.153  0.00  0.00    +0.150 HD
BRANCH   9  24
ATOM     24  C   UNL     1      18.162  10.466  22.017  0.00  0.00    +0.163 C 
BRANCH  24  28
ATOM      5  O   UNL     1      20.113  11.700  22.781  0.00  0.00    -0.274 OA
ATOM     11  N   UNL     1      19.834   9.533  23.493  0.00  0.00    -0.328 N 
ATOM     28  C   UNL     1      19.470  10.652  22.773  0.00  0.00    +0.231 C 
ATOM     44  H   UNL     1      20.681   9.527  24.052  0.00  0.00    +0.145 HD
ATOM     45  H   UNL     1      19.282   8.682  23.494  0.00  0.00    +0.145 HD
ENDBRANCH  24  28
BRANCH  24  25
ATOM     25  C   UNL     1      18.254  11.105  20.627  0.00  0.00    +0.069 C 
BRANCH  25  27
ATOM     10  N   UNL     1      16.271  14.208  20.641  0.00  0.00    -0.360 N 
ATOM     27  C   UNL     1      17.278  12.241  20.440  0.00  0.00    -0.020 A 
ATOM     29  C   UNL     1      16.145  12.251  19.578  0.00  0.00    +0.003 A 
ATOM     30  C   UNL     1      17.328  13.458  21.079  0.00  0.00    +0.087 A 
ATOM     33  C   UNL     1      15.531  13.496  19.724  0.00  0.00    +0.047 A 
ATOM     34  C   UNL     1      15.582  11.317  18.686  0.00  0.00    +0.010 A 
ATOM     37  C   UNL     1      14.377  13.857  19.019  0.00  0.00    +0.026 A 
ATOM     39  C   UNL     1      14.428  11.664  17.974  0.00  0.00    +0.001 A 
ATOM     40  C   UNL     1      13.836  12.914  18.139  0.00  0.00    +0.002 A 
ATOM     43  H   UNL     1      16.061  15.148  20.947  0.00  0.00    +0.165 HD
ENDBRANCH  25  27
ENDBRANCH  24  25
ENDBRANCH   9  24
ENDBRANCH  13  22
TORSDOF 7
ENDMDL
MODEL 10
REMARK VINA RESULT:      -7.1     25.461     29.470
REMARK  Name = 45361713
REMARK  7 active torsions:
REMARK  status: ('A' for Active; 'I' for Inactive)
REMARK    1  A    between atoms: N_9  and  C_24
REMARK    2  A    between atoms: C_12  and  C_18
REMARK    3  A    between atoms: C_13  and  C_22
REMARK    4  A    between atoms: C_23  and  C_26
REMARK    5  A    between atoms: C_24  and  C_25
REMARK    6  A    between atoms: C_24  and  C_28
REMARK    7  A    between atoms: C_25  and  C_27
REMARK                            x       y       z     vdW  Elec       q    Type
REMARK                         _______ _______ _______ _____ _____    ______ ____
ROOT
ATOM      2  O   UNL     1      -5.857 -10.042  17.585  0.00  0.00    -0.275 OA
ATOM      4  O   UNL     1     -12.969  -9.165  17.251  0.00  0.00    -0.270 OA
ATOM      6  N   UNL     1      -8.180 -10.088  17.705  0.00  0.00    -0.287 N 
ATOM      7  N   UNL     1     -10.671  -8.751  17.361  0.00  0.00    -0.294 N 
ATOM     13  C   UNL     1      -8.336  -9.119  16.612  0.00  0.00    +0.179 C 
ATOM     16  C   UNL     1      -9.421 -10.663  18.251  0.00  0.00    +0.127 C 
ATOM     17  C   UNL     1      -9.455  -8.106  16.851  0.00  0.00    +0.140 C 
ATOM     18  C   UNL     1      -6.895 -10.525  18.044  0.00  0.00    +0.219 C 
ATOM     19  C   UNL     1     -10.460  -9.587  18.538  0.00  0.00    +0.127 C 
ATOM     23  C   UNL     1     -11.952  -8.624  16.821  0.00  0.00    +0.247 C 
ENDROOT
BRANCH  23  26
ATOM      1  F   UNL     1     -12.405  -8.085  12.024  0.00  0.00    -0.205 F 
ATOM     26  C   UNL     1     -12.121  -7.771  15.638  0.00  0.00    +0.040 A 
ATOM     31  C   UNL     1     -12.183  -8.345  14.368  0.00  0.00    +0.051 A 
ATOM     32  C   UNL     1     -12.220  -6.387  15.784  0.00  0.00    +0.013 A 
ATOM     35  C   UNL     1     -12.345  -7.535  13.244  0.00  0.00    +0.124 A 
ATOM     36  C   UNL     1     -12.381  -5.577  14.660  0.00  0.00    +0.004 A 
ATOM     38  C   UNL     1     -12.444  -6.151  13.390  0.00  0.00    +0.038 A 
ENDBRANCH  23  26
BRANCH  18  12
ATOM      8  N   UNL     1      -4.444 -13.304  18.495  0.00  0.00    -0.316 NA
ATOM     12  C   UNL     1      -6.805 -11.652  19.035  0.00  0.00    +0.078 C 
ATOM     14  C   UNL     1      -6.893 -13.006  18.329  0.00  0.00    +0.028 C 
ATOM     15  C   UNL     1      -5.523 -11.548  19.862  0.00  0.00    +0.028 C 
ATOM     20  C   UNL     1      -5.598 -13.365  17.599  0.00  0.00    +0.081 C 
ATOM     21  C   UNL     1      -4.285 -11.968  19.068  0.00  0.00    +0.081 C 
ATOM     41  H   UNL     1      -3.601 -13.552  17.976  0.00  0.00    +0.122 HD
ENDBRANCH  18  12
BRANCH  13  22
ATOM      3  O   UNL     1      -9.684 -10.350  15.070  0.00  0.00    -0.274 OA
ATOM      9  N   UNL     1      -7.410 -10.110  14.636  0.00  0.00    -0.302 N 
ATOM     22  C   UNL     1      -8.572  -9.918  15.363  0.00  0.00    +0.236 C 
ATOM     42  H   UNL     1      -6.549  -9.673  14.951  0.00  0.00    +0.150 HD
BRANCH   9  24
ATOM     24  C   UNL     1      -7.363 -10.866  13.405  0.00  0.00    +0.163 C 
BRANCH  24  28
ATOM      5  O   UNL     1      -7.382 -10.081  11.104  0.00  0.00    -0.274 OA
ATOM     11  N   UNL     1      -6.543  -8.694  12.732  0.00  0.00    -0.328 N 
ATOM     28  C   UNL     1      -7.096  -9.875  12.282  0.00  0.00    +0.231 C 
ATOM     44  H   UNL     1      -6.326  -7.942  12.086  0.00  0.00    +0.145 HD
ATOM     45  H   UNL     1      -6.333  -8.528  13.710  0.00  0.00    +0.145 HD
ENDBRANCH  24  28
BRANCH  24  25
ATOM     25  C   UNL     1      -6.279 -11.949  13.430  0.00  0.00    +0.069 C 
BRANCH  25  27
ATOM     10  N   UNL     1      -3.134 -10.697  11.978  0.00  0.00    -0.360 N 
ATOM     27  C   UNL     1      -4.907 -11.409  13.108  0.00  0.00    -0.020 A 
ATOM     29  C   UNL     1      -3.901 -11.039  14.045  0.00  0.00    +0.003 A 
ATOM     30  C   UNL     1      -4.406 -11.188  11.846  0.00  0.00    +0.087 A 
ATOM     33  C   UNL     1      -2.800 -10.596  13.309  0.00  0.00    +0.047 A 
ATOM     34  C   UNL     1      -3.822 -11.038  15.451  0.00  0.00    +0.010 A 
ATOM     37  C   UNL     1      -1.618 -10.150  13.912  0.00  0.00    +0.026 A 
ATOM     39  C   UNL     1      -2.647 -10.594  16.069  0.00  0.00    +0.001 A 
ATOM     40  C   UNL     1      -1.563 -10.158  15.309  0.00  0.00    +0.002 A 
ATOM     43  H   UNL     1      -2.528 -10.447  11.209  0.00  0.00    +0.165 HD
ENDBRANCH  25  27
ENDBRANCH  24  25
ENDBRANCH   9  24
ENDBRANCH  13  22
TORSDOF 7
ENDMDL
