MODEL 1
REMARK VINA RESULT:      -7.3      0.000      0.000
REMARK  Name = 71692874
REMARK  7 active torsions:
REMARK  status: ('A' for Active; 'I' for Inactive)
REMARK    1  A    between atoms: O_4  and  C_31
REMARK    2  A    between atoms: O_4  and  C_40
REMARK    3  A    between atoms: N_8  and  C_27
REMARK    4  A    between atoms: N_10  and  C_34
REMARK    5  A    between atoms: C_12  and  C_17
REMARK    6  A    between atoms: C_17  and  C_19
REMARK    7  A    between atoms: C_27  and  C_31
REMARK                            x       y       z     vdW  Elec       q    Type
REMARK                         _______ _______ _______ _____ _____    ______ ____
ROOT
ATOM      2  O   UNL     1      -6.420  -9.377  12.200  0.00  0.00    -0.492 OA
ATOM      3  O   UNL     1      -1.500 -10.206  11.940  0.00  0.00    -0.274 OA
ATOM      6  N   UNL     1      -2.619 -11.453  13.543  0.00  0.00    -0.300 N 
ATOM      9  N   UNL     1      -4.350 -11.272  10.857  0.00  0.00    -0.304 NA
ATOM     11  C   UNL     1      -4.545 -11.894  15.078  0.00  0.00    +0.010 C 
ATOM     12  C   UNL     1      -3.647 -11.443  16.261  0.00  0.00    +0.004 C 
ATOM     13  C   UNL     1      -2.616 -10.404  15.800  0.00  0.00    +0.023 C 
ATOM     14  C   UNL     1      -3.630 -12.440  13.954  0.00  0.00    +0.111 C 
ATOM     15  C   UNL     1      -5.478 -10.774  14.558  0.00  0.00    +0.008 C 
ATOM     16  C   UNL     1      -1.788 -10.929  14.632  0.00  0.00    +0.108 C 
ATOM     18  C   UNL     1      -6.598 -11.292  13.645  0.00  0.00    +0.041 C 
ATOM     20  C   UNL     1      -2.322 -11.082  12.229  0.00  0.00    +0.229 C 
ATOM     21  C   UNL     1      -7.356 -10.156  12.954  0.00  0.00    +0.229 C 
ATOM     26  C   UNL     1      -3.016 -11.818  11.100  0.00  0.00    +0.178 C 
ATOM     28  C   UNL     1      -4.335  -9.902  10.337  0.00  0.00    +0.120 C 
ATOM     29  C   UNL     1      -6.736  -9.212  10.877  0.00  0.00    +0.125 A 
ATOM     30  C   UNL     1      -5.721  -9.442   9.931  0.00  0.00    +0.010 A 
ATOM     32  C   UNL     1      -6.016  -9.252   8.572  0.00  0.00    +0.031 A 
ATOM     33  C   UNL     1      -7.997  -8.761  10.474  0.00  0.00    +0.048 A 
ATOM     34  C   UNL     1      -7.282  -8.824   8.169  0.00  0.00    +0.030 A 
ATOM     35  C   UNL     1      -8.268  -8.574   9.119  0.00  0.00    +0.027 A 
ATOM     41  H   UNL     1      -4.879 -11.284  11.719  0.00  0.00    +0.123 HD
ENDROOT
BRANCH  34  10
ATOM      5  O   UNL     1      -7.862  -8.131   4.063  0.00  0.00    -0.377 OA
ATOM     10  N   UNL     1      -7.556  -8.638   6.811  0.00  0.00    -0.326 N 
ATOM     36  C   UNL     1      -6.698  -9.316   5.830  0.00  0.00    +0.133 C 
ATOM     37  C   UNL     1      -8.156  -7.380   6.351  0.00  0.00    +0.133 C 
ATOM     38  C   UNL     1      -7.424  -9.420   4.494  0.00  0.00    +0.178 C 
ATOM     39  C   UNL     1      -8.804  -7.586   4.986  0.00  0.00    +0.178 C 
ENDBRANCH  34  10
BRANCH  12  17
ATOM     17  C   UNL     1      -4.434 -10.931  17.468  0.00  0.00    +0.100 C 
BRANCH  17  19
ATOM      1  O   UNL     1      -4.595 -13.053  18.512  0.00  0.00    -0.276 OA
ATOM      7  N   UNL     1      -6.588 -11.906  18.179  0.00  0.00    -0.299 N 
ATOM      8  N   UNL     1      -9.252 -11.345  19.072  0.00  0.00    -0.297 NA
ATOM     19  C   UNL     1      -5.205 -12.063  18.099  0.00  0.00    +0.216 C 
ATOM     22  C   UNL     1      -7.406 -12.957  18.782  0.00  0.00    +0.123 C 
ATOM     23  C   UNL     1      -7.353 -10.807  17.582  0.00  0.00    +0.123 C 
ATOM     24  C   UNL     1      -8.441 -12.372  19.742  0.00  0.00    +0.103 C 
ATOM     25  C   UNL     1      -8.395 -10.264  18.562  0.00  0.00    +0.103 C 
BRANCH   8  27
ATOM     27  C   UNL     1     -10.263 -10.811  19.983  0.00  0.00    +0.112 C 
BRANCH  27  31
ATOM     31  C   UNL     1     -11.644 -10.874  19.350  0.00  0.00    +0.174 C 
BRANCH  31   4
ATOM      4  O   UNL     1     -12.104  -9.547  19.126  0.00  0.00    -0.382 OA
ATOM     40  C   UNL     1     -11.887  -9.140  17.781  0.00  0.00    +0.194 C 
ENDBRANCH  31   4
ENDBRANCH  27  31
ENDBRANCH   8  27
ENDBRANCH  17  19
ENDBRANCH  12  17
TORSDOF 6
ENDMDL
MODEL 2
REMARK VINA RESULT:      -7.0      2.717     10.647
REMARK  Name = 71692874
REMARK  7 active torsions:
REMARK  status: ('A' for Active; 'I' for Inactive)
REMARK    1  A    between atoms: O_4  and  C_31
REMARK    2  A    between atoms: O_4  and  C_40
REMARK    3  A    between atoms: N_8  and  C_27
REMARK    4  A    between atoms: N_10  and  C_34
REMARK    5  A    between atoms: C_12  and  C_17
REMARK    6  A    between atoms: C_17  and  C_19
REMARK    7  A    between atoms: C_27  and  C_31
REMARK                            x       y       z     vdW  Elec       q    Type
REMARK                         _______ _______ _______ _____ _____    ______ ____
ROOT
ATOM      2  O   UNL     1      -9.115 -12.402  17.056  0.00  0.00    -0.492 OA
ATOM      3  O   UNL     1      -4.685 -11.978  19.329  0.00  0.00    -0.274 OA
ATOM      6  N   UNL     1      -4.936 -10.681  17.424  0.00  0.00    -0.300 N 
ATOM      9  N   UNL     1      -7.627 -10.655  19.157  0.00  0.00    -0.304 NA
ATOM     11  C   UNL     1      -6.015 -10.116  15.239  0.00  0.00    +0.010 C 
ATOM     12  C   UNL     1      -4.752 -10.668  14.524  0.00  0.00    +0.004 C 
ATOM     13  C   UNL     1      -4.095 -11.778  15.354  0.00  0.00    +0.023 C 
ATOM     14  C   UNL     1      -5.601  -9.623  16.646  0.00  0.00    +0.111 C 
ATOM     15  C   UNL     1      -7.171 -11.142  15.313  0.00  0.00    +0.008 C 
ATOM     16  C   UNL     1      -3.778 -11.296  16.767  0.00  0.00    +0.108 C 
ATOM     18  C   UNL     1      -8.519 -10.512  15.692  0.00  0.00    +0.041 C 
ATOM     20  C   UNL     1      -5.239 -11.044  18.739  0.00  0.00    +0.229 C 
ATOM     21  C   UNL     1      -9.587 -11.565  15.994  0.00  0.00    +0.229 C 
ATOM     26  C   UNL     1      -6.270 -10.228  19.492  0.00  0.00    +0.178 C 
ATOM     28  C   UNL     1      -7.944 -12.009  19.619  0.00  0.00    +0.120 C 
ATOM     29  C   UNL     1      -9.959 -12.509  18.129  0.00  0.00    +0.125 A 
ATOM     30  C   UNL     1      -9.408 -12.343  19.413  0.00  0.00    +0.010 A 
ATOM     32  C   UNL     1     -10.250 -12.476  20.527  0.00  0.00    +0.031 A 
ATOM     33  C   UNL     1     -11.308 -12.845  17.972  0.00  0.00    +0.048 A 
ATOM     34  C   UNL     1     -11.602 -12.788  20.367  0.00  0.00    +0.030 A 
ATOM     35  C   UNL     1     -12.127 -12.977  19.092  0.00  0.00    +0.027 A 
ATOM     41  H   UNL     1      -7.751 -10.619  18.154  0.00  0.00    +0.123 HD
ENDROOT
BRANCH  34  10
ATOM      5  O   UNL     1     -14.165 -13.427  23.637  0.00  0.00    -0.377 OA
ATOM     10  N   UNL     1     -12.425 -12.919  21.489  0.00  0.00    -0.326 N 
ATOM     36  C   UNL     1     -12.137 -14.002  22.439  0.00  0.00    +0.133 C 
ATOM     37  C   UNL     1     -13.833 -12.512  21.415  0.00  0.00    +0.133 C 
ATOM     38  C   UNL     1     -12.769 -13.686  23.789  0.00  0.00    +0.178 C 
ATOM     39  C   UNL     1     -14.376 -12.276  22.820  0.00  0.00    +0.178 C 
ENDBRANCH  34  10
BRANCH  12  17
ATOM     17  C   UNL     1      -5.014 -11.140  13.094  0.00  0.00    +0.100 C 
BRANCH  17  19
ATOM      1  O   UNL     1      -3.193 -10.144  11.948  0.00  0.00    -0.276 OA
ATOM      7  N   UNL     1      -5.310  -9.338  11.432  0.00  0.00    -0.299 N 
ATOM      8  N   UNL     1      -7.070  -8.189   9.485  0.00  0.00    -0.297 NA
ATOM     19  C   UNL     1      -4.416 -10.165  12.111  0.00  0.00    +0.216 C 
ATOM     22  C   UNL     1      -4.809  -8.369  10.459  0.00  0.00    +0.123 C 
ATOM     23  C   UNL     1      -6.749  -9.246  11.697  0.00  0.00    +0.123 C 
ATOM     24  C   UNL     1      -5.645  -8.385   9.180  0.00  0.00    +0.103 C 
ATOM     25  C   UNL     1      -7.550  -9.239  10.395  0.00  0.00    +0.103 C 
BRANCH   8  27
ATOM     27  C   UNL     1      -7.861  -8.172   8.256  0.00  0.00    +0.112 C 
BRANCH  27  31
ATOM     31  C   UNL     1      -8.332  -6.762   7.940  0.00  0.00    +0.174 C 
BRANCH  31   4
ATOM      4  O   UNL     1      -9.336  -6.394   8.877  0.00  0.00    -0.382 OA
ATOM     40  C   UNL     1      -9.904  -5.130   8.563  0.00  0.00    +0.194 C 
ENDBRANCH  31   4
ENDBRANCH  27  31
ENDBRANCH   8  27
ENDBRANCH  17  19
ENDBRANCH  12  17
TORSDOF 6
ENDMDL
MODEL 3
REMARK VINA RESULT:      -6.9     19.746     21.104
REMARK  Name = 71692874
REMARK  7 active torsions:
REMARK  status: ('A' for Active; 'I' for Inactive)
REMARK    1  A    between atoms: O_4  and  C_31
REMARK    2  A    between atoms: O_4  and  C_40
REMARK    3  A    between atoms: N_8  and  C_27
REMARK    4  A    between atoms: N_10  and  C_34
REMARK    5  A    between atoms: C_12  and  C_17
REMARK    6  A    between atoms: C_17  and  C_19
REMARK    7  A    between atoms: C_27  and  C_31
REMARK                            x       y       z     vdW  Elec       q    Type
REMARK                         _______ _______ _______ _____ _____    ______ ____
ROOT
ATOM      2  O   UNL     1     -13.984   5.261  21.634  0.00  0.00    -0.492 OA
ATOM      3  O   UNL     1     -18.446   5.362  19.388  0.00  0.00    -0.274 OA
ATOM      6  N   UNL     1     -18.498   4.821  21.642  0.00  0.00    -0.300 N 
ATOM      9  N   UNL     1     -16.386   7.165  21.101  0.00  0.00    -0.304 NA
ATOM     11  C   UNL     1     -17.452   3.997  23.759  0.00  0.00    +0.010 C 
ATOM     12  C   UNL     1     -18.223   2.664  23.568  0.00  0.00    +0.004 C 
ATOM     13  C   UNL     1     -18.450   2.372  22.079  0.00  0.00    +0.023 C 
ATOM     14  C   UNL     1     -18.249   5.125  23.060  0.00  0.00    +0.111 C 
ATOM     15  C   UNL     1     -15.990   3.935  23.253  0.00  0.00    +0.008 C 
ATOM     16  C   UNL     1     -19.156   3.536  21.390  0.00  0.00    +0.108 C 
ATOM     18  C   UNL     1     -15.127   5.104  23.745  0.00  0.00    +0.041 C 
ATOM     20  C   UNL     1     -18.272   5.686  20.568  0.00  0.00    +0.229 C 
ATOM     21  C   UNL     1     -13.766   5.156  23.046  0.00  0.00    +0.229 C 
ATOM     26  C   UNL     1     -17.827   7.104  20.866  0.00  0.00    +0.178 C 
ATOM     28  C   UNL     1     -15.586   6.861  19.911  0.00  0.00    +0.120 C 
ATOM     29  C   UNL     1     -13.352   6.313  21.026  0.00  0.00    +0.125 A 
ATOM     30  C   UNL     1     -14.110   7.111  20.150  0.00  0.00    +0.010 A 
ATOM     32  C   UNL     1     -13.475   8.177  19.496  0.00  0.00    +0.031 A 
ATOM     33  C   UNL     1     -11.986   6.551  21.204  0.00  0.00    +0.048 A 
ATOM     34  C   UNL     1     -12.116   8.428  19.692  0.00  0.00    +0.030 A 
ATOM     35  C   UNL     1     -11.372   7.612  20.541  0.00  0.00    +0.027 A 
ATOM     41  H   UNL     1     -16.138   6.512  21.832  0.00  0.00    +0.123 HD
ENDROOT
BRANCH  34  10
ATOM      5  O   UNL     1     -10.042  11.597  17.867  0.00  0.00    -0.377 OA
ATOM     10  N   UNL     1     -11.500   9.493  19.029  0.00  0.00    -0.326 N 
ATOM     36  C   UNL     1     -10.299   9.213  18.230  0.00  0.00    +0.133 C 
ATOM     37  C   UNL     1     -11.571  10.846  19.595  0.00  0.00    +0.133 C 
ATOM     38  C   UNL     1     -10.085  10.329  17.214  0.00  0.00    +0.178 C 
ATOM     39  C   UNL     1     -11.288  11.875  18.506  0.00  0.00    +0.178 C 
ENDBRANCH  34  10
BRANCH  12  17
ATOM     17  C   UNL     1     -17.567   1.470  24.263  0.00  0.00    +0.100 C 
BRANCH  17  19
ATOM      1  O   UNL     1     -19.264   0.410  25.532  0.00  0.00    -0.276 OA
ATOM      7  N   UNL     1     -17.782   1.761  26.705  0.00  0.00    -0.299 N 
ATOM      8  N   UNL     1     -16.388   2.297  29.150  0.00  0.00    -0.297 NA
ATOM     19  C   UNL     1     -18.287   1.162  25.551  0.00  0.00    +0.216 C 
ATOM     22  C   UNL     1     -18.422   1.510  27.995  0.00  0.00    +0.123 C 
ATOM     23  C   UNL     1     -16.710   2.760  26.743  0.00  0.00    +0.123 C 
ATOM     24  C   UNL     1     -17.386   1.219  29.080  0.00  0.00    +0.103 C 
ATOM     25  C   UNL     1     -15.708   2.451  27.856  0.00  0.00    +0.103 C 
BRANCH   8  27
ATOM     27  C   UNL     1     -15.418   2.032  30.212  0.00  0.00    +0.112 C 
BRANCH  27  31
ATOM     31  C   UNL     1     -15.095   0.549  30.286  0.00  0.00    +0.174 C 
BRANCH  31   4
ATOM      4  O   UNL     1     -13.713   0.368  30.005  0.00  0.00    -0.382 OA
ATOM     40  C   UNL     1     -13.455  -0.921  29.464  0.00  0.00    +0.194 C 
ENDBRANCH  31   4
ENDBRANCH  27  31
ENDBRANCH   8  27
ENDBRANCH  17  19
ENDBRANCH  12  17
TORSDOF 6
ENDMDL
MODEL 4
REMARK VINA RESULT:      -6.8      3.877     13.176
REMARK  Name = 71692874
REMARK  7 active torsions:
REMARK  status: ('A' for Active; 'I' for Inactive)
REMARK    1  A    between atoms: O_4  and  C_31
REMARK    2  A    between atoms: O_4  and  C_40
REMARK    3  A    between atoms: N_8  and  C_27
REMARK    4  A    between atoms: N_10  and  C_34
REMARK    5  A    between atoms: C_12  and  C_17
REMARK    6  A    between atoms: C_17  and  C_19
REMARK    7  A    between atoms: C_27  and  C_31
REMARK                            x       y       z     vdW  Elec       q    Type
REMARK                         _______ _______ _______ _____ _____    ______ ____
ROOT
ATOM      2  O   UNL     1      -5.187  -9.246   8.523  0.00  0.00    -0.492 OA
ATOM      3  O   UNL     1      -9.747  -7.468   9.528  0.00  0.00    -0.274 OA
ATOM      6  N   UNL     1      -9.575  -8.652   7.542  0.00  0.00    -0.300 N 
ATOM      9  N   UNL     1      -7.876 -10.081   9.848  0.00  0.00    -0.304 NA
ATOM     11  C   UNL     1      -8.286  -9.609   5.623  0.00  0.00    +0.010 C 
ATOM     12  C   UNL     1      -8.860  -8.475   4.732  0.00  0.00    +0.004 C 
ATOM     13  C   UNL     1      -9.134  -7.213   5.560  0.00  0.00    +0.023 C 
ATOM     14  C   UNL     1      -9.285  -9.874   6.775  0.00  0.00    +0.111 C 
ATOM     15  C   UNL     1      -6.867  -9.303   6.161  0.00  0.00    +0.008 C 
ATOM     16  C   UNL     1     -10.049  -7.518   6.743  0.00  0.00    +0.108 C 
ATOM     18  C   UNL     1      -6.158 -10.536   6.739  0.00  0.00    +0.041 C 
ATOM     20  C   UNL     1      -9.549  -8.534   8.934  0.00  0.00    +0.229 C 
ATOM     21  C   UNL     1      -4.868 -10.171   7.477  0.00  0.00    +0.229 C 
ATOM     26  C   UNL     1      -9.303  -9.781   9.759  0.00  0.00    +0.178 C 
ATOM     28  C   UNL     1      -7.116  -9.084  10.608  0.00  0.00    +0.120 C 
ATOM     29  C   UNL     1      -4.760  -9.612   9.771  0.00  0.00    +0.125 A 
ATOM     30  C   UNL     1      -5.682  -9.522  10.829  0.00  0.00    +0.010 A 
ATOM     32  C   UNL     1      -5.256  -9.866  12.121  0.00  0.00    +0.031 A 
ATOM     33  C   UNL     1      -3.435  -9.993  10.011  0.00  0.00    +0.048 A 
ATOM     34  C   UNL     1      -3.939 -10.268  12.355  0.00  0.00    +0.030 A 
ATOM     35  C   UNL     1      -3.030 -10.326  11.303  0.00  0.00    +0.027 A 
ATOM     41  H   UNL     1      -7.487 -10.140   8.916  0.00  0.00    +0.123 HD
ENDROOT
BRANCH  34  10
ATOM      5  O   UNL     1      -2.764 -11.014  16.322  0.00  0.00    -0.377 OA
ATOM     10  N   UNL     1      -3.533 -10.605  13.650  0.00  0.00    -0.326 N 
ATOM     36  C   UNL     1      -4.532 -10.557  14.726  0.00  0.00    +0.133 C 
ATOM     37  C   UNL     1      -2.149 -10.353  14.071  0.00  0.00    +0.133 C 
ATOM     38  C   UNL     1      -4.068 -11.413  15.898  0.00  0.00    +0.178 C 
ATOM     39  C   UNL     1      -1.812 -11.219  15.279  0.00  0.00    +0.178 C 
ENDBRANCH  34  10
BRANCH  12  17
ATOM     17  C   UNL     1      -7.990  -8.150   3.517  0.00  0.00    +0.100 C 
BRANCH  17  19
ATOM      1  O   UNL     1      -9.083  -6.338   2.449  0.00  0.00    -0.276 OA
ATOM      7  N   UNL     1      -9.285  -8.416   1.431  0.00  0.00    -0.299 N 
ATOM      8  N   UNL     1      -9.580  -9.925  -0.987  0.00  0.00    -0.297 NA
ATOM     19  C   UNL     1      -8.835  -7.546   2.424  0.00  0.00    +0.216 C 
ATOM     22  C   UNL     1     -10.105  -7.907   0.334  0.00  0.00    +0.123 C 
ATOM     23  C   UNL     1      -9.120  -9.873   1.442  0.00  0.00    +0.123 C 
ATOM     24  C   UNL     1      -9.633  -8.455  -1.012  0.00  0.00    +0.103 C 
ATOM     25  C   UNL     1      -8.672 -10.388   0.073  0.00  0.00    +0.103 C 
BRANCH   8  27
ATOM     27  C   UNL     1      -9.160 -10.447  -2.286  0.00  0.00    +0.112 C 
BRANCH  27  31
ATOM     31  C   UNL     1      -8.488  -9.360  -3.110  0.00  0.00    +0.174 C 
BRANCH  31   4
ATOM      4  O   UNL     1      -7.099  -9.648  -3.198  0.00  0.00    -0.382 OA
ATOM     40  C   UNL     1      -6.322  -8.697  -2.482  0.00  0.00    +0.194 C 
ENDBRANCH  31   4
ENDBRANCH  27  31
ENDBRANCH   8  27
ENDBRANCH  17  19
ENDBRANCH  12  17
TORSDOF 6
ENDMDL
MODEL 5
REMARK VINA RESULT:      -6.8     28.649     32.312
REMARK  Name = 71692874
REMARK  7 active torsions:
REMARK  status: ('A' for Active; 'I' for Inactive)
REMARK    1  A    between atoms: O_4  and  C_31
REMARK    2  A    between atoms: O_4  and  C_40
REMARK    3  A    between atoms: N_8  and  C_27
REMARK    4  A    between atoms: N_10  and  C_34
REMARK    5  A    between atoms: C_12  and  C_17
REMARK    6  A    between atoms: C_17  and  C_19
REMARK    7  A    between atoms: C_27  and  C_31
REMARK                            x       y       z     vdW  Elec       q    Type
REMARK                         _______ _______ _______ _____ _____    ______ ____
ROOT
ATOM      2  O   UNL     1      18.505   6.670  20.044  0.00  0.00    -0.492 OA
ATOM      3  O   UNL     1      19.563  11.512  20.676  0.00  0.00    -0.274 OA
ATOM      6  N   UNL     1      17.376  10.917  21.166  0.00  0.00    -0.300 N 
ATOM      9  N   UNL     1      19.410   8.687  22.233  0.00  0.00    -0.304 NA
ATOM     11  C   UNL     1      15.386   9.410  20.996  0.00  0.00    +0.010 C 
ATOM     12  C   UNL     1      14.739  10.448  20.041  0.00  0.00    +0.004 C 
ATOM     13  C   UNL     1      15.812  11.210  19.252  0.00  0.00    +0.023 C 
ATOM     14  C   UNL     1      16.373  10.156  21.927  0.00  0.00    +0.111 C 
ATOM     15  C   UNL     1      16.079   8.243  20.251  0.00  0.00    +0.008 C 
ATOM     16  C   UNL     1      16.826  11.861  20.189  0.00  0.00    +0.108 C 
ATOM     18  C   UNL     1      16.409   7.053  21.161  0.00  0.00    +0.041 C 
ATOM     20  C   UNL     1      18.757  10.895  21.381  0.00  0.00    +0.229 C 
ATOM     21  C   UNL     1      17.300   6.020  20.467  0.00  0.00    +0.229 C 
ATOM     26  C   UNL     1      19.289  10.106  22.560  0.00  0.00    +0.178 C 
ATOM     28  C   UNL     1      20.429   8.405  21.219  0.00  0.00    +0.120 C 
ATOM     29  C   UNL     1      19.663   6.082  20.476  0.00  0.00    +0.125 A 
ATOM     30  C   UNL     1      20.646   6.915  21.041  0.00  0.00    +0.010 A 
ATOM     32  C   UNL     1      21.852   6.337  21.466  0.00  0.00    +0.031 A 
ATOM     33  C   UNL     1      19.904   4.716  20.300  0.00  0.00    +0.048 A 
ATOM     34  C   UNL     1      22.081   4.968  21.310  0.00  0.00    +0.030 A 
ATOM     35  C   UNL     1      21.110   4.161  20.724  0.00  0.00    +0.027 A 
ATOM     41  H   UNL     1      18.519   8.344  21.899  0.00  0.00    +0.123 HD
ENDROOT
BRANCH  34  10
ATOM      5  O   UNL     1      25.584   3.046  22.618  0.00  0.00    -0.377 OA
ATOM     10  N   UNL     1      23.290   4.411  21.737  0.00  0.00    -0.326 N 
ATOM     36  C   UNL     1      23.932   3.406  20.879  0.00  0.00    +0.133 C 
ATOM     37  C   UNL     1      23.567   4.275  23.172  0.00  0.00    +0.133 C 
ATOM     38  C   UNL     1      25.413   3.304  21.224  0.00  0.00    +0.178 C 
ATOM     39  C   UNL     1      25.068   4.125  23.395  0.00  0.00    +0.178 C 
ENDBRANCH  34  10
BRANCH  12  17
ATOM     17  C   UNL     1      13.695   9.847  19.098  0.00  0.00    +0.100 C 
BRANCH  17  19
ATOM      1  O   UNL     1      12.539   7.867  19.698  0.00  0.00    -0.276 OA
ATOM      7  N   UNL     1      11.916   9.809  20.809  0.00  0.00    -0.299 N 
ATOM      8  N   UNL     1      10.912  11.032  23.198  0.00  0.00    -0.297 NA
ATOM     19  C   UNL     1      12.667   9.078  19.889  0.00  0.00    +0.216 C 
ATOM     22  C   UNL     1      10.901   9.136  21.618  0.00  0.00    +0.123 C 
ATOM     23  C   UNL     1      11.950  11.266  20.966  0.00  0.00    +0.123 C 
ATOM     24  C   UNL     1      10.983   9.568  23.082  0.00  0.00    +0.103 C 
ATOM     25  C   UNL     1      12.006  11.661  22.442  0.00  0.00    +0.103 C 
BRANCH   8  27
ATOM     27  C   UNL     1      10.957  11.439  24.601  0.00  0.00    +0.112 C 
BRANCH  27  31
ATOM     31  C   UNL     1      12.096  12.417  24.841  0.00  0.00    +0.174 C 
BRANCH  31   4
ATOM      4  O   UNL     1      12.956  11.881  25.837  0.00  0.00    -0.382 OA
ATOM     40  C   UNL     1      14.304  11.832  25.391  0.00  0.00    +0.194 C 
ENDBRANCH  31   4
ENDBRANCH  27  31
ENDBRANCH   8  27
ENDBRANCH  17  19
ENDBRANCH  12  17
TORSDOF 6
ENDMDL
MODEL 6
REMARK VINA RESULT:      -6.8     24.443     29.698
REMARK  Name = 71692874
REMARK  7 active torsions:
REMARK  status: ('A' for Active; 'I' for Inactive)
REMARK    1  A    between atoms: O_4  and  C_31
REMARK    2  A    between atoms: O_4  and  C_40
REMARK    3  A    between atoms: N_8  and  C_27
REMARK    4  A    between atoms: N_10  and  C_34
REMARK    5  A    between atoms: C_12  and  C_17
REMARK    6  A    between atoms: C_17  and  C_19
REMARK    7  A    between atoms: C_27  and  C_31
REMARK                            x       y       z     vdW  Elec       q    Type
REMARK                         _______ _______ _______ _____ _____    ______ ____
ROOT
ATOM      2  O   UNL     1      -8.993   8.431  36.211  0.00  0.00    -0.492 OA
ATOM      3  O   UNL     1     -10.453  10.431  31.871  0.00  0.00    -0.274 OA
ATOM      6  N   UNL     1     -12.176   9.844  33.306  0.00  0.00    -0.300 N 
ATOM      9  N   UNL     1      -9.761  11.165  34.939  0.00  0.00    -0.304 NA
ATOM     11  C   UNL     1     -13.135   8.564  35.230  0.00  0.00    +0.010 C 
ATOM     12  C   UNL     1     -13.875   7.665  34.203  0.00  0.00    +0.004 C 
ATOM     13  C   UNL     1     -13.083   7.564  32.893  0.00  0.00    +0.023 C 
ATOM     14  C   UNL     1     -12.902   9.950  34.582  0.00  0.00    +0.111 C 
ATOM     15  C   UNL     1     -11.812   7.945  35.741  0.00  0.00    +0.008 C 
ATOM     16  C   UNL     1     -12.786   8.946  32.321  0.00  0.00    +0.108 C 
ATOM     18  C   UNL     1     -11.259   8.642  36.991  0.00  0.00    +0.041 C 
ATOM     20  C   UNL     1     -11.060  10.598  32.934  0.00  0.00    +0.229 C 
ATOM     21  C   UNL     1      -9.842   8.178  37.336  0.00  0.00    +0.229 C 
ATOM     26  C   UNL     1     -10.593  11.700  33.863  0.00  0.00    +0.178 C 
ATOM     28  C   UNL     1      -8.480  10.625  34.473  0.00  0.00    +0.120 C 
ATOM     29  C   UNL     1      -7.873   9.169  36.484  0.00  0.00    +0.125 A 
ATOM     30  C   UNL     1      -7.577  10.248  35.630  0.00  0.00    +0.010 A 
ATOM     32  C   UNL     1      -6.419  11.000  35.877  0.00  0.00    +0.031 A 
ATOM     33  C   UNL     1      -7.005   8.828  37.527  0.00  0.00    +0.048 A 
ATOM     34  C   UNL     1      -5.566  10.673  36.933  0.00  0.00    +0.030 A 
ATOM     35  C   UNL     1      -5.856   9.586  37.752  0.00  0.00    +0.027 A 
ATOM     41  H   UNL     1     -10.265  10.431  35.419  0.00  0.00    +0.123 HD
ENDROOT
BRANCH  34  10
ATOM      5  O   UNL     1      -1.957  12.753  37.497  0.00  0.00    -0.377 OA
ATOM     10  N   UNL     1      -4.415  11.432  37.161  0.00  0.00    -0.326 N 
ATOM     36  C   UNL     1      -3.691  11.964  35.998  0.00  0.00    +0.133 C 
ATOM     37  C   UNL     1      -3.586  11.169  38.343  0.00  0.00    +0.133 C 
ATOM     38  C   UNL     1      -2.819  13.137  36.425  0.00  0.00    +0.178 C 
ATOM     39  C   UNL     1      -2.718  12.384  38.646  0.00  0.00    +0.178 C 
ENDBRANCH  34  10
BRANCH  12  17
ATOM     17  C   UNL     1     -14.218   6.275  34.741  0.00  0.00    +0.100 C 
BRANCH  17  19
ATOM      1  O   UNL     1     -16.434   6.330  33.901  0.00  0.00    -0.276 OA
ATOM      7  N   UNL     1     -15.171   4.453  33.374  0.00  0.00    -0.299 N 
ATOM      8  N   UNL     1     -14.597   2.347  31.517  0.00  0.00    -0.297 NA
ATOM     19  C   UNL     1     -15.379   5.695  33.971  0.00  0.00    +0.216 C 
ATOM     22  C   UNL     1     -16.246   3.826  32.607  0.00  0.00    +0.123 C 
ATOM     23  C   UNL     1     -13.980   3.616  33.548  0.00  0.00    +0.123 C 
ATOM     24  C   UNL     1     -15.727   3.260  31.285  0.00  0.00    +0.103 C 
ATOM     25  C   UNL     1     -13.505   3.047  32.210  0.00  0.00    +0.103 C 
BRANCH   8  27
ATOM     27  C   UNL     1     -14.125   1.782  30.254  0.00  0.00    +0.112 C 
BRANCH  27  31
ATOM     31  C   UNL     1     -15.226   0.981  29.579  0.00  0.00    +0.174 C 
BRANCH  31   4
ATOM      4  O   UNL     1     -14.837  -0.386  29.539  0.00  0.00    -0.382 OA
ATOM     40  C   UNL     1     -13.457  -0.545  29.839  0.00  0.00    +0.194 C 
ENDBRANCH  31   4
ENDBRANCH  27  31
ENDBRANCH   8  27
ENDBRANCH  17  19
ENDBRANCH  12  17
TORSDOF 6
ENDMDL
MODEL 7
REMARK VINA RESULT:      -6.6      2.476     10.730
REMARK  Name = 71692874
REMARK  7 active torsions:
REMARK  status: ('A' for Active; 'I' for Inactive)
REMARK    1  A    between atoms: O_4  and  C_31
REMARK    2  A    between atoms: O_4  and  C_40
REMARK    3  A    between atoms: N_8  and  C_27
REMARK    4  A    between atoms: N_10  and  C_34
REMARK    5  A    between atoms: C_12  and  C_17
REMARK    6  A    between atoms: C_17  and  C_19
REMARK    7  A    between atoms: C_27  and  C_31
REMARK                            x       y       z     vdW  Elec       q    Type
REMARK                         _______ _______ _______ _____ _____    ______ ____
ROOT
ATOM      2  O   UNL     1      -9.022 -12.183  16.769  0.00  0.00    -0.492 OA
ATOM      3  O   UNL     1      -4.814 -11.796  19.437  0.00  0.00    -0.274 OA
ATOM      6  N   UNL     1      -4.826 -10.602  17.449  0.00  0.00    -0.300 N 
ATOM      9  N   UNL     1      -7.666 -10.375  18.908  0.00  0.00    -0.304 NA
ATOM     11  C   UNL     1      -5.667 -10.125  15.142  0.00  0.00    +0.010 C 
ATOM     12  C   UNL     1      -4.367 -10.765  14.584  0.00  0.00    +0.004 C 
ATOM     13  C   UNL     1      -3.840 -11.849  15.534  0.00  0.00    +0.023 C 
ATOM     14  C   UNL     1      -5.368  -9.567  16.554  0.00  0.00    +0.111 C 
ATOM     15  C   UNL     1      -6.868 -11.101  15.159  0.00  0.00    +0.008 C 
ATOM     16  C   UNL     1      -3.639 -11.298  16.942  0.00  0.00    +0.108 C 
ATOM     18  C   UNL     1      -8.217 -10.400  15.369  0.00  0.00    +0.041 C 
ATOM     20  C   UNL     1      -5.268 -10.877  18.745  0.00  0.00    +0.229 C 
ATOM     21  C   UNL     1      -9.354 -11.392  15.622  0.00  0.00    +0.229 C 
ATOM     26  C   UNL     1      -6.330  -9.980  19.349  0.00  0.00    +0.178 C 
ATOM     28  C   UNL     1      -8.084 -11.687  19.409  0.00  0.00    +0.120 C 
ATOM     29  C   UNL     1      -9.968 -12.196  17.759  0.00  0.00    +0.125 A 
ATOM     30  C   UNL     1      -9.534 -11.977  19.079  0.00  0.00    +0.010 A 
ATOM     32  C   UNL     1     -10.484 -12.013  20.111  0.00  0.00    +0.031 A 
ATOM     33  C   UNL     1     -11.309 -12.489  17.489  0.00  0.00    +0.048 A 
ATOM     34  C   UNL     1     -11.826 -12.283  19.838  0.00  0.00    +0.030 A 
ATOM     35  C   UNL     1     -12.236 -12.525  18.530  0.00  0.00    +0.027 A 
ATOM     41  H   UNL     1      -7.693 -10.393  17.896  0.00  0.00    +0.123 HD
ENDROOT
BRANCH  34  10
ATOM      5  O   UNL     1     -14.461 -12.211  23.113  0.00  0.00    -0.377 OA
ATOM     10  N   UNL     1     -12.758 -12.317  20.880  0.00  0.00    -0.326 N 
ATOM     36  C   UNL     1     -13.490 -11.083  21.198  0.00  0.00    +0.133 C 
ATOM     37  C   UNL     1     -12.558 -13.233  22.009  0.00  0.00    +0.133 C 
ATOM     38  C   UNL     1     -14.764 -11.423  21.962  0.00  0.00    +0.178 C 
ATOM     39  C   UNL     1     -13.882 -13.458  22.731  0.00  0.00    +0.178 C 
ENDBRANCH  34  10
BRANCH  12  17
ATOM     17  C   UNL     1      -4.511 -11.309  13.163  0.00  0.00    +0.100 C 
BRANCH  17  19
ATOM      1  O   UNL     1      -2.557 -10.297  12.284  0.00  0.00    -0.276 OA
ATOM      7  N   UNL     1      -4.559  -9.776  11.228  0.00  0.00    -0.299 N 
ATOM      8  N   UNL     1      -5.925  -9.070   8.810  0.00  0.00    -0.297 NA
ATOM     19  C   UNL     1      -3.781 -10.417  12.191  0.00  0.00    +0.216 C 
ATOM     22  C   UNL     1      -3.925  -8.898  10.247  0.00  0.00    +0.123 C 
ATOM     23  C   UNL     1      -6.024  -9.793  11.172  0.00  0.00    +0.123 C 
ATOM     24  C   UNL     1      -4.458  -9.163   8.839  0.00  0.00    +0.103 C 
ATOM     25  C   UNL     1      -6.520 -10.036   9.746  0.00  0.00    +0.103 C 
BRANCH   8  27
ATOM     27  C   UNL     1      -6.428  -9.292   7.455  0.00  0.00    +0.112 C 
BRANCH  27  31
ATOM     31  C   UNL     1      -6.321 -10.760   7.076  0.00  0.00    +0.174 C 
BRANCH  31   4
ATOM      4  O   UNL     1      -5.520 -10.872   5.906  0.00  0.00    -0.382 OA
ATOM     40  C   UNL     1      -4.457 -11.797   6.088  0.00  0.00    +0.194 C 
ENDBRANCH  31   4
ENDBRANCH  27  31
ENDBRANCH   8  27
ENDBRANCH  17  19
ENDBRANCH  12  17
TORSDOF 6
ENDMDL
MODEL 8
REMARK VINA RESULT:      -6.6      3.872     12.625
REMARK  Name = 71692874
REMARK  7 active torsions:
REMARK  status: ('A' for Active; 'I' for Inactive)
REMARK    1  A    between atoms: O_4  and  C_31
REMARK    2  A    between atoms: O_4  and  C_40
REMARK    3  A    between atoms: N_8  and  C_27
REMARK    4  A    between atoms: N_10  and  C_34
REMARK    5  A    between atoms: C_12  and  C_17
REMARK    6  A    between atoms: C_17  and  C_19
REMARK    7  A    between atoms: C_27  and  C_31
REMARK                            x       y       z     vdW  Elec       q    Type
REMARK                         _______ _______ _______ _____ _____    ______ ____
ROOT
ATOM      2  O   UNL     1      -5.017  -9.482   8.770  0.00  0.00    -0.492 OA
ATOM      3  O   UNL     1      -9.692  -7.962   9.661  0.00  0.00    -0.274 OA
ATOM      6  N   UNL     1      -9.415  -9.178   7.707  0.00  0.00    -0.300 N 
ATOM      9  N   UNL     1      -7.672 -10.449  10.073  0.00  0.00    -0.304 NA
ATOM     11  C   UNL     1      -8.038 -10.098   5.832  0.00  0.00    +0.010 C 
ATOM     12  C   UNL     1      -8.664  -9.021   4.905  0.00  0.00    +0.004 C 
ATOM     13  C   UNL     1      -9.028  -7.760   5.699  0.00  0.00    +0.023 C 
ATOM     14  C   UNL     1      -9.039 -10.398   6.974  0.00  0.00    +0.111 C 
ATOM     15  C   UNL     1      -6.649  -9.695   6.384  0.00  0.00    +0.008 C 
ATOM     16  C   UNL     1      -9.942  -8.093   6.874  0.00  0.00    +0.108 C 
ATOM     18  C   UNL     1      -5.877 -10.868   7.002  0.00  0.00    +0.041 C 
ATOM     20  C   UNL     1      -9.420  -9.027   9.096  0.00  0.00    +0.229 C 
ATOM     21  C   UNL     1      -4.624 -10.409   7.752  0.00  0.00    +0.229 C 
ATOM     26  C   UNL     1      -9.114 -10.238   9.953  0.00  0.00    +0.178 C 
ATOM     28  C   UNL     1      -6.987  -9.391  10.821  0.00  0.00    +0.120 C 
ATOM     29  C   UNL     1      -4.589  -9.793  10.034  0.00  0.00    +0.125 A 
ATOM     30  C   UNL     1      -5.534  -9.736  11.075  0.00  0.00    +0.010 A 
ATOM     32  C   UNL     1      -5.110 -10.024  12.381  0.00  0.00    +0.031 A 
ATOM     33  C   UNL     1      -3.249 -10.087  10.304  0.00  0.00    +0.048 A 
ATOM     34  C   UNL     1      -3.776 -10.340  12.645  0.00  0.00    +0.030 A 
ATOM     35  C   UNL     1      -2.847 -10.366  11.609  0.00  0.00    +0.027 A 
ATOM     41  H   UNL     1      -7.264 -10.506   9.148  0.00  0.00    +0.123 HD
ENDROOT
BRANCH  34  10
ATOM      5  O   UNL     1      -2.618 -10.922  16.645  0.00  0.00    -0.377 OA
ATOM     10  N   UNL     1      -3.372 -10.622  13.954  0.00  0.00    -0.326 N 
ATOM     36  C   UNL     1      -4.383 -10.573  15.018  0.00  0.00    +0.133 C 
ATOM     37  C   UNL     1      -2.002 -10.311  14.380  0.00  0.00    +0.133 C 
ATOM     38  C   UNL     1      -3.904 -11.376  16.222  0.00  0.00    +0.178 C 
ATOM     39  C   UNL     1      -1.649 -11.128  15.618  0.00  0.00    +0.178 C 
ENDBRANCH  34  10
BRANCH  12  17
ATOM     17  C   UNL     1      -7.794  -8.672   3.697  0.00  0.00    +0.100 C 
BRANCH  17  19
ATOM      1  O   UNL     1      -8.578 -10.179   2.044  0.00  0.00    -0.276 OA
ATOM      7  N   UNL     1      -9.109  -7.938   1.740  0.00  0.00    -0.299 N 
ATOM      8  N   UNL     1     -10.948  -5.986   0.730  0.00  0.00    -0.297 NA
ATOM     19  C   UNL     1      -8.525  -9.006   2.421  0.00  0.00    +0.216 C 
ATOM     22  C   UNL     1      -9.839  -8.179   0.497  0.00  0.00    +0.123 C 
ATOM     23  C   UNL     1      -8.952  -6.522   2.088  0.00  0.00    +0.123 C 
ATOM     24  C   UNL     1     -11.164  -7.418   0.475  0.00  0.00    +0.103 C 
ATOM     25  C   UNL     1     -10.293  -5.789   2.032  0.00  0.00    +0.103 C 
BRANCH   8  27
ATOM     27  C   UNL     1     -12.213  -5.257   0.675  0.00  0.00    +0.112 C 
BRANCH  27  31
ATOM     31  C   UNL     1     -12.244  -4.323  -0.524  0.00  0.00    +0.174 C 
BRANCH  31   4
ATOM      4  O   UNL     1     -11.185  -3.383  -0.398  0.00  0.00    -0.382 OA
ATOM     40  C   UNL     1     -11.644  -2.149   0.138  0.00  0.00    +0.194 C 
ENDBRANCH  31   4
ENDBRANCH  27  31
ENDBRANCH   8  27
ENDBRANCH  17  19
ENDBRANCH  12  17
TORSDOF 6
ENDMDL
MODEL 9
REMARK VINA RESULT:      -6.6      3.079      3.908
REMARK  Name = 71692874
REMARK  7 active torsions:
REMARK  status: ('A' for Active; 'I' for Inactive)
REMARK    1  A    between atoms: O_4  and  C_31
REMARK    2  A    between atoms: O_4  and  C_40
REMARK    3  A    between atoms: N_8  and  C_27
REMARK    4  A    between atoms: N_10  and  C_34
REMARK    5  A    between atoms: C_12  and  C_17
REMARK    6  A    between atoms: C_17  and  C_19
REMARK    7  A    between atoms: C_27  and  C_31
REMARK                            x       y       z     vdW  Elec       q    Type
REMARK                         _______ _______ _______ _____ _____    ______ ____
ROOT
ATOM      2  O   UNL     1      -5.487 -10.193  10.826  0.00  0.00    -0.492 OA
ATOM      3  O   UNL     1      -2.006 -12.789  13.298  0.00  0.00    -0.274 OA
ATOM      6  N   UNL     1      -4.018 -12.532  14.422  0.00  0.00    -0.300 N 
ATOM      9  N   UNL     1      -4.537 -13.115  11.318  0.00  0.00    -0.304 NA
ATOM     11  C   UNL     1      -6.199 -11.385  14.852  0.00  0.00    +0.010 C 
ATOM     12  C   UNL     1      -5.570 -10.765  16.129  0.00  0.00    +0.004 C 
ATOM     13  C   UNL     1      -4.058 -10.571  15.955  0.00  0.00    +0.023 C 
ATOM     14  C   UNL     1      -5.472 -12.718  14.550  0.00  0.00    +0.111 C 
ATOM     15  C   UNL     1      -6.170 -10.432  13.633  0.00  0.00    +0.008 C 
ATOM     16  C   UNL     1      -3.375 -11.879  15.567  0.00  0.00    +0.108 C 
ATOM     18  C   UNL     1      -7.085 -10.884  12.487  0.00  0.00    +0.041 C 
ATOM     20  C   UNL     1      -3.217 -13.020  13.386  0.00  0.00    +0.229 C 
ATOM     21  C   UNL     1      -6.862 -10.070  11.210  0.00  0.00    +0.229 C 
ATOM     26  C   UNL     1      -3.858 -13.909  12.339  0.00  0.00    +0.178 C 
ATOM     28  C   UNL     1      -3.625 -12.318  10.494  0.00  0.00    +0.120 C 
ATOM     29  C   UNL     1      -5.280 -10.619   9.541  0.00  0.00    +0.125 A 
ATOM     30  C   UNL     1      -4.347 -11.653   9.339  0.00  0.00    +0.010 A 
ATOM     32  C   UNL     1      -4.100 -12.086   8.028  0.00  0.00    +0.031 A 
ATOM     33  C   UNL     1      -5.910 -10.006   8.453  0.00  0.00    +0.048 A 
ATOM     34  C   UNL     1      -4.748 -11.489   6.945  0.00  0.00    +0.030 A 
ATOM     35  C   UNL     1      -5.647 -10.448   7.157  0.00  0.00    +0.027 A 
ATOM     41  H   UNL     1      -5.198 -12.490  11.764  0.00  0.00    +0.123 HD
ENDROOT
BRANCH  34  10
ATOM      5  O   UNL     1      -4.051 -13.075   3.114  0.00  0.00    -0.377 OA
ATOM     10  N   UNL     1      -4.486 -11.932   5.645  0.00  0.00    -0.326 N 
ATOM     36  C   UNL     1      -5.623 -12.337   4.807  0.00  0.00    +0.133 C 
ATOM     37  C   UNL     1      -3.217 -12.605   5.343  0.00  0.00    +0.133 C 
ATOM     38  C   UNL     1      -5.223 -12.290   3.338  0.00  0.00    +0.178 C 
ATOM     39  C   UNL     1      -2.945 -12.545   3.844  0.00  0.00    +0.178 C 
ENDBRANCH  34  10
BRANCH  12  17
ATOM     17  C   UNL     1      -6.238  -9.464  16.572  0.00  0.00    +0.100 C 
BRANCH  17  19
ATOM      1  O   UNL     1      -7.247 -10.240  18.571  0.00  0.00    -0.276 OA
ATOM      7  N   UNL     1      -8.684  -9.477  16.913  0.00  0.00    -0.299 N 
ATOM      8  N   UNL     1     -11.168  -8.224  16.231  0.00  0.00    -0.297 NA
ATOM     19  C   UNL     1      -7.429  -9.766  17.447  0.00  0.00    +0.216 C 
ATOM     22  C   UNL     1      -9.887  -9.738  17.700  0.00  0.00    +0.123 C 
ATOM     23  C   UNL     1      -8.940  -9.039  15.537  0.00  0.00    +0.123 C 
ATOM     24  C   UNL     1     -10.862  -8.563  17.628  0.00  0.00    +0.103 C 
ATOM     25  C   UNL     1      -9.937  -7.881  15.503  0.00  0.00    +0.103 C 
BRANCH   8  27
ATOM     27  C   UNL     1     -12.126  -7.121  16.167  0.00  0.00    +0.112 C 
BRANCH  27  31
ATOM     31  C   UNL     1     -11.645  -6.046  15.206  0.00  0.00    +0.174 C 
BRANCH  31   4
ATOM      4  O   UNL     1     -12.546  -5.977  14.109  0.00  0.00    -0.382 OA
ATOM     40  C   UNL     1     -12.469  -4.720  13.450  0.00  0.00    +0.194 C 
ENDBRANCH  31   4
ENDBRANCH  27  31
ENDBRANCH   8  27
ENDBRANCH  17  19
ENDBRANCH  12  17
TORSDOF 6
ENDMDL
MODEL 10
REMARK VINA RESULT:      -6.4     24.794     28.476
REMARK  Name = 71692874
REMARK  7 active torsions:
REMARK  status: ('A' for Active; 'I' for Inactive)
REMARK    1  A    between atoms: O_4  and  C_31
REMARK    2  A    between atoms: O_4  and  C_40
REMARK    3  A    between atoms: N_8  and  C_27
REMARK    4  A    between atoms: N_10  and  C_34
REMARK    5  A    between atoms: C_12  and  C_17
REMARK    6  A    between atoms: C_17  and  C_19
REMARK    7  A    between atoms: C_27  and  C_31
REMARK                            x       y       z     vdW  Elec       q    Type
REMARK                         _______ _______ _______ _____ _____    ______ ____
ROOT
ATOM      2  O   UNL     1      11.871   9.626   6.666  0.00  0.00    -0.492 OA
ATOM      3  O   UNL     1       7.684   8.254   4.310  0.00  0.00    -0.274 OA
ATOM      6  N   UNL     1       9.399   6.696   4.243  0.00  0.00    -0.300 N 
ATOM      9  N   UNL     1       9.230   8.051   7.138  0.00  0.00    -0.304 NA
ATOM     11  C   UNL     1      11.803   6.020   4.400  0.00  0.00    +0.010 C 
ATOM     12  C   UNL     1      11.822   5.896   2.853  0.00  0.00    +0.004 C 
ATOM     13  C   UNL     1      10.828   6.874   2.214  0.00  0.00    +0.023 C 
ATOM     14  C   UNL     1      10.354   5.781   4.890  0.00  0.00    +0.111 C 
ATOM     15  C   UNL     1      12.360   7.371   4.911  0.00  0.00    +0.008 C 
ATOM     16  C   UNL     1       9.424   6.681   2.778  0.00  0.00    +0.108 C 
ATOM     18  C   UNL     1      12.671   7.371   6.414  0.00  0.00    +0.041 C 
ATOM     20  C   UNL     1       8.427   7.458   4.895  0.00  0.00    +0.229 C 
ATOM     21  C   UNL     1      12.988   8.772   6.942  0.00  0.00    +0.229 C 
ATOM     26  C   UNL     1       8.247   7.272   6.388  0.00  0.00    +0.178 C 
ATOM     28  C   UNL     1       9.050   9.500   7.009  0.00  0.00    +0.120 C 
ATOM     29  C   UNL     1      11.364  10.287   7.753  0.00  0.00    +0.125 A 
ATOM     30  C   UNL     1       9.970  10.264   7.939  0.00  0.00    +0.010 A 
ATOM     32  C   UNL     1       9.428  10.958   9.032  0.00  0.00    +0.031 A 
ATOM     33  C   UNL     1      12.185  11.025   8.612  0.00  0.00    +0.048 A 
ATOM     34  C   UNL     1      10.252  11.675   9.902  0.00  0.00    +0.030 A 
ATOM     35  C   UNL     1      11.627  11.712   9.689  0.00  0.00    +0.027 A 
ATOM     41  H   UNL     1      10.160   7.812   6.820  0.00  0.00    +0.123 HD
ENDROOT
BRANCH  34  10
ATOM      5  O   UNL     1       8.796  13.910  13.151  0.00  0.00    -0.377 OA
ATOM     10  N   UNL     1       9.693  12.362  10.983  0.00  0.00    -0.326 N 
ATOM     36  C   UNL     1       9.277  13.757  10.780  0.00  0.00    +0.133 C 
ATOM     37  C   UNL     1      10.099  12.027  12.353  0.00  0.00    +0.133 C 
ATOM     38  C   UNL     1       8.266  14.155  11.848  0.00  0.00    +0.178 C 
ATOM     39  C   UNL     1       9.045  12.518  13.339  0.00  0.00    +0.178 C 
ENDBRANCH  34  10
BRANCH  12  17
ATOM     17  C   UNL     1      13.214   6.057   2.242  0.00  0.00    +0.100 C 
BRANCH  17  19
ATOM      1  O   UNL     1      14.110   3.866   2.133  0.00  0.00    -0.276 OA
ATOM      7  N   UNL     1      13.355   4.778   0.135  0.00  0.00    -0.299 N 
ATOM      8  N   UNL     1      12.195   4.355  -2.451  0.00  0.00    -0.297 NA
ATOM     19  C   UNL     1      13.604   4.800   1.507  0.00  0.00    +0.216 C 
ATOM     22  C   UNL     1      13.700   3.594  -0.649  0.00  0.00    +0.123 C 
ATOM     23  C   UNL     1      12.879   5.915  -0.659  0.00  0.00    +0.123 C 
ATOM     24  C   UNL     1      12.570   3.212  -1.605  0.00  0.00    +0.103 C 
ATOM     25  C   UNL     1      11.768   5.491  -1.620  0.00  0.00    +0.103 C 
BRANCH   8  27
ATOM     27  C   UNL     1      11.137   3.977  -3.386  0.00  0.00    +0.112 C 
BRANCH  27  31
ATOM     31  C   UNL     1      10.732   2.526  -3.181  0.00  0.00    +0.174 C 
BRANCH  31   4
ATOM      4  O   UNL     1       9.367   2.376  -3.550  0.00  0.00    -0.382 OA
ATOM     40  C   UNL     1       8.959   3.388  -4.460  0.00  0.00    +0.194 C 
ENDBRANCH  31   4
ENDBRANCH  27  31
ENDBRANCH   8  27
ENDBRANCH  17  19
ENDBRANCH  12  17
TORSDOF 6
ENDMDL
