MODEL 1
REMARK VINA RESULT:      -6.5      0.000      0.000
REMARK  Name = 71694056
REMARK  9 active torsions:
REMARK  status: ('A' for Active; 'I' for Inactive)
REMARK    1  A    between atoms: O_4  and  C_11
REMARK    2  A    between atoms: O_5  and  C_13
REMARK    3  A    between atoms: O_6  and  C_24
REMARK    4  A    between atoms: O_6  and  C_27
REMARK    5  A    between atoms: N_7  and  C_9
REMARK    6  A    between atoms: N_7  and  C_15
REMARK    7  A    between atoms: C_10  and  C_14
REMARK    8  A    between atoms: C_15  and  C_18
REMARK    9  A    between atoms: C_20  and  C_23
REMARK                            x       y       z     vdW  Elec       q    Type
REMARK                         _______ _______ _______ _____ _____    ______ ____
ROOT
ATOM      9  C   UNL     1     -14.447   6.708  23.045  0.00  0.00    +0.093 C 
ATOM     10  C   UNL     1     -14.835   6.619  21.536  0.00  0.00    +0.042 C 
ATOM     11  C   UNL     1     -14.643   5.286  23.594  0.00  0.00    +0.160 C 
ATOM     12  C   UNL     1     -15.251   5.155  21.294  0.00  0.00    +0.043 C 
ATOM     13  C   UNL     1     -15.691   4.675  22.669  0.00  0.00    +0.145 C 
ENDROOT
BRANCH  10  14
ATOM      8  N   UNL     1     -13.153   8.126  18.488  0.00  0.00    -0.251 NA
ATOM     14  C   UNL     1     -13.753   7.096  20.591  0.00  0.00    -0.025 A 
ATOM     16  C   UNL     1     -12.407   6.961  20.918  0.00  0.00    +0.007 A 
ATOM     17  C   UNL     1     -14.070   7.680  19.376  0.00  0.00    +0.115 A 
ATOM     19  C   UNL     1     -11.434   7.408  20.029  0.00  0.00    +0.032 A 
ATOM     20  C   UNL     1     -11.856   7.977  18.839  0.00  0.00    +0.144 A 
BRANCH  20  23
ATOM      1  F   UNL     1     -11.346   9.334  16.935  0.00  0.00    -0.164 F 
ATOM      2  F   UNL     1      -9.801   9.136  18.444  0.00  0.00    -0.164 F 
ATOM      3  F   UNL     1     -10.269   7.457  17.146  0.00  0.00    -0.164 F 
ATOM     23  C   UNL     1     -10.840   8.469  17.862  0.00  0.00    +0.434 C 
ENDBRANCH  20  23
ENDBRANCH  10  14
BRANCH  11   4
ATOM      4  O   UNL     1     -13.403   4.587  23.484  0.00  0.00    -0.388 OA
ATOM     29  H   UNL     1     -13.429   4.077  22.656  0.00  0.00    +0.210 HD
ENDBRANCH  11   4
BRANCH  13   5
ATOM      5  O   UNL     1     -15.721   3.264  22.738  0.00  0.00    -0.389 OA
ATOM     30  H   UNL     1     -14.872   2.972  23.112  0.00  0.00    +0.210 HD
ENDBRANCH  13   5
BRANCH   9   7
ATOM      7  N   UNL     1     -15.351   7.635  23.729  0.00  0.00    -0.306 NA
ATOM     28  H   UNL     1     -15.010   7.798  24.677  0.00  0.00    +0.123 HD
BRANCH   7  15
ATOM     15  C   UNL     1     -15.410   8.912  23.032  0.00  0.00    +0.116 C 
BRANCH  15  18
ATOM     18  C   UNL     1     -14.194   9.757  23.306  0.00  0.00    -0.030 A 
ATOM     21  C   UNL     1     -13.797  10.001  24.621  0.00  0.00    +0.050 A 
ATOM     22  C   UNL     1     -13.465  10.297  22.247  0.00  0.00    +0.005 A 
ATOM     24  C   UNL     1     -12.671  10.784  24.877  0.00  0.00    +0.120 A 
ATOM     25  C   UNL     1     -12.339  11.081  22.502  0.00  0.00    +0.004 A 
ATOM     26  C   UNL     1     -11.943  11.324  23.817  0.00  0.00    +0.045 A 
BRANCH  24   6
ATOM      6  O   UNL     1     -12.285  11.022  26.160  0.00  0.00    -0.495 OA
ATOM     27  C   UNL     1     -11.009  10.523  26.557  0.00  0.00    +0.277 C 
ENDBRANCH  24   6
ENDBRANCH  15  18
ENDBRANCH   7  15
ENDBRANCH   9   7
TORSDOF 8
ENDMDL
MODEL 2
REMARK VINA RESULT:      -6.3     28.371     31.836
REMARK  Name = 71694056
REMARK  9 active torsions:
REMARK  status: ('A' for Active; 'I' for Inactive)
REMARK    1  A    between atoms: O_4  and  C_11
REMARK    2  A    between atoms: O_5  and  C_13
REMARK    3  A    between atoms: O_6  and  C_24
REMARK    4  A    between atoms: O_6  and  C_27
REMARK    5  A    between atoms: N_7  and  C_9
REMARK    6  A    between atoms: N_7  and  C_15
REMARK    7  A    between atoms: C_10  and  C_14
REMARK    8  A    between atoms: C_15  and  C_18
REMARK    9  A    between atoms: C_20  and  C_23
REMARK                            x       y       z     vdW  Elec       q    Type
REMARK                         _______ _______ _______ _____ _____    ______ ____
ROOT
ATOM      9  C   UNL     1      12.778   5.454   1.789  0.00  0.00    +0.093 C 
ATOM     10  C   UNL     1      12.143   4.155   1.199  0.00  0.00    +0.042 C 
ATOM     11  C   UNL     1      14.290   5.185   1.811  0.00  0.00    +0.160 C 
ATOM     12  C   UNL     1      13.319   3.198   0.927  0.00  0.00    +0.043 C 
ATOM     13  C   UNL     1      14.394   3.665   1.896  0.00  0.00    +0.145 C 
ENDROOT
BRANCH  10  14
ATOM      8  N   UNL     1      10.646   3.759  -2.264  0.00  0.00    -0.251 NA
ATOM     14  C   UNL     1      11.272   4.392  -0.016  0.00  0.00    -0.025 A 
ATOM     16  C   UNL     1      10.325   5.411  -0.031  0.00  0.00    +0.007 A 
ATOM     17  C   UNL     1      11.391   3.601  -1.147  0.00  0.00    +0.115 A 
ATOM     19  C   UNL     1       9.539   5.605  -1.162  0.00  0.00    +0.032 A 
ATOM     20  C   UNL     1       9.737   4.760  -2.242  0.00  0.00    +0.144 A 
BRANCH  20  23
ATOM      1  F   UNL     1       8.438   3.766  -3.988  0.00  0.00    -0.164 F 
ATOM      2  F   UNL     1       7.805   5.716  -3.279  0.00  0.00    -0.164 F 
ATOM      3  F   UNL     1       9.603   5.532  -4.487  0.00  0.00    -0.164 F 
ATOM     23  C   UNL     1       8.911   4.939  -3.472  0.00  0.00    +0.434 C 
ENDBRANCH  20  23
ENDBRANCH  10  14
BRANCH  11   4
ATOM      4  O   UNL     1      14.850   5.662   0.587  0.00  0.00    -0.388 OA
ATOM     29  H   UNL     1      15.656   6.159   0.810  0.00  0.00    +0.210 HD
ENDBRANCH  11   4
BRANCH  13   5
ATOM      5  O   UNL     1      15.670   3.186   1.522  0.00  0.00    -0.389 OA
ATOM     30  H   UNL     1      16.047   3.820   0.889  0.00  0.00    +0.210 HD
ENDBRANCH  13   5
BRANCH   9   7
ATOM      7  N   UNL     1      12.289   5.661   3.153  0.00  0.00    -0.306 NA
ATOM     28  H   UNL     1      12.057   6.647   3.280  0.00  0.00    +0.123 HD
BRANCH   7  15
ATOM     15  C   UNL     1      11.093   4.869   3.402  0.00  0.00    +0.116 C 
BRANCH  15  18
ATOM     18  C   UNL     1      10.134   5.574   4.325  0.00  0.00    -0.030 A 
ATOM     21  C   UNL     1      10.119   5.262   5.685  0.00  0.00    +0.050 A 
ATOM     22  C   UNL     1       9.263   6.539   3.821  0.00  0.00    +0.005 A 
ATOM     24  C   UNL     1       9.231   5.916   6.540  0.00  0.00    +0.120 A 
ATOM     25  C   UNL     1       8.375   7.192   4.677  0.00  0.00    +0.004 A 
ATOM     26  C   UNL     1       8.359   6.880   6.036  0.00  0.00    +0.045 A 
BRANCH  24   6
ATOM      6  O   UNL     1       9.215   5.610   7.866  0.00  0.00    -0.495 OA
ATOM     27  C   UNL     1       9.809   4.372   8.254  0.00  0.00    +0.277 C 
ENDBRANCH  24   6
ENDBRANCH  15  18
ENDBRANCH   7  15
ENDBRANCH   9   7
TORSDOF 8
ENDMDL
MODEL 3
REMARK VINA RESULT:      -6.2     27.902     31.307
REMARK  Name = 71694056
REMARK  9 active torsions:
REMARK  status: ('A' for Active; 'I' for Inactive)
REMARK    1  A    between atoms: O_4  and  C_11
REMARK    2  A    between atoms: O_5  and  C_13
REMARK    3  A    between atoms: O_6  and  C_24
REMARK    4  A    between atoms: O_6  and  C_27
REMARK    5  A    between atoms: N_7  and  C_9
REMARK    6  A    between atoms: N_7  and  C_15
REMARK    7  A    between atoms: C_10  and  C_14
REMARK    8  A    between atoms: C_15  and  C_18
REMARK    9  A    between atoms: C_20  and  C_23
REMARK                            x       y       z     vdW  Elec       q    Type
REMARK                         _______ _______ _______ _____ _____    ______ ____
ROOT
ATOM      9  C   UNL     1      11.551   5.692   2.880  0.00  0.00    +0.093 C 
ATOM     10  C   UNL     1      12.679   4.942   2.105  0.00  0.00    +0.042 C 
ATOM     11  C   UNL     1      12.094   7.113   3.101  0.00  0.00    +0.160 C 
ATOM     12  C   UNL     1      13.821   5.961   1.933  0.00  0.00    +0.043 C 
ATOM     13  C   UNL     1      13.609   6.936   3.081  0.00  0.00    +0.145 C 
ENDROOT
BRANCH  10  14
ATOM      8  N   UNL     1      10.483   4.031  -0.851  0.00  0.00    -0.251 NA
ATOM     14  C   UNL     1      12.226   4.326   0.799  0.00  0.00    -0.025 A 
ATOM     16  C   UNL     1      13.079   3.518   0.054  0.00  0.00    +0.007 A 
ATOM     17  C   UNL     1      10.950   4.550   0.307  0.00  0.00    +0.115 A 
ATOM     19  C   UNL     1      12.634   2.965  -1.142  0.00  0.00    +0.032 A 
ATOM     20  C   UNL     1      11.340   3.249  -1.547  0.00  0.00    +0.144 A 
BRANCH  20  23
ATOM      1  F   UNL     1      11.769   2.620  -3.815  0.00  0.00    -0.164 F 
ATOM      2  F   UNL     1      10.365   1.396  -2.703  0.00  0.00    -0.164 F 
ATOM      3  F   UNL     1       9.791   3.392  -3.345  0.00  0.00    -0.164 F 
ATOM     23  C   UNL     1      10.829   2.674  -2.826  0.00  0.00    +0.434 C 
ENDBRANCH  20  23
ENDBRANCH  10  14
BRANCH  11   4
ATOM      4  O   UNL     1      11.667   7.932   2.012  0.00  0.00    -0.388 OA
ATOM     29  H   UNL     1      10.741   8.178   2.179  0.00  0.00    +0.210 HD
ENDBRANCH  11   4
BRANCH  13   5
ATOM      5  O   UNL     1      14.296   8.151   2.861  0.00  0.00    -0.389 OA
ATOM     30  H   UNL     1      13.635   8.819   2.610  0.00  0.00    +0.210 HD
ENDBRANCH  13   5
BRANCH   9   7
ATOM      7  N   UNL     1      11.326   5.039   4.171  0.00  0.00    -0.306 NA
ATOM     28  H   UNL     1      11.773   5.587   4.907  0.00  0.00    +0.123 HD
BRANCH   7  15
ATOM     15  C   UNL     1       9.903   4.945   4.464  0.00  0.00    +0.116 C 
BRANCH  15  18
ATOM     18  C   UNL     1       9.561   5.567   5.792  0.00  0.00    -0.030 A 
ATOM     21  C   UNL     1       9.958   4.946   6.976  0.00  0.00    +0.050 A 
ATOM     22  C   UNL     1       8.847   6.764   5.838  0.00  0.00    +0.005 A 
ATOM     24  C   UNL     1       9.642   5.522   8.206  0.00  0.00    +0.120 A 
ATOM     25  C   UNL     1       8.530   7.340   7.069  0.00  0.00    +0.004 A 
ATOM     26  C   UNL     1       8.927   6.719   8.253  0.00  0.00    +0.045 A 
BRANCH  24   6
ATOM      6  O   UNL     1      10.029   4.914   9.361  0.00  0.00    -0.495 OA
ATOM     27  C   UNL     1       9.011   4.634  10.320  0.00  0.00    +0.277 C 
ENDBRANCH  24   6
ENDBRANCH  15  18
ENDBRANCH   7  15
ENDBRANCH   9   7
TORSDOF 8
ENDMDL
MODEL 4
REMARK VINA RESULT:      -6.2     27.408     29.655
REMARK  Name = 71694056
REMARK  9 active torsions:
REMARK  status: ('A' for Active; 'I' for Inactive)
REMARK    1  A    between atoms: O_4  and  C_11
REMARK    2  A    between atoms: O_5  and  C_13
REMARK    3  A    between atoms: O_6  and  C_24
REMARK    4  A    between atoms: O_6  and  C_27
REMARK    5  A    between atoms: N_7  and  C_9
REMARK    6  A    between atoms: N_7  and  C_15
REMARK    7  A    between atoms: C_10  and  C_14
REMARK    8  A    between atoms: C_15  and  C_18
REMARK    9  A    between atoms: C_20  and  C_23
REMARK                            x       y       z     vdW  Elec       q    Type
REMARK                         _______ _______ _______ _____ _____    ______ ____
ROOT
ATOM      9  C   UNL     1      10.218   6.165   1.872  0.00  0.00    +0.093 C 
ATOM     10  C   UNL     1      11.401   6.021   2.880  0.00  0.00    +0.042 C 
ATOM     11  C   UNL     1      10.485   5.109   0.788  0.00  0.00    +0.160 C 
ATOM     12  C   UNL     1      12.298   4.901   2.318  0.00  0.00    +0.043 C 
ATOM     13  C   UNL     1      11.998   4.914   0.827  0.00  0.00    +0.145 C 
ENDROOT
BRANCH  10  14
ATOM      8  N   UNL     1      11.199   6.307   6.657  0.00  0.00    -0.251 NA
ATOM     14  C   UNL     1      10.967   5.777   4.310  0.00  0.00    -0.025 A 
ATOM     16  C   UNL     1       9.980   4.843   4.610  0.00  0.00    +0.007 A 
ATOM     17  C   UNL     1      11.539   6.476   5.360  0.00  0.00    +0.115 A 
ATOM     19  C   UNL     1       9.603   4.640   5.933  0.00  0.00    +0.032 A 
ATOM     20  C   UNL     1      10.237   5.390   6.910  0.00  0.00    +0.144 A 
BRANCH  20  23
ATOM      1  F   UNL     1       8.743   5.899   8.708  0.00  0.00    -0.164 F 
ATOM      2  F   UNL     1       9.588   3.901   8.666  0.00  0.00    -0.164 F 
ATOM      3  F   UNL     1      10.839   5.596   9.201  0.00  0.00    -0.164 F 
ATOM     23  C   UNL     1       9.857   5.200   8.341  0.00  0.00    +0.434 C 
ENDBRANCH  20  23
ENDBRANCH  10  14
BRANCH  11   4
ATOM      4  O   UNL     1       9.811   3.905   1.157  0.00  0.00    -0.388 OA
ATOM     29  H   UNL     1       8.859   4.051   1.018  0.00  0.00    +0.210 HD
ENDBRANCH  11   4
BRANCH  13   5
ATOM      5  O   UNL     1      12.407   3.711   0.208  0.00  0.00    -0.389 OA
ATOM     30  H   UNL     1      12.919   3.950  -0.584  0.00  0.00    +0.210 HD
ENDBRANCH  13   5
BRANCH   9   7
ATOM      7  N   UNL     1      10.240   7.503   1.280  0.00  0.00    -0.306 NA
ATOM     28  H   UNL     1      10.260   7.419   0.263  0.00  0.00    +0.123 HD
BRANCH   7  15
ATOM     15  C   UNL     1       9.054   8.259   1.659  0.00  0.00    +0.116 C 
BRANCH  15  18
ATOM     18  C   UNL     1       9.050   8.596   3.127  0.00  0.00    -0.030 A 
ATOM     21  C   UNL     1      10.010   9.466   3.644  0.00  0.00    +0.050 A 
ATOM     22  C   UNL     1       8.087   8.040   3.968  0.00  0.00    +0.005 A 
ATOM     24  C   UNL     1      10.007   9.780   5.004  0.00  0.00    +0.120 A 
ATOM     25  C   UNL     1       8.084   8.353   5.328  0.00  0.00    +0.004 A 
ATOM     26  C   UNL     1       9.044   9.223   5.845  0.00  0.00    +0.045 A 
BRANCH  24   6
ATOM      6  O   UNL     1      10.944  10.627   5.508  0.00  0.00    -0.495 OA
ATOM     27  C   UNL     1      11.679  10.180   6.646  0.00  0.00    +0.277 C 
ENDBRANCH  24   6
ENDBRANCH  15  18
ENDBRANCH   7  15
ENDBRANCH   9   7
TORSDOF 8
ENDMDL
MODEL 5
REMARK VINA RESULT:      -6.1     27.385     29.559
REMARK  Name = 71694056
REMARK  9 active torsions:
REMARK  status: ('A' for Active; 'I' for Inactive)
REMARK    1  A    between atoms: O_4  and  C_11
REMARK    2  A    between atoms: O_5  and  C_13
REMARK    3  A    between atoms: O_6  and  C_24
REMARK    4  A    between atoms: O_6  and  C_27
REMARK    5  A    between atoms: N_7  and  C_9
REMARK    6  A    between atoms: N_7  and  C_15
REMARK    7  A    between atoms: C_10  and  C_14
REMARK    8  A    between atoms: C_15  and  C_18
REMARK    9  A    between atoms: C_20  and  C_23
REMARK                            x       y       z     vdW  Elec       q    Type
REMARK                         _______ _______ _______ _____ _____    ______ ____
ROOT
ATOM      9  C   UNL     1      10.471   6.691   6.372  0.00  0.00    +0.093 C 
ATOM     10  C   UNL     1      10.010   5.516   5.454  0.00  0.00    +0.042 C 
ATOM     11  C   UNL     1      10.686   6.059   7.756  0.00  0.00    +0.160 C 
ATOM     12  C   UNL     1       9.967   4.269   6.359  0.00  0.00    +0.043 C 
ATOM     13  C   UNL     1       9.765   4.843   7.753  0.00  0.00    +0.145 C 
ENDROOT
BRANCH  10  14
ATOM      8  N   UNL     1      11.483   3.956   2.326  0.00  0.00    -0.251 NA
ATOM     14  C   UNL     1      10.863   5.327   4.218  0.00  0.00    -0.025 A 
ATOM     16  C   UNL     1      11.782   6.295   3.828  0.00  0.00    +0.007 A 
ATOM     17  C   UNL     1      10.752   4.186   3.440  0.00  0.00    +0.115 A 
ATOM     19  C   UNL     1      12.553   6.094   2.687  0.00  0.00    +0.032 A 
ATOM     20  C   UNL     1      12.367   4.919   1.978  0.00  0.00    +0.144 A 
BRANCH  20  23
ATOM      1  F   UNL     1      14.356   5.354   0.722  0.00  0.00    -0.164 F 
ATOM      2  F   UNL     1      13.517   3.359   0.576  0.00  0.00    -0.164 F 
ATOM      3  F   UNL     1      12.518   5.029  -0.392  0.00  0.00    -0.164 F 
ATOM     23  C   UNL     1      13.175   4.669   0.748  0.00  0.00    +0.434 C 
ENDBRANCH  20  23
ENDBRANCH  10  14
BRANCH  11   4
ATOM      4  O   UNL     1      12.052   5.657   7.859  0.00  0.00    -0.388 OA
ATOM     29  H   UNL     1      12.533   6.064   7.118  0.00  0.00    +0.210 HD
ENDBRANCH  11   4
BRANCH  13   5
ATOM      5  O   UNL     1      10.103   3.902   8.752  0.00  0.00    -0.389 OA
ATOM     30  H   UNL     1      10.855   4.263   9.251  0.00  0.00    +0.210 HD
ENDBRANCH  13   5
BRANCH   9   7
ATOM      7  N   UNL     1       9.413   7.700   6.445  0.00  0.00    -0.306 NA
ATOM     28  H   UNL     1       9.299   7.997   7.414  0.00  0.00    +0.123 HD
BRANCH   7  15
ATOM     15  C   UNL     1       9.750   8.865   5.639  0.00  0.00    +0.116 C 
BRANCH  15  18
ATOM     18  C   UNL     1       8.813   9.031   4.472  0.00  0.00    -0.030 A 
ATOM     21  C   UNL     1       7.546   9.582   4.668  0.00  0.00    +0.050 A 
ATOM     22  C   UNL     1       9.211   8.633   3.196  0.00  0.00    +0.005 A 
ATOM     24  C   UNL     1       6.678   9.736   3.587  0.00  0.00    +0.120 A 
ATOM     25  C   UNL     1       8.341   8.786   2.115  0.00  0.00    +0.004 A 
ATOM     26  C   UNL     1       7.075   9.337   2.311  0.00  0.00    +0.045 A 
BRANCH  24   6
ATOM      6  O   UNL     1       5.442  10.273   3.778  0.00  0.00    -0.495 OA
ATOM     27  C   UNL     1       4.588  10.358   2.639  0.00  0.00    +0.277 C 
ENDBRANCH  24   6
ENDBRANCH  15  18
ENDBRANCH   7  15
ENDBRANCH   9   7
TORSDOF 8
ENDMDL
MODEL 6
REMARK VINA RESULT:      -6.1     18.031     20.152
REMARK  Name = 71694056
REMARK  9 active torsions:
REMARK  status: ('A' for Active; 'I' for Inactive)
REMARK    1  A    between atoms: O_4  and  C_11
REMARK    2  A    between atoms: O_5  and  C_13
REMARK    3  A    between atoms: O_6  and  C_24
REMARK    4  A    between atoms: O_6  and  C_27
REMARK    5  A    between atoms: N_7  and  C_9
REMARK    6  A    between atoms: N_7  and  C_15
REMARK    7  A    between atoms: C_10  and  C_14
REMARK    8  A    between atoms: C_15  and  C_18
REMARK    9  A    between atoms: C_20  and  C_23
REMARK                            x       y       z     vdW  Elec       q    Type
REMARK                         _______ _______ _______ _____ _____    ______ ____
ROOT
ATOM      9  C   UNL     1      -6.980 -10.137  18.451  0.00  0.00    +0.093 C 
ATOM     10  C   UNL     1      -6.808 -11.097  17.232  0.00  0.00    +0.042 C 
ATOM     11  C   UNL     1      -7.313 -11.053  19.639  0.00  0.00    +0.160 C 
ATOM     12  C   UNL     1      -7.067 -12.516  17.775  0.00  0.00    +0.043 C 
ATOM     13  C   UNL     1      -7.949 -12.280  18.992  0.00  0.00    +0.145 C 
ENDROOT
BRANCH  10  14
ATOM      8  N   UNL     1      -4.261 -10.645  14.459  0.00  0.00    -0.251 NA
ATOM     14  C   UNL     1      -5.478 -10.963  16.523  0.00  0.00    -0.025 A 
ATOM     16  C   UNL     1      -4.281 -11.027  17.228  0.00  0.00    +0.007 A 
ATOM     17  C   UNL     1      -5.414 -10.772  15.152  0.00  0.00    +0.115 A 
ATOM     19  C   UNL     1      -3.073 -10.901  16.549  0.00  0.00    +0.032 A 
ATOM     20  C   UNL     1      -3.117 -10.713  15.178  0.00  0.00    +0.144 A 
BRANCH  20  23
ATOM      1  F   UNL     1      -0.898  -9.827  15.063  0.00  0.00    -0.164 F 
ATOM      2  F   UNL     1      -1.232 -11.765  14.148  0.00  0.00    -0.164 F 
ATOM      3  F   UNL     1      -2.018  -9.971  13.204  0.00  0.00    -0.164 F 
ATOM     23  C   UNL     1      -1.841 -10.573  14.416  0.00  0.00    +0.434 C 
ENDBRANCH  20  23
ENDBRANCH  10  14
BRANCH  11   4
ATOM      4  O   UNL     1      -6.093 -11.402  20.293  0.00  0.00    -0.388 OA
ATOM     29  H   UNL     1      -6.187 -12.314  20.618  0.00  0.00    +0.210 HD
ENDBRANCH  11   4
BRANCH  13   5
ATOM      5  O   UNL     1      -7.957 -13.404  19.849  0.00  0.00    -0.389 OA
ATOM     30  H   UNL     1      -7.160 -13.925  19.655  0.00  0.00    +0.210 HD
ENDBRANCH  13   5
BRANCH   9   7
ATOM      7  N   UNL     1      -8.095  -9.222  18.200  0.00  0.00    -0.306 NA
ATOM     28  H   UNL     1      -7.808  -8.272  18.436  0.00  0.00    +0.123 HD
BRANCH   7  15
ATOM     15  C   UNL     1      -8.486  -9.253  16.797  0.00  0.00    +0.116 C 
BRANCH  15  18
ATOM     18  C   UNL     1      -9.845  -8.640  16.580  0.00  0.00    -0.030 A 
ATOM     21  C   UNL     1      -9.968  -7.465  15.838  0.00  0.00    +0.050 A 
ATOM     22  C   UNL     1     -10.978  -9.246  17.121  0.00  0.00    +0.005 A 
ATOM     24  C   UNL     1     -11.227  -6.896  15.637  0.00  0.00    +0.120 A 
ATOM     25  C   UNL     1     -12.236  -8.677  16.920  0.00  0.00    +0.004 A 
ATOM     26  C   UNL     1     -12.360  -7.502  16.178  0.00  0.00    +0.045 A 
BRANCH  24   6
ATOM      6  O   UNL     1     -11.347  -5.750  14.913  0.00  0.00    -0.495 OA
ATOM     27  C   UNL     1     -12.619  -5.483  14.326  0.00  0.00    +0.277 C 
ENDBRANCH  24   6
ENDBRANCH  15  18
ENDBRANCH   7  15
ENDBRANCH   9   7
TORSDOF 8
ENDMDL
MODEL 7
REMARK VINA RESULT:      -5.9     31.681     33.910
REMARK  Name = 71694056
REMARK  9 active torsions:
REMARK  status: ('A' for Active; 'I' for Inactive)
REMARK    1  A    between atoms: O_4  and  C_11
REMARK    2  A    between atoms: O_5  and  C_13
REMARK    3  A    between atoms: O_6  and  C_24
REMARK    4  A    between atoms: O_6  and  C_27
REMARK    5  A    between atoms: N_7  and  C_9
REMARK    6  A    between atoms: N_7  and  C_15
REMARK    7  A    between atoms: C_10  and  C_14
REMARK    8  A    between atoms: C_15  and  C_18
REMARK    9  A    between atoms: C_20  and  C_23
REMARK                            x       y       z     vdW  Elec       q    Type
REMARK                         _______ _______ _______ _____ _____    ______ ____
ROOT
ATOM      9  C   UNL     1      20.035   5.445  21.206  0.00  0.00    +0.093 C 
ATOM     10  C   UNL     1      19.653   6.731  20.407  0.00  0.00    +0.042 C 
ATOM     11  C   UNL     1      20.853   5.947  22.406  0.00  0.00    +0.160 C 
ATOM     12  C   UNL     1      20.284   7.907  21.177  0.00  0.00    +0.043 C 
ATOM     13  C   UNL     1      21.445   7.267  21.922  0.00  0.00    +0.145 C 
ENDROOT
BRANCH  10  14
ATOM      8  N   UNL     1      16.148   6.143  19.080  0.00  0.00    -0.251 NA
ATOM     14  C   UNL     1      18.166   6.897  20.178  0.00  0.00    -0.025 A 
ATOM     16  C   UNL     1      17.451   7.905  20.816  0.00  0.00    +0.007 A 
ATOM     17  C   UNL     1      17.474   6.049  19.328  0.00  0.00    +0.115 A 
ATOM     19  C   UNL     1      16.085   8.034  20.585  0.00  0.00    +0.032 A 
ATOM     20  C   UNL     1      15.487   7.136  19.716  0.00  0.00    +0.144 A 
BRANCH  20  23
ATOM      1  F   UNL     1      13.693   7.040  18.137  0.00  0.00    -0.164 F 
ATOM      2  F   UNL     1      13.271   6.345  20.148  0.00  0.00    -0.164 F 
ATOM      3  F   UNL     1      13.520   8.471  19.765  0.00  0.00    -0.164 F 
ATOM     23  C   UNL     1      14.023   7.243  19.446  0.00  0.00    +0.434 C 
ENDBRANCH  20  23
ENDBRANCH  10  14
BRANCH  11   4
ATOM      4  O   UNL     1      19.960   6.165  23.499  0.00  0.00    -0.388 OA
ATOM     29  H   UNL     1      19.403   5.372  23.582  0.00  0.00    +0.210 HD
ENDBRANCH  11   4
BRANCH  13   5
ATOM      5  O   UNL     1      21.891   8.085  22.985  0.00  0.00    -0.389 OA
ATOM     30  H   UNL     1      22.671   8.573  22.670  0.00  0.00    +0.210 HD
ENDBRANCH  13   5
BRANCH   9   7
ATOM      7  N   UNL     1      20.862   4.576  20.367  0.00  0.00    -0.306 NA
ATOM     28  H   UNL     1      21.597   5.133  19.931  0.00  0.00    +0.123 HD
BRANCH   7  15
ATOM     15  C   UNL     1      21.485   3.528  21.163  0.00  0.00    +0.116 C 
BRANCH  15  18
ATOM     18  C   UNL     1      22.952   3.385  20.851  0.00  0.00    -0.030 A 
ATOM     21  C   UNL     1      23.668   4.473  20.352  0.00  0.00    +0.050 A 
ATOM     22  C   UNL     1      23.594   2.165  21.062  0.00  0.00    +0.005 A 
ATOM     24  C   UNL     1      25.026   4.341  20.064  0.00  0.00    +0.120 A 
ATOM     25  C   UNL     1      24.953   2.033  20.773  0.00  0.00    +0.004 A 
ATOM     26  C   UNL     1      25.669   3.121  20.274  0.00  0.00    +0.045 A 
BRANCH  24   6
ATOM      6  O   UNL     1      25.724   5.403  19.576  0.00  0.00    -0.495 OA
ATOM     27  C   UNL     1      26.730   5.127  18.603  0.00  0.00    +0.277 C 
ENDBRANCH  24   6
ENDBRANCH  15  18
ENDBRANCH   7  15
ENDBRANCH   9   7
TORSDOF 8
ENDMDL
MODEL 8
REMARK VINA RESULT:      -5.9     27.801     29.907
REMARK  Name = 71694056
REMARK  9 active torsions:
REMARK  status: ('A' for Active; 'I' for Inactive)
REMARK    1  A    between atoms: O_4  and  C_11
REMARK    2  A    between atoms: O_5  and  C_13
REMARK    3  A    between atoms: O_6  and  C_24
REMARK    4  A    between atoms: O_6  and  C_27
REMARK    5  A    between atoms: N_7  and  C_9
REMARK    6  A    between atoms: N_7  and  C_15
REMARK    7  A    between atoms: C_10  and  C_14
REMARK    8  A    between atoms: C_15  and  C_18
REMARK    9  A    between atoms: C_20  and  C_23
REMARK                            x       y       z     vdW  Elec       q    Type
REMARK                         _______ _______ _______ _____ _____    ______ ____
ROOT
ATOM      9  C   UNL     1      10.453   6.708   6.402  0.00  0.00    +0.093 C 
ATOM     10  C   UNL     1      10.045   5.545   5.444  0.00  0.00    +0.042 C 
ATOM     11  C   UNL     1      10.699   6.038   7.763  0.00  0.00    +0.160 C 
ATOM     12  C   UNL     1      10.060   4.267   6.304  0.00  0.00    +0.043 C 
ATOM     13  C   UNL     1       9.834   4.781   7.717  0.00  0.00    +0.145 C 
ENDROOT
BRANCH  10  14
ATOM      8  N   UNL     1      12.656   6.364   2.817  0.00  0.00    -0.251 NA
ATOM     14  C   UNL     1      10.903   5.439   4.202  0.00  0.00    -0.025 A 
ATOM     16  C   UNL     1      10.757   4.375   3.318  0.00  0.00    +0.007 A 
ATOM     17  C   UNL     1      11.859   6.398   3.908  0.00  0.00    +0.115 A 
ATOM     19  C   UNL     1      11.558   4.304   2.184  0.00  0.00    +0.032 A 
ATOM     20  C   UNL     1      12.484   5.315   1.981  0.00  0.00    +0.144 A 
BRANCH  20  23
ATOM      1  F   UNL     1      13.397   4.050   0.167  0.00  0.00    -0.164 F 
ATOM      2  F   UNL     1      12.991   6.148  -0.203  0.00  0.00    -0.164 F 
ATOM      3  F   UNL     1      14.662   5.574   1.062  0.00  0.00    -0.164 F 
ATOM     23  C   UNL     1      13.363   5.271   0.775  0.00  0.00    +0.434 C 
ENDBRANCH  20  23
ENDBRANCH  10  14
BRANCH  11   4
ATOM      4  O   UNL     1      12.082   5.695   7.852  0.00  0.00    -0.388 OA
ATOM     29  H   UNL     1      12.278   5.518   8.788  0.00  0.00    +0.210 HD
ENDBRANCH  11   4
BRANCH  13   5
ATOM      5  O   UNL     1      10.216   3.823   8.683  0.00  0.00    -0.389 OA
ATOM     30  H   UNL     1      10.125   4.238   9.558  0.00  0.00    +0.210 HD
ENDBRANCH  13   5
BRANCH   9   7
ATOM      7  N   UNL     1       9.350   7.664   6.510  0.00  0.00    -0.306 NA
ATOM     28  H   UNL     1       9.206   7.901   7.492  0.00  0.00    +0.123 HD
BRANCH   7  15
ATOM     15  C   UNL     1       9.648   8.886   5.777  0.00  0.00    +0.116 C 
BRANCH  15  18
ATOM     18  C   UNL     1       8.724   9.076   4.603  0.00  0.00    -0.030 A 
ATOM     21  C   UNL     1       9.143   8.717   3.322  0.00  0.00    +0.050 A 
ATOM     22  C   UNL     1       7.451   9.611   4.796  0.00  0.00    +0.005 A 
ATOM     24  C   UNL     1       8.288   8.892   2.233  0.00  0.00    +0.120 A 
ATOM     25  C   UNL     1       6.596   9.788   3.707  0.00  0.00    +0.004 A 
ATOM     26  C   UNL     1       7.015   9.428   2.426  0.00  0.00    +0.045 A 
BRANCH  24   6
ATOM      6  O   UNL     1       8.697   8.542   0.983  0.00  0.00    -0.495 OA
ATOM     27  C   UNL     1       9.827   7.676   0.889  0.00  0.00    +0.277 C 
ENDBRANCH  24   6
ENDBRANCH  15  18
ENDBRANCH   7  15
ENDBRANCH   9   7
TORSDOF 8
ENDMDL
MODEL 9
REMARK VINA RESULT:      -5.9     19.121     21.574
REMARK  Name = 71694056
REMARK  9 active torsions:
REMARK  status: ('A' for Active; 'I' for Inactive)
REMARK    1  A    between atoms: O_4  and  C_11
REMARK    2  A    between atoms: O_5  and  C_13
REMARK    3  A    between atoms: O_6  and  C_24
REMARK    4  A    between atoms: O_6  and  C_27
REMARK    5  A    between atoms: N_7  and  C_9
REMARK    6  A    between atoms: N_7  and  C_15
REMARK    7  A    between atoms: C_10  and  C_14
REMARK    8  A    between atoms: C_15  and  C_18
REMARK    9  A    between atoms: C_20  and  C_23
REMARK                            x       y       z     vdW  Elec       q    Type
REMARK                         _______ _______ _______ _____ _____    ______ ____
ROOT
ATOM      9  C   UNL     1      -5.303 -11.044  16.550  0.00  0.00    +0.093 C 
ATOM     10  C   UNL     1      -5.786 -10.261  17.811  0.00  0.00    +0.042 C 
ATOM     11  C   UNL     1      -4.506 -12.237  17.100  0.00  0.00    +0.160 C 
ATOM     12  C   UNL     1      -5.229 -11.031  19.023  0.00  0.00    +0.043 C 
ATOM     13  C   UNL     1      -4.015 -11.756  18.462  0.00  0.00    +0.145 C 
ENDROOT
BRANCH  10  14
ATOM      8  N   UNL     1      -9.236  -8.856  17.097  0.00  0.00    -0.251 NA
ATOM     14  C   UNL     1      -7.283 -10.052  17.872  0.00  0.00    -0.025 A 
ATOM     16  C   UNL     1      -8.079 -10.819  18.718  0.00  0.00    +0.007 A 
ATOM     17  C   UNL     1      -7.905  -9.093  17.090  0.00  0.00    +0.115 A 
ATOM     19  C   UNL     1      -9.453 -10.604  18.754  0.00  0.00    +0.032 A 
ATOM     20  C   UNL     1      -9.977  -9.620  17.932  0.00  0.00    +0.144 A 
BRANCH  20  23
ATOM      1  F   UNL     1     -11.986  -9.324  19.198  0.00  0.00    -0.164 F 
ATOM      2  F   UNL     1     -11.798  -8.176  17.367  0.00  0.00    -0.164 F 
ATOM      3  F   UNL     1     -12.152 -10.318  17.271  0.00  0.00    -0.164 F 
ATOM     23  C   UNL     1     -11.447  -9.362  17.944  0.00  0.00    +0.434 C 
ENDBRANCH  20  23
ENDBRANCH  10  14
BRANCH  11   4
ATOM      4  O   UNL     1      -5.397 -13.343  17.247  0.00  0.00    -0.388 OA
ATOM     29  H   UNL     1      -5.657 -13.386  18.183  0.00  0.00    +0.210 HD
ENDBRANCH  11   4
BRANCH  13   5
ATOM      5  O   UNL     1      -3.614 -12.819  19.302  0.00  0.00    -0.389 OA
ATOM     30  H   UNL     1      -3.190 -12.429  20.086  0.00  0.00    +0.210 HD
ENDBRANCH  13   5
BRANCH   9   7
ATOM      7  N   UNL     1      -4.428 -10.188  15.747  0.00  0.00    -0.306 NA
ATOM     28  H   UNL     1      -3.942  -9.535  16.363  0.00  0.00    +0.123 HD
BRANCH   7  15
ATOM     15  C   UNL     1      -3.435 -10.981  15.037  0.00  0.00    +0.116 C 
BRANCH  15  18
ATOM     18  C   UNL     1      -3.347 -10.600  13.583  0.00  0.00    -0.030 A 
ATOM     21  C   UNL     1      -4.512 -10.339  12.860  0.00  0.00    +0.050 A 
ATOM     22  C   UNL     1      -2.104 -10.508  12.959  0.00  0.00    +0.005 A 
ATOM     24  C   UNL     1      -4.432  -9.986  11.512  0.00  0.00    +0.120 A 
ATOM     25  C   UNL     1      -2.024 -10.156  11.611  0.00  0.00    +0.004 A 
ATOM     26  C   UNL     1      -3.188  -9.895  10.888  0.00  0.00    +0.045 A 
BRANCH  24   6
ATOM      6  O   UNL     1      -5.568  -9.732  10.807  0.00  0.00    -0.495 OA
ATOM     27  C   UNL     1      -6.622  -9.060  11.495  0.00  0.00    +0.277 C 
ENDBRANCH  24   6
ENDBRANCH  15  18
ENDBRANCH   7  15
ENDBRANCH   9   7
TORSDOF 8
ENDMDL
MODEL 10
REMARK VINA RESULT:      -5.9     19.467     21.844
REMARK  Name = 71694056
REMARK  9 active torsions:
REMARK  status: ('A' for Active; 'I' for Inactive)
REMARK    1  A    between atoms: O_4  and  C_11
REMARK    2  A    between atoms: O_5  and  C_13
REMARK    3  A    between atoms: O_6  and  C_24
REMARK    4  A    between atoms: O_6  and  C_27
REMARK    5  A    between atoms: N_7  and  C_9
REMARK    6  A    between atoms: N_7  and  C_15
REMARK    7  A    between atoms: C_10  and  C_14
REMARK    8  A    between atoms: C_15  and  C_18
REMARK    9  A    between atoms: C_20  and  C_23
REMARK                            x       y       z     vdW  Elec       q    Type
REMARK                         _______ _______ _______ _____ _____    ______ ____
ROOT
ATOM      9  C   UNL     1      -6.394 -11.562  16.693  0.00  0.00    +0.093 C 
ATOM     10  C   UNL     1      -6.592 -10.468  17.789  0.00  0.00    +0.042 C 
ATOM     11  C   UNL     1      -5.233 -12.431  17.201  0.00  0.00    +0.160 C 
ATOM     12  C   UNL     1      -5.527 -10.752  18.864  0.00  0.00    +0.043 C 
ATOM     13  C   UNL     1      -4.438 -11.494  18.105  0.00  0.00    +0.145 C 
ENDROOT
BRANCH  10  14
ATOM      8  N   UNL     1      -9.566 -11.013  20.080  0.00  0.00    -0.251 NA
ATOM     14  C   UNL     1      -7.999 -10.400  18.344  0.00  0.00    -0.025 A 
ATOM     16  C   UNL     1      -8.998  -9.697  17.679  0.00  0.00    +0.007 A 
ATOM     17  C   UNL     1      -8.331 -11.034  19.530  0.00  0.00    +0.115 A 
ATOM     19  C   UNL     1     -10.282  -9.653  18.213  0.00  0.00    +0.032 A 
ATOM     20  C   UNL     1     -10.512 -10.321  19.404  0.00  0.00    +0.144 A 
BRANCH  20  23
ATOM      1  F   UNL     1     -12.294 -11.508  20.471  0.00  0.00    -0.164 F 
ATOM      2  F   UNL     1     -11.986  -9.447  21.073  0.00  0.00    -0.164 F 
ATOM      3  F   UNL     1     -12.833  -9.891  19.121  0.00  0.00    -0.164 F 
ATOM     23  C   UNL     1     -11.877 -10.294  20.008  0.00  0.00    +0.434 C 
ENDBRANCH  20  23
ENDBRANCH  10  14
BRANCH  11   4
ATOM      4  O   UNL     1      -5.780 -13.515  17.953  0.00  0.00    -0.388 OA
ATOM     29  H   UNL     1      -6.601 -13.791  17.512  0.00  0.00    +0.210 HD
ENDBRANCH  11   4
BRANCH  13   5
ATOM      5  O   UNL     1      -3.576 -12.188  18.984  0.00  0.00    -0.389 OA
ATOM     30  H   UNL     1      -3.921 -12.070  19.885  0.00  0.00    +0.210 HD
ENDBRANCH  13   5
BRANCH   9   7
ATOM      7  N   UNL     1      -6.022 -10.925  15.428  0.00  0.00    -0.306 NA
ATOM     28  H   UNL     1      -5.226 -10.305  15.586  0.00  0.00    +0.123 HD
BRANCH   7  15
ATOM     15  C   UNL     1      -5.643 -11.923  14.437  0.00  0.00    +0.116 C 
BRANCH  15  18
ATOM     18  C   UNL     1      -4.371 -11.548  13.722  0.00  0.00    -0.030 A 
ATOM     21  C   UNL     1      -3.391 -10.810  14.385  0.00  0.00    +0.050 A 
ATOM     22  C   UNL     1      -4.174 -11.938  12.398  0.00  0.00    +0.005 A 
ATOM     24  C   UNL     1      -2.212 -10.462  13.724  0.00  0.00    +0.120 A 
ATOM     25  C   UNL     1      -2.996 -11.589  11.736  0.00  0.00    +0.004 A 
ATOM     26  C   UNL     1      -2.015 -10.851  12.399  0.00  0.00    +0.045 A 
BRANCH  24   6
ATOM      6  O   UNL     1      -1.256  -9.741  14.371  0.00  0.00    -0.495 OA
ATOM     27  C   UNL     1      -0.914 -10.156  15.692  0.00  0.00    +0.277 C 
ENDBRANCH  24   6
ENDBRANCH  15  18
ENDBRANCH   7  15
ENDBRANCH   9   7
TORSDOF 8
ENDMDL
