MODEL 1
REMARK VINA RESULT:      -6.2      0.000      0.000
REMARK  Name = 40779852
REMARK  8 active torsions:
REMARK  status: ('A' for Active; 'I' for Inactive)
REMARK    1  A    between atoms: S_1  and  N_7
REMARK    2  A    between atoms: S_1  and  C_21
REMARK    3  A    between atoms: N_6  and  C_15
REMARK    4  A    between atoms: N_6  and  C_17
REMARK    5  A    between atoms: N_6  and  C_18
REMARK    6  A    between atoms: N_7  and  C_16
REMARK    7  A    between atoms: C_9  and  C_15
REMARK    8  A    between atoms: C_10  and  C_16
REMARK                            x       y       z     vdW  Elec       q    Type
REMARK                         _______ _______ _______ _____ _____    ______ ____
ROOT
ATOM      5  N   UNL     1      11.679   7.913  18.931  0.00  0.00    -0.298 NA
ATOM      8  C   UNL     1      14.143   8.747  18.918  0.00  0.00    -0.002 C 
ATOM      9  C   UNL     1      14.078   7.223  19.161  0.00  0.00    +0.023 C 
ATOM     10  C   UNL     1      11.835   9.053  19.875  0.00  0.00    +0.072 C 
ATOM     11  C   UNL     1      13.318   9.471  19.998  0.00  0.00    +0.024 C 
ATOM     12  C   UNL     1      12.596   6.809  19.302  0.00  0.00    +0.090 C 
ATOM     13  C   UNL     1      13.457   9.015  17.565  0.00  0.00    +0.019 C 
ATOM     14  C   UNL     1      12.051   8.387  17.576  0.00  0.00    +0.085 C 
ENDROOT
BRANCH   9  15
ATOM     15  C   UNL     1      14.907   6.768  20.360  0.00  0.00    +0.109 C 
BRANCH  15   6
ATOM      6  N   UNL     1      16.301   6.732  20.002  0.00  0.00    -0.333 N 
ATOM     17  C   UNL     1      16.712   5.924  18.849  0.00  0.00    +0.129 C 
BRANCH   6  18
ATOM     18  C   UNL     1      17.266   7.445  20.732  0.00  0.00    +0.029 A 
ATOM     19  C   UNL     1      17.056   8.789  21.040  0.00  0.00    +0.023 A 
ATOM     20  C   UNL     1      18.434   6.807  21.149  0.00  0.00    +0.023 A 
ATOM     22  C   UNL     1      18.015   9.497  21.764  0.00  0.00    +0.002 A 
ATOM     23  C   UNL     1      19.393   7.515  21.875  0.00  0.00    +0.002 A 
ATOM     25  C   UNL     1      19.184   8.859  22.182  0.00  0.00    +0.000 A 
ENDBRANCH   6  18
ENDBRANCH  15   6
ENDBRANCH   9  15
BRANCH  10  16
ATOM     16  C   UNL     1      11.209   8.770  21.241  0.00  0.00    +0.124 C 
BRANCH  16   7
ATOM      7  N   UNL     1      12.048   9.307  22.278  0.00  0.00    -0.188 NA
ATOM     28  H   UNL     1      12.399   8.608  22.946  0.00  0.00    +0.148 HD
BRANCH   7   1
ATOM      1  S   UNL     1      11.745  10.860  22.955  0.00  0.00    +0.065 S 
ATOM      3  O   UNL     1      11.216  10.687  24.294  0.00  0.00    -0.153 OA
ATOM      4  O   UNL     1      11.046  11.694  21.996  0.00  0.00    -0.153 OA
BRANCH   1  21
ATOM      2  S   UNL     1      13.552  13.150  22.663  0.00  0.00    -0.077 S 
ATOM     21  C   UNL     1      13.386  11.502  23.096  0.00  0.00    +0.142 A 
ATOM     24  C   UNL     1      14.585  10.947  23.489  0.00  0.00    +0.036 A 
ATOM     26  C   UNL     1      15.653  11.889  23.433  0.00  0.00    +0.010 A 
ATOM     27  C   UNL     1      15.231  13.127  23.001  0.00  0.00    +0.047 A 
ENDBRANCH   1  21
ENDBRANCH   7   1
ENDBRANCH  16   7
ENDBRANCH  10  16
TORSDOF 7
ENDMDL
MODEL 2
REMARK VINA RESULT:      -6.0      1.786      2.153
REMARK  Name = 40779852
REMARK  8 active torsions:
REMARK  status: ('A' for Active; 'I' for Inactive)
REMARK    1  A    between atoms: S_1  and  N_7
REMARK    2  A    between atoms: S_1  and  C_21
REMARK    3  A    between atoms: N_6  and  C_15
REMARK    4  A    between atoms: N_6  and  C_17
REMARK    5  A    between atoms: N_6  and  C_18
REMARK    6  A    between atoms: N_7  and  C_16
REMARK    7  A    between atoms: C_9  and  C_15
REMARK    8  A    between atoms: C_10  and  C_16
REMARK                            x       y       z     vdW  Elec       q    Type
REMARK                         _______ _______ _______ _____ _____    ______ ____
ROOT
ATOM      5  N   UNL     1      12.055   8.163  19.184  0.00  0.00    -0.298 NA
ATOM      8  C   UNL     1      14.582   8.753  18.996  0.00  0.00    -0.002 C 
ATOM      9  C   UNL     1      14.386   7.236  19.212  0.00  0.00    +0.023 C 
ATOM     10  C   UNL     1      12.395   9.255  20.136  0.00  0.00    +0.072 C 
ATOM     11  C   UNL     1      13.917   9.523  20.151  0.00  0.00    +0.024 C 
ATOM     12  C   UNL     1      12.884   6.964  19.461  0.00  0.00    +0.090 C 
ATOM     13  C   UNL     1      13.825   9.124  17.706  0.00  0.00    +0.019 C 
ATOM     14  C   UNL     1      12.369   8.635  17.814  0.00  0.00    +0.085 C 
ENDROOT
BRANCH   9  15
ATOM     15  C   UNL     1      15.253   6.670  20.334  0.00  0.00    +0.109 C 
BRANCH  15   6
ATOM      6  N   UNL     1      16.607   6.516  19.869  0.00  0.00    -0.333 N 
ATOM     17  C   UNL     1      16.844   5.794  18.615  0.00  0.00    +0.129 C 
BRANCH   6  18
ATOM     18  C   UNL     1      17.695   7.033  20.591  0.00  0.00    +0.029 A 
ATOM     19  C   UNL     1      17.600   8.287  21.194  0.00  0.00    +0.023 A 
ATOM     20  C   UNL     1      18.871   6.291  20.706  0.00  0.00    +0.023 A 
ATOM     22  C   UNL     1      18.681   8.801  21.910  0.00  0.00    +0.002 A 
ATOM     23  C   UNL     1      19.952   6.805  21.422  0.00  0.00    +0.002 A 
ATOM     25  C   UNL     1      19.857   8.059  22.025  0.00  0.00    +0.000 A 
ENDBRANCH   6  18
ENDBRANCH  15   6
ENDBRANCH   9  15
BRANCH  10  16
ATOM     16  C   UNL     1      11.849   8.997  21.541  0.00  0.00    +0.124 C 
BRANCH  16   7
ATOM      7  N   UNL     1      10.954  10.058  21.913  0.00  0.00    -0.188 NA
ATOM     28  H   UNL     1      10.338  10.381  21.156  0.00  0.00    +0.148 HD
BRANCH   7   1
ATOM      1  S   UNL     1      11.438  11.285  23.019  0.00  0.00    +0.065 S 
ATOM      3  O   UNL     1      12.868  11.177  23.236  0.00  0.00    -0.153 OA
ATOM      4  O   UNL     1      10.530  11.325  24.149  0.00  0.00    -0.153 OA
BRANCH   1  21
ATOM      2  S   UNL     1      12.218  12.976  20.755  0.00  0.00    -0.077 S 
ATOM     21  C   UNL     1      11.142  12.745  22.067  0.00  0.00    +0.142 A 
ATOM     24  C   UNL     1      10.213  13.757  22.157  0.00  0.00    +0.036 A 
ATOM     26  C   UNL     1      10.386  14.735  21.135  0.00  0.00    +0.010 A 
ATOM     27  C   UNL     1      11.440  14.433  20.302  0.00  0.00    +0.047 A 
ENDBRANCH   1  21
ENDBRANCH   7   1
ENDBRANCH  16   7
ENDBRANCH  10  16
TORSDOF 7
ENDMDL
MODEL 3
REMARK VINA RESULT:      -5.9      3.050      6.220
REMARK  Name = 40779852
REMARK  8 active torsions:
REMARK  status: ('A' for Active; 'I' for Inactive)
REMARK    1  A    between atoms: S_1  and  N_7
REMARK    2  A    between atoms: S_1  and  C_21
REMARK    3  A    between atoms: N_6  and  C_15
REMARK    4  A    between atoms: N_6  and  C_17
REMARK    5  A    between atoms: N_6  and  C_18
REMARK    6  A    between atoms: N_7  and  C_16
REMARK    7  A    between atoms: C_9  and  C_15
REMARK    8  A    between atoms: C_10  and  C_16
REMARK                            x       y       z     vdW  Elec       q    Type
REMARK                         _______ _______ _______ _____ _____    ______ ____
ROOT
ATOM      5  N   UNL     1      13.246   9.093  17.447  0.00  0.00    -0.298 NA
ATOM      8  C   UNL     1      11.462   8.167  19.099  0.00  0.00    -0.002 C 
ATOM      9  C   UNL     1      12.086   9.474  19.638  0.00  0.00    +0.023 C 
ATOM     10  C   UNL     1      13.532   7.667  17.758  0.00  0.00    +0.072 C 
ATOM     11  C   UNL     1      12.577   7.135  18.850  0.00  0.00    +0.024 C 
ATOM     12  C   UNL     1      13.234   9.898  18.693  0.00  0.00    +0.090 C 
ATOM     13  C   UNL     1      10.836   8.500  17.731  0.00  0.00    +0.019 C 
ATOM     14  C   UNL     1      11.897   9.167  16.836  0.00  0.00    +0.085 C 
ENDROOT
BRANCH   9  15
ATOM     15  C   UNL     1      12.560   9.363  21.085  0.00  0.00    +0.109 C 
BRANCH  15   6
ATOM      6  N   UNL     1      11.458   9.611  21.977  0.00  0.00    -0.333 N 
ATOM     17  C   UNL     1      10.542   8.510  22.288  0.00  0.00    +0.129 C 
BRANCH   6  18
ATOM     18  C   UNL     1      11.243  10.878  22.545  0.00  0.00    +0.029 A 
ATOM     19  C   UNL     1      11.297  12.020  21.747  0.00  0.00    +0.023 A 
ATOM     20  C   UNL     1      10.976  10.992  23.910  0.00  0.00    +0.023 A 
ATOM     22  C   UNL     1      11.083  13.277  22.312  0.00  0.00    +0.002 A 
ATOM     23  C   UNL     1      10.762  12.249  24.475  0.00  0.00    +0.002 A 
ATOM     25  C   UNL     1      10.816  13.392  23.677  0.00  0.00    +0.000 A 
ENDBRANCH   6  18
ENDBRANCH  15   6
ENDBRANCH   9  15
BRANCH  10  16
ATOM     16  C   UNL     1      14.999   7.431  18.122  0.00  0.00    +0.124 C 
BRANCH  16   7
ATOM      7  N   UNL     1      15.087   6.907  19.458  0.00  0.00    -0.188 NA
ATOM     28  H   UNL     1      14.228   6.452  19.794  0.00  0.00    +0.148 HD
BRANCH   7   1
ATOM      1  S   UNL     1      15.993   7.718  20.675  0.00  0.00    +0.065 S 
ATOM      3  O   UNL     1      15.413   7.412  21.968  0.00  0.00    -0.153 OA
ATOM      4  O   UNL     1      16.225   9.097  20.287  0.00  0.00    -0.153 OA
BRANCH   1  21
ATOM      2  S   UNL     1      18.769   7.502  21.591  0.00  0.00    -0.077 S 
ATOM     21  C   UNL     1      17.547   6.883  20.564  0.00  0.00    +0.142 A 
ATOM     24  C   UNL     1      17.994   5.819  19.812  0.00  0.00    +0.036 A 
ATOM     26  C   UNL     1      19.358   5.508  20.083  0.00  0.00    +0.010 A 
ATOM     27  C   UNL     1      19.902   6.345  21.032  0.00  0.00    +0.047 A 
ENDBRANCH   1  21
ENDBRANCH   7   1
ENDBRANCH  16   7
ENDBRANCH  10  16
TORSDOF 7
ENDMDL
MODEL 4
REMARK VINA RESULT:      -5.7     27.617     29.272
REMARK  Name = 40779852
REMARK  8 active torsions:
REMARK  status: ('A' for Active; 'I' for Inactive)
REMARK    1  A    between atoms: S_1  and  N_7
REMARK    2  A    between atoms: S_1  and  C_21
REMARK    3  A    between atoms: N_6  and  C_15
REMARK    4  A    between atoms: N_6  and  C_17
REMARK    5  A    between atoms: N_6  and  C_18
REMARK    6  A    between atoms: N_7  and  C_16
REMARK    7  A    between atoms: C_9  and  C_15
REMARK    8  A    between atoms: C_10  and  C_16
REMARK                            x       y       z     vdW  Elec       q    Type
REMARK                         _______ _______ _______ _____ _____    ______ ____
ROOT
ATOM      5  N   UNL     1      -5.208 -10.385  18.033  0.00  0.00    -0.298 NA
ATOM      8  C   UNL     1      -5.364 -12.660  16.779  0.00  0.00    -0.002 C 
ATOM      9  C   UNL     1      -4.355 -11.717  16.086  0.00  0.00    +0.023 C 
ATOM     10  C   UNL     1      -6.629 -10.701  17.725  0.00  0.00    +0.072 C 
ATOM     11  C   UNL     1      -6.739 -11.970  16.851  0.00  0.00    +0.024 C 
ATOM     12  C   UNL     1      -4.410 -10.338  16.784  0.00  0.00    +0.090 C 
ATOM     13  C   UNL     1      -4.875 -12.854  18.227  0.00  0.00    +0.019 C 
ATOM     14  C   UNL     1      -4.671 -11.476  18.883  0.00  0.00    +0.085 C 
ENDROOT
BRANCH   9  15
ATOM     15  C   UNL     1      -4.579 -11.595  14.581  0.00  0.00    +0.109 C 
BRANCH  15   6
ATOM      6  N   UNL     1      -3.312 -11.463  13.911  0.00  0.00    -0.333 N 
ATOM     17  C   UNL     1      -2.137 -12.123  14.489  0.00  0.00    +0.129 C 
BRANCH   6  18
ATOM     18  C   UNL     1      -3.180 -10.716  12.728  0.00  0.00    +0.029 A 
ATOM     19  C   UNL     1      -4.314 -10.340  12.010  0.00  0.00    +0.023 A 
ATOM     20  C   UNL     1      -1.912 -10.351  12.274  0.00  0.00    +0.023 A 
ATOM     22  C   UNL     1      -4.182  -9.599  10.836  0.00  0.00    +0.002 A 
ATOM     23  C   UNL     1      -1.780  -9.609  11.099  0.00  0.00    +0.002 A 
ATOM     25  C   UNL     1      -2.915  -9.233  10.381  0.00  0.00    +0.000 A 
ENDBRANCH   6  18
ENDBRANCH  15   6
ENDBRANCH   9  15
BRANCH  10  16
ATOM     16  C   UNL     1      -7.369  -9.516  17.102  0.00  0.00    +0.124 C 
BRANCH  16   7
ATOM      7  N   UNL     1      -8.458  -9.124  17.954  0.00  0.00    -0.188 NA
ATOM     28  H   UNL     1      -8.221  -9.076  18.953  0.00  0.00    +0.148 HD
BRANCH   7   1
ATOM      1  S   UNL     1     -10.072  -9.621  17.622  0.00  0.00    +0.065 S 
ATOM      3  O   UNL     1     -10.817  -9.640  18.866  0.00  0.00    -0.153 OA
ATOM      4  O   UNL     1     -10.067 -10.785  16.756  0.00  0.00    -0.153 OA
BRANCH   1  21
ATOM      2  S   UNL     1     -11.251  -8.687  15.106  0.00  0.00    -0.077 S 
ATOM     21  C   UNL     1     -10.661  -8.262  16.656  0.00  0.00    +0.142 A 
ATOM     24  C   UNL     1     -10.747  -6.908  16.889  0.00  0.00    +0.036 A 
ATOM     26  C   UNL     1     -11.305  -6.209  15.779  0.00  0.00    +0.010 A 
ATOM     27  C   UNL     1     -11.625  -7.056  14.741  0.00  0.00    +0.047 A 
ENDBRANCH   1  21
ENDBRANCH   7   1
ENDBRANCH  16   7
ENDBRANCH  10  16
TORSDOF 7
ENDMDL
MODEL 5
REMARK VINA RESULT:      -5.7     27.595     29.914
REMARK  Name = 40779852
REMARK  8 active torsions:
REMARK  status: ('A' for Active; 'I' for Inactive)
REMARK    1  A    between atoms: S_1  and  N_7
REMARK    2  A    between atoms: S_1  and  C_21
REMARK    3  A    between atoms: N_6  and  C_15
REMARK    4  A    between atoms: N_6  and  C_17
REMARK    5  A    between atoms: N_6  and  C_18
REMARK    6  A    between atoms: N_7  and  C_16
REMARK    7  A    between atoms: C_9  and  C_15
REMARK    8  A    between atoms: C_10  and  C_16
REMARK                            x       y       z     vdW  Elec       q    Type
REMARK                         _______ _______ _______ _____ _____    ______ ____
ROOT
ATOM      5  N   UNL     1      -5.318 -12.478  16.512  0.00  0.00    -0.298 NA
ATOM      8  C   UNL     1      -5.279 -10.807  18.505  0.00  0.00    -0.002 C 
ATOM      9  C   UNL     1      -6.726 -11.059  18.026  0.00  0.00    +0.023 C 
ATOM     10  C   UNL     1      -4.368 -11.369  16.227  0.00  0.00    +0.072 C 
ATOM     11  C   UNL     1      -4.436 -10.286  17.327  0.00  0.00    +0.024 C 
ATOM     12  C   UNL     1      -6.678 -11.940  16.756  0.00  0.00    +0.090 C 
ATOM     13  C   UNL     1      -4.697 -12.174  18.912  0.00  0.00    +0.019 C 
ATOM     14  C   UNL     1      -4.864 -13.165  17.745  0.00  0.00    +0.085 C 
ENDROOT
BRANCH   9  15
ATOM     15  C   UNL     1      -7.516  -9.774  17.790  0.00  0.00    +0.109 C 
BRANCH  15   6
ATOM      6  N   UNL     1      -8.872  -9.949  18.239  0.00  0.00    -0.333 N 
ATOM     17  C   UNL     1      -9.145 -10.932  19.292  0.00  0.00    +0.129 C 
BRANCH   6  18
ATOM     18  C   UNL     1      -9.930  -9.206  17.689  0.00  0.00    +0.029 A 
ATOM     19  C   UNL     1      -9.679  -7.972  17.089  0.00  0.00    +0.023 A 
ATOM     20  C   UNL     1     -11.232  -9.704  17.743  0.00  0.00    +0.023 A 
ATOM     22  C   UNL     1     -10.729  -7.235  16.544  0.00  0.00    +0.002 A 
ATOM     23  C   UNL     1     -12.283  -8.967  17.197  0.00  0.00    +0.002 A 
ATOM     25  C   UNL     1     -12.032  -7.733  16.597  0.00  0.00    +0.000 A 
ENDBRANCH   6  18
ENDBRANCH  15   6
ENDBRANCH   9  15
BRANCH  10  16
ATOM     16  C   UNL     1      -4.565 -10.775  14.832  0.00  0.00    +0.124 C 
BRANCH  16   7
ATOM      7  N   UNL     1      -3.927 -11.615  13.855  0.00  0.00    -0.188 NA
ATOM     28  H   UNL     1      -3.966 -12.620  14.068  0.00  0.00    +0.148 HD
BRANCH   7   1
ATOM      1  S   UNL     1      -2.498 -11.108  13.041  0.00  0.00    +0.065 S 
ATOM      3  O   UNL     1      -1.734 -12.283  12.668  0.00  0.00    -0.153 OA
ATOM      4  O   UNL     1      -1.864 -10.028  13.772  0.00  0.00    -0.153 OA
BRANCH   1  21
ATOM      2  S   UNL     1      -4.737 -10.966  11.154  0.00  0.00    -0.077 S 
ATOM     21  C   UNL     1      -3.172 -10.406  11.564  0.00  0.00    +0.142 A 
ATOM     24  C   UNL     1      -2.696  -9.488  10.655  0.00  0.00    +0.036 A 
ATOM     26  C   UNL     1      -3.629  -9.239   9.608  0.00  0.00    +0.010 A 
ATOM     27  C   UNL     1      -4.783  -9.977   9.756  0.00  0.00    +0.047 A 
ENDBRANCH   1  21
ENDBRANCH   7   1
ENDBRANCH  16   7
ENDBRANCH  10  16
TORSDOF 7
ENDMDL
MODEL 6
REMARK VINA RESULT:      -5.5     14.421     17.323
REMARK  Name = 40779852
REMARK  8 active torsions:
REMARK  status: ('A' for Active; 'I' for Inactive)
REMARK    1  A    between atoms: S_1  and  N_7
REMARK    2  A    between atoms: S_1  and  C_21
REMARK    3  A    between atoms: N_6  and  C_15
REMARK    4  A    between atoms: N_6  and  C_17
REMARK    5  A    between atoms: N_6  and  C_18
REMARK    6  A    between atoms: N_7  and  C_16
REMARK    7  A    between atoms: C_9  and  C_15
REMARK    8  A    between atoms: C_10  and  C_16
REMARK                            x       y       z     vdW  Elec       q    Type
REMARK                         _______ _______ _______ _____ _____    ______ ____
ROOT
ATOM      5  N   UNL     1      14.553   9.292   6.135  0.00  0.00    -0.298 NA
ATOM      8  C   UNL     1      15.546   7.763   4.279  0.00  0.00    -0.002 C 
ATOM      9  C   UNL     1      14.588   8.813   3.673  0.00  0.00    +0.023 C 
ATOM     10  C   UNL     1      14.347   7.862   6.489  0.00  0.00    +0.072 C 
ATOM     11  C   UNL     1      14.792   6.935   5.336  0.00  0.00    +0.024 C 
ATOM     12  C   UNL     1      13.921   9.595   4.828  0.00  0.00    +0.090 C 
ATOM     13  C   UNL     1      16.655   8.539   5.014  0.00  0.00    +0.019 C 
ATOM     14  C   UNL     1      16.012   9.525   6.007  0.00  0.00    +0.085 C 
ENDROOT
BRANCH   9  15
ATOM     15  C   UNL     1      13.551   8.210   2.729  0.00  0.00    +0.109 C 
BRANCH  15   6
ATOM      6  N   UNL     1      14.208   7.382   1.751  0.00  0.00    -0.333 N 
ATOM     17  C   UNL     1      15.143   8.009   0.811  0.00  0.00    +0.129 C 
BRANCH   6  18
ATOM     18  C   UNL     1      13.968   6.000   1.678  0.00  0.00    +0.029 A 
ATOM     19  C   UNL     1      14.993   5.133   1.301  0.00  0.00    +0.023 A 
ATOM     20  C   UNL     1      12.704   5.496   1.982  0.00  0.00    +0.023 A 
ATOM     22  C   UNL     1      14.754   3.761   1.227  0.00  0.00    +0.002 A 
ATOM     23  C   UNL     1      12.465   4.124   1.909  0.00  0.00    +0.002 A 
ATOM     25  C   UNL     1      13.489   3.256   1.532  0.00  0.00    +0.000 A 
ENDBRANCH   6  18
ENDBRANCH  15   6
ENDBRANCH   9  15
BRANCH  10  16
ATOM     16  C   UNL     1      12.911   7.571   6.929  0.00  0.00    +0.124 C 
BRANCH  16   7
ATOM      7  N   UNL     1      12.431   6.391   6.262  0.00  0.00    -0.188 NA
ATOM     28  H   UNL     1      13.091   5.986   5.586  0.00  0.00    +0.148 HD
BRANCH   7   1
ATOM      1  S   UNL     1      10.772   6.221   5.837  0.00  0.00    +0.065 S 
ATOM      3  O   UNL     1      10.658   5.206   4.807  0.00  0.00    -0.153 OA
ATOM      4  O   UNL     1      10.170   7.526   5.644  0.00  0.00    -0.153 OA
BRANCH   1  21
ATOM      2  S   UNL     1       9.281   6.695   8.316  0.00  0.00    -0.077 S 
ATOM     21  C   UNL     1      10.098   5.557   7.331  0.00  0.00    +0.142 A 
ATOM     24  C   UNL     1      10.091   4.296   7.883  0.00  0.00    +0.036 A 
ATOM     26  C   UNL     1       9.405   4.262   9.132  0.00  0.00    +0.010 A 
ATOM     27  C   UNL     1       8.913   5.500   9.486  0.00  0.00    +0.047 A 
ENDBRANCH   1  21
ENDBRANCH   7   1
ENDBRANCH  16   7
ENDBRANCH  10  16
TORSDOF 7
ENDMDL
MODEL 7
REMARK VINA RESULT:      -5.4     16.273     19.376
REMARK  Name = 40779852
REMARK  8 active torsions:
REMARK  status: ('A' for Active; 'I' for Inactive)
REMARK    1  A    between atoms: S_1  and  N_7
REMARK    2  A    between atoms: S_1  and  C_21
REMARK    3  A    between atoms: N_6  and  C_15
REMARK    4  A    between atoms: N_6  and  C_17
REMARK    5  A    between atoms: N_6  and  C_18
REMARK    6  A    between atoms: N_7  and  C_16
REMARK    7  A    between atoms: C_9  and  C_15
REMARK    8  A    between atoms: C_10  and  C_16
REMARK                            x       y       z     vdW  Elec       q    Type
REMARK                         _______ _______ _______ _____ _____    ______ ____
ROOT
ATOM      5  N   UNL     1      11.178   7.850   1.634  0.00  0.00    -0.298 NA
ATOM      8  C   UNL     1      10.391   6.774   3.868  0.00  0.00    -0.002 C 
ATOM      9  C   UNL     1      11.310   7.988   4.135  0.00  0.00    +0.023 C 
ATOM     10  C   UNL     1      11.459   6.389   1.622  0.00  0.00    +0.072 C 
ATOM     11  C   UNL     1      11.139   5.752   2.993  0.00  0.00    +0.024 C 
ATOM     12  C   UNL     1      11.860   8.495   2.782  0.00  0.00    +0.090 C 
ATOM     13  C   UNL     1       9.195   7.289   3.047  0.00  0.00    +0.019 C 
ATOM     14  C   UNL     1       9.716   8.033   1.803  0.00  0.00    +0.085 C 
ENDROOT
BRANCH   9  15
ATOM     15  C   UNL     1      12.435   7.688   5.122  0.00  0.00    +0.109 C 
BRANCH  15   6
ATOM      6  N   UNL     1      12.044   8.105   6.444  0.00  0.00    -0.333 N 
ATOM     17  C   UNL     1      12.732   9.246   7.055  0.00  0.00    +0.129 C 
BRANCH   6  18
ATOM     18  C   UNL     1      11.030   7.441   7.154  0.00  0.00    +0.029 A 
ATOM     19  C   UNL     1      11.212   6.119   7.560  0.00  0.00    +0.023 A 
ATOM     20  C   UNL     1       9.840   8.105   7.453  0.00  0.00    +0.023 A 
ATOM     22  C   UNL     1      10.206   5.461   8.265  0.00  0.00    +0.002 A 
ATOM     23  C   UNL     1       8.833   7.446   8.158  0.00  0.00    +0.002 A 
ATOM     25  C   UNL     1       9.015   6.124   8.564  0.00  0.00    +0.000 A 
ENDBRANCH   6  18
ENDBRANCH  15   6
ENDBRANCH   9  15
BRANCH  10  16
ATOM     16  C   UNL     1      12.884   6.073   1.167  0.00  0.00    +0.124 C 
BRANCH  16   7
ATOM      7  N   UNL     1      13.468   5.099   2.048  0.00  0.00    -0.188 NA
ATOM     28  H   UNL     1      14.051   5.497   2.796  0.00  0.00    +0.148 HD
BRANCH   7   1
ATOM      1  S   UNL     1      13.998   3.570   1.462  0.00  0.00    +0.065 S 
ATOM      3  O   UNL     1      12.893   2.634   1.542  0.00  0.00    -0.153 OA
ATOM      4  O   UNL     1      15.284   3.232   2.041  0.00  0.00    -0.153 OA
BRANCH   1  21
ATOM      2  S   UNL     1      15.841   4.540  -0.600  0.00  0.00    -0.077 S 
ATOM     21  C   UNL     1      14.280   3.933  -0.245  0.00  0.00    +0.142 A 
ATOM     24  C   UNL     1      13.496   3.831  -1.373  0.00  0.00    +0.036 A 
ATOM     26  C   UNL     1      14.187   4.257  -2.545  0.00  0.00    +0.010 A 
ATOM     27  C   UNL     1      15.473   4.667  -2.268  0.00  0.00    +0.047 A 
ENDBRANCH   1  21
ENDBRANCH   7   1
ENDBRANCH  16   7
ENDBRANCH  10  16
TORSDOF 7
ENDMDL
MODEL 8
REMARK VINA RESULT:      -5.3      2.073      3.034
REMARK  Name = 40779852
REMARK  8 active torsions:
REMARK  status: ('A' for Active; 'I' for Inactive)
REMARK    1  A    between atoms: S_1  and  N_7
REMARK    2  A    between atoms: S_1  and  C_21
REMARK    3  A    between atoms: N_6  and  C_15
REMARK    4  A    between atoms: N_6  and  C_17
REMARK    5  A    between atoms: N_6  and  C_18
REMARK    6  A    between atoms: N_7  and  C_16
REMARK    7  A    between atoms: C_9  and  C_15
REMARK    8  A    between atoms: C_10  and  C_16
REMARK                            x       y       z     vdW  Elec       q    Type
REMARK                         _______ _______ _______ _____ _____    ______ ____
ROOT
ATOM      5  N   UNL     1      12.915   7.767  21.401  0.00  0.00    -0.298 NA
ATOM      8  C   UNL     1      14.045   7.866  19.060  0.00  0.00    -0.002 C 
ATOM      9  C   UNL     1      14.974   7.186  20.091  0.00  0.00    +0.023 C 
ATOM     10  C   UNL     1      12.881   9.159  20.878  0.00  0.00    +0.072 C 
ATOM     11  C   UNL     1      13.676   9.276  19.558  0.00  0.00    +0.024 C 
ATOM     12  C   UNL     1      14.315   7.284  21.487  0.00  0.00    +0.090 C 
ATOM     13  C   UNL     1      12.744   7.042  19.016  0.00  0.00    +0.019 C 
ATOM     14  C   UNL     1      12.186   6.900  20.444  0.00  0.00    +0.085 C 
ENDROOT
BRANCH   9  15
ATOM     15  C   UNL     1      16.390   7.757  20.097  0.00  0.00    +0.109 C 
BRANCH  15   6
ATOM      6  N   UNL     1      17.339   6.700  19.861  0.00  0.00    -0.333 N 
ATOM     17  C   UNL     1      17.068   5.734  18.792  0.00  0.00    +0.129 C 
BRANCH   6  18
ATOM     18  C   UNL     1      18.506   6.575  20.634  0.00  0.00    +0.029 A 
ATOM     19  C   UNL     1      19.476   5.635  20.287  0.00  0.00    +0.023 A 
ATOM     20  C   UNL     1      18.694   7.393  21.748  0.00  0.00    +0.023 A 
ATOM     22  C   UNL     1      20.633   5.511  21.054  0.00  0.00    +0.002 A 
ATOM     23  C   UNL     1      19.852   7.269  22.516  0.00  0.00    +0.002 A 
ATOM     25  C   UNL     1      20.822   6.329  22.170  0.00  0.00    +0.000 A 
ENDBRANCH   6  18
ENDBRANCH  15   6
ENDBRANCH   9  15
BRANCH  10  16
ATOM     16  C   UNL     1      13.346  10.184  21.914  0.00  0.00    +0.124 C 
BRANCH  16   7
ATOM      7  N   UNL     1      13.095  11.512  21.426  0.00  0.00    -0.188 NA
ATOM     28  H   UNL     1      13.204  11.620  20.409  0.00  0.00    +0.148 HD
BRANCH   7   1
ATOM      1  S   UNL     1      13.535  12.898  22.346  0.00  0.00    +0.065 S 
ATOM      3  O   UNL     1      13.544  14.054  21.470  0.00  0.00    -0.153 OA
ATOM      4  O   UNL     1      14.689  12.600  23.174  0.00  0.00    -0.153 OA
BRANCH   1  21
ATOM      2  S   UNL     1      12.360  12.330  24.971  0.00  0.00    -0.077 S 
ATOM     21  C   UNL     1      12.148  13.048  23.431  0.00  0.00    +0.142 A 
ATOM     24  C   UNL     1      10.907  13.631  23.299  0.00  0.00    +0.036 A 
ATOM     26  C   UNL     1      10.120  13.486  24.478  0.00  0.00    +0.010 A 
ATOM     27  C   UNL     1      10.789  12.799  25.467  0.00  0.00    +0.047 A 
ENDBRANCH   1  21
ENDBRANCH   7   1
ENDBRANCH  16   7
ENDBRANCH  10  16
TORSDOF 7
ENDMDL
MODEL 9
REMARK VINA RESULT:      -5.3     15.351     18.403
REMARK  Name = 40779852
REMARK  8 active torsions:
REMARK  status: ('A' for Active; 'I' for Inactive)
REMARK    1  A    between atoms: S_1  and  N_7
REMARK    2  A    between atoms: S_1  and  C_21
REMARK    3  A    between atoms: N_6  and  C_15
REMARK    4  A    between atoms: N_6  and  C_17
REMARK    5  A    between atoms: N_6  and  C_18
REMARK    6  A    between atoms: N_7  and  C_16
REMARK    7  A    between atoms: C_9  and  C_15
REMARK    8  A    between atoms: C_10  and  C_16
REMARK                            x       y       z     vdW  Elec       q    Type
REMARK                         _______ _______ _______ _____ _____    ______ ____
ROOT
ATOM      5  N   UNL     1      10.093   6.597   7.286  0.00  0.00    -0.298 NA
ATOM      8  C   UNL     1       9.657   5.064   5.230  0.00  0.00    -0.002 C 
ATOM      9  C   UNL     1      10.942   5.899   5.032  0.00  0.00    +0.023 C 
ATOM     10  C   UNL     1       8.705   6.797   6.788  0.00  0.00    +0.072 C 
ATOM     11  C   UNL     1       8.468   6.010   5.479  0.00  0.00    +0.024 C 
ATOM     12  C   UNL     1      11.072   6.890   6.212  0.00  0.00    +0.090 C 
ATOM     13  C   UNL     1       9.855   4.234   6.513  0.00  0.00    +0.019 C 
ATOM     14  C   UNL     1      10.241   5.173   7.670  0.00  0.00    +0.085 C 
ENDROOT
BRANCH   9  15
ATOM     15  C   UNL     1      10.993   6.616   3.686  0.00  0.00    +0.109 C 
BRANCH  15   6
ATOM      6  N   UNL     1      12.221   6.289   3.008  0.00  0.00    -0.333 N 
ATOM     17  C   UNL     1      13.459   6.946   3.436  0.00  0.00    +0.129 C 
BRANCH   6  18
ATOM     18  C   UNL     1      12.252   5.366   1.950  0.00  0.00    +0.029 A 
ATOM     19  C   UNL     1      13.380   4.570   1.751  0.00  0.00    +0.023 A 
ATOM     20  C   UNL     1      11.154   5.245   1.098  0.00  0.00    +0.023 A 
ATOM     22  C   UNL     1      13.411   3.654   0.700  0.00  0.00    +0.002 A 
ATOM     23  C   UNL     1      11.185   4.329   0.047  0.00  0.00    +0.002 A 
ATOM     25  C   UNL     1      12.312   3.533  -0.152  0.00  0.00    +0.000 A 
ENDBRANCH   6  18
ENDBRANCH  15   6
ENDBRANCH   9  15
BRANCH  10  16
ATOM     16  C   UNL     1       8.346   8.275   6.635  0.00  0.00    +0.124 C 
BRANCH  16   7
ATOM      7  N   UNL     1       7.506   8.452   5.482  0.00  0.00    -0.188 NA
ATOM     28  H   UNL     1       7.399   7.611   4.900  0.00  0.00    +0.148 HD
BRANCH   7   1
ATOM      1  S   UNL     1       7.489   9.936   4.611  0.00  0.00    +0.065 S 
ATOM      3  O   UNL     1       8.264  10.916   5.347  0.00  0.00    -0.153 OA
ATOM      4  O   UNL     1       6.139  10.247   4.182  0.00  0.00    -0.153 OA
BRANCH   1  21
ATOM      2  S   UNL     1       9.880  10.339   2.963  0.00  0.00    -0.077 S 
ATOM     21  C   UNL     1       8.402   9.496   3.162  0.00  0.00    +0.142 A 
ATOM     24  C   UNL     1       8.174   8.604   2.139  0.00  0.00    +0.036 A 
ATOM     26  C   UNL     1       9.227   8.611   1.178  0.00  0.00    +0.010 A 
ATOM     27  C   UNL     1      10.220   9.508   1.504  0.00  0.00    +0.047 A 
ENDBRANCH   1  21
ENDBRANCH   7   1
ENDBRANCH  16   7
ENDBRANCH  10  16
TORSDOF 7
ENDMDL
MODEL 10
REMARK VINA RESULT:      -5.3     23.802     25.232
REMARK  Name = 40779852
REMARK  8 active torsions:
REMARK  status: ('A' for Active; 'I' for Inactive)
REMARK    1  A    between atoms: S_1  and  N_7
REMARK    2  A    between atoms: S_1  and  C_21
REMARK    3  A    between atoms: N_6  and  C_15
REMARK    4  A    between atoms: N_6  and  C_17
REMARK    5  A    between atoms: N_6  and  C_18
REMARK    6  A    between atoms: N_7  and  C_16
REMARK    7  A    between atoms: C_9  and  C_15
REMARK    8  A    between atoms: C_10  and  C_16
REMARK                            x       y       z     vdW  Elec       q    Type
REMARK                         _______ _______ _______ _____ _____    ______ ____
ROOT
ATOM      5  N   UNL     1       3.394 -11.035  37.726  0.00  0.00    -0.298 NA
ATOM      8  C   UNL     1       3.703 -10.991  35.143  0.00  0.00    -0.002 C 
ATOM      9  C   UNL     1       4.978 -11.513  35.841  0.00  0.00    +0.023 C 
ATOM     10  C   UNL     1       3.046  -9.690  37.194  0.00  0.00    +0.072 C 
ATOM     11  C   UNL     1       3.362  -9.591  35.685  0.00  0.00    +0.024 C 
ATOM     12  C   UNL     1       4.791 -11.382  37.370  0.00  0.00    +0.090 C 
ATOM     13  C   UNL     1       2.552 -11.930  35.550  0.00  0.00    +0.019 C 
ATOM     14  C   UNL     1       2.495 -12.026  37.086  0.00  0.00    +0.085 C 
ENDROOT
BRANCH   9  15
ATOM     15  C   UNL     1       6.253 -10.818  35.368  0.00  0.00    +0.109 C 
BRANCH  15   6
ATOM      6  N   UNL     1       6.515 -11.167  33.996  0.00  0.00    -0.333 N 
ATOM     17  C   UNL     1       6.798 -12.567  33.667  0.00  0.00    +0.129 C 
BRANCH   6  18
ATOM     18  C   UNL     1       6.512 -10.199  32.979  0.00  0.00    +0.029 A 
ATOM     19  C   UNL     1       6.900 -10.545  31.684  0.00  0.00    +0.023 A 
ATOM     20  C   UNL     1       6.121  -8.891  33.263  0.00  0.00    +0.023 A 
ATOM     22  C   UNL     1       6.898  -9.584  30.675  0.00  0.00    +0.002 A 
ATOM     23  C   UNL     1       6.118  -7.929  32.253  0.00  0.00    +0.002 A 
ATOM     25  C   UNL     1       6.506  -8.275  30.959  0.00  0.00    +0.000 A 
ENDBRANCH   6  18
ENDBRANCH  15   6
ENDBRANCH   9  15
BRANCH  10  16
ATOM     16  C   UNL     1       3.704  -8.560  37.988  0.00  0.00    +0.124 C 
BRANCH  16   7
ATOM      7  N   UNL     1       4.536  -7.777  37.116  0.00  0.00    -0.188 NA
ATOM     28  H   UNL     1       4.418  -7.985  36.116  0.00  0.00    +0.148 HD
BRANCH   7   1
ATOM      1  S   UNL     1       6.134  -7.330  37.573  0.00  0.00    +0.065 S 
ATOM      3  O   UNL     1       7.011  -7.509  36.431  0.00  0.00    -0.153 OA
ATOM      4  O   UNL     1       6.471  -7.924  38.852  0.00  0.00    -0.153 OA
BRANCH   1  21
ATOM      2  S   UNL     1       7.188  -4.623  37.182  0.00  0.00    -0.077 S 
ATOM     21  C   UNL     1       5.943  -5.594  37.844  0.00  0.00    +0.142 A 
ATOM     24  C   UNL     1       4.987  -4.840  38.489  0.00  0.00    +0.036 A 
ATOM     26  C   UNL     1       5.281  -3.447  38.438  0.00  0.00    +0.010 A 
ATOM     27  C   UNL     1       6.449  -3.188  37.755  0.00  0.00    +0.047 A 
ENDBRANCH   1  21
ENDBRANCH   7   1
ENDBRANCH  16   7
ENDBRANCH  10  16
TORSDOF 7
ENDMDL
