MODEL 1
REMARK VINA RESULT:      -7.7      0.000      0.000
REMARK  Name = 11912001
REMARK  8 active torsions:
REMARK  status: ('A' for Active; 'I' for Inactive)
REMARK    1  A    between atoms: O_4  and  C_27
REMARK    2  A    between atoms: O_4  and  C_33
REMARK    3  A    between atoms: O_5  and  C_32
REMARK    4  A    between atoms: O_5  and  C_34
REMARK    5  A    between atoms: N_6  and  C_12
REMARK    6  A    between atoms: N_7  and  C_13
REMARK    7  A    between atoms: C_16  and  C_18
REMARK    8  A    between atoms: C_19  and  C_24
REMARK                            x       y       z     vdW  Elec       q    Type
REMARK                         _______ _______ _______ _____ _____    ______ ____
ROOT
ATOM      1  O   UNL     1      -5.069  -8.775  10.528  0.00  0.00    -0.370 OA
ATOM      2  O   UNL     1      -6.224 -11.670  10.373  0.00  0.00    -0.370 OA
ATOM     10  C   UNL     1      -4.737  -9.927   9.735  0.00  0.00    +0.171 C 
ATOM     11  C   UNL     1      -4.907 -11.148  10.618  0.00  0.00    +0.171 C 
ATOM     12  C   UNL     1      -5.756 -10.122   8.637  0.00  0.00    +0.130 C 
ATOM     13  C   UNL     1      -4.813 -10.604  12.024  0.00  0.00    +0.130 C 
ATOM     14  C   UNL     1      -5.353  -9.193  11.872  0.00  0.00    +0.185 C 
ATOM     15  C   UNL     1      -6.856 -10.890   9.348  0.00  0.00    +0.185 C 
ENDROOT
BRANCH  13   7
ATOM      7  N   UNL     1      -3.430 -10.567  12.448  0.00  0.00    -0.306 N 
ATOM      8  N   UNL     1      -4.011 -10.636  14.721  0.00  0.00    -0.214 NA
ATOM      9  N   UNL     1      -1.703 -10.546  14.036  0.00  0.00    -0.223 NA
ATOM     17  C   UNL     1      -3.036 -10.584  13.774  0.00  0.00    +0.216 A 
ATOM     19  C   UNL     1      -3.592 -10.650  16.003  0.00  0.00    +0.076 A 
ATOM     22  C   UNL     1      -1.354 -10.563  15.339  0.00  0.00    +0.116 A 
ATOM     23  C   UNL     1      -2.263 -10.616  16.375  0.00  0.00    +0.048 A 
ATOM     36  H   UNL     1      -2.695 -10.580  11.751  0.00  0.00    +0.149 HD
BRANCH  19  24
ATOM     24  C   UNL     1      -4.642 -10.707  16.990  0.00  0.00    +0.001 A 
ATOM     28  C   UNL     1      -5.871 -10.091  16.744  0.00  0.00    +0.013 A 
ATOM     29  C   UNL     1      -4.433 -11.379  18.198  0.00  0.00    +0.013 A 
ATOM     30  C   UNL     1      -6.886 -10.145  17.699  0.00  0.00    +0.046 A 
ATOM     31  C   UNL     1      -5.448 -11.434  19.153  0.00  0.00    +0.046 A 
ATOM     32  C   UNL     1      -6.674 -10.817  18.904  0.00  0.00    +0.120 A 
BRANCH  32   5
ATOM      5  O   UNL     1      -7.664 -10.870  19.837  0.00  0.00    -0.495 OA
ATOM     34  C   UNL     1      -8.989 -11.104  19.365  0.00  0.00    +0.277 C 
ENDBRANCH  32   5
ENDBRANCH  19  24
ENDBRANCH  13   7
BRANCH  12   6
ATOM      3  O   UNL     1      -6.343  -9.786   5.846  0.00  0.00    -0.270 OA
ATOM      6  N   UNL     1      -5.208 -10.886   7.543  0.00  0.00    -0.304 N 
ATOM     16  C   UNL     1      -5.553 -10.649   6.221  0.00  0.00    +0.244 C 
ATOM     35  H   UNL     1      -4.638 -11.689   7.786  0.00  0.00    +0.149 HD
BRANCH  16  18
ATOM     18  C   UNL     1      -4.921 -11.540   5.214  0.00  0.00    +0.037 A 
ATOM     20  C   UNL     1      -5.609 -11.828   4.053  0.00  0.00    +0.016 A 
ATOM     21  C   UNL     1      -3.666 -12.053   5.473  0.00  0.00    +0.016 A 
ATOM     25  C   UNL     1      -5.016 -12.665   3.108  0.00  0.00    +0.046 A 
ATOM     26  C   UNL     1      -3.074 -12.890   4.527  0.00  0.00    +0.046 A 
ATOM     27  C   UNL     1      -3.749 -13.197   3.346  0.00  0.00    +0.120 A 
BRANCH  27   4
ATOM      4  O   UNL     1      -3.171 -14.015   2.425  0.00  0.00    -0.495 OA
ATOM     33  C   UNL     1      -1.747 -14.120   2.451  0.00  0.00    +0.277 C 
ENDBRANCH  27   4
ENDBRANCH  16  18
ENDBRANCH  12   6
TORSDOF 6
ENDMDL
MODEL 2
REMARK VINA RESULT:      -7.2     21.997     24.897
REMARK  Name = 11912001
REMARK  8 active torsions:
REMARK  status: ('A' for Active; 'I' for Inactive)
REMARK    1  A    between atoms: O_4  and  C_27
REMARK    2  A    between atoms: O_4  and  C_33
REMARK    3  A    between atoms: O_5  and  C_32
REMARK    4  A    between atoms: O_5  and  C_34
REMARK    5  A    between atoms: N_6  and  C_12
REMARK    6  A    between atoms: N_7  and  C_13
REMARK    7  A    between atoms: C_16  and  C_18
REMARK    8  A    between atoms: C_19  and  C_24
REMARK                            x       y       z     vdW  Elec       q    Type
REMARK                         _______ _______ _______ _____ _____    ______ ____
ROOT
ATOM      1  O   UNL     1       7.898   6.658  -6.078  0.00  0.00    -0.370 OA
ATOM      2  O   UNL     1       6.761   6.243  -3.203  0.00  0.00    -0.370 OA
ATOM     10  C   UNL     1       7.054   5.655  -5.488  0.00  0.00    +0.171 C 
ATOM     11  C   UNL     1       7.552   5.420  -4.076  0.00  0.00    +0.171 C 
ATOM     12  C   UNL     1       5.653   6.191  -5.300  0.00  0.00    +0.130 C 
ATOM     13  C   UNL     1       8.982   5.907  -4.102  0.00  0.00    +0.130 C 
ATOM     14  C   UNL     1       8.942   7.001  -5.154  0.00  0.00    +0.185 C 
ATOM     15  C   UNL     1       5.762   6.924  -3.975  0.00  0.00    +0.185 C 
ENDROOT
BRANCH  13   7
ATOM      7  N   UNL     1       9.861   4.839  -4.524  0.00  0.00    -0.306 N 
ATOM      8  N   UNL     1      10.639   4.469  -2.340  0.00  0.00    -0.214 NA
ATOM      9  N   UNL     1      11.453   3.149  -4.184  0.00  0.00    -0.223 NA
ATOM     17  C   UNL     1      10.675   4.131  -3.657  0.00  0.00    +0.216 A 
ATOM     19  C   UNL     1      11.445   3.760  -1.524  0.00  0.00    +0.076 A 
ATOM     22  C   UNL     1      12.235   2.480  -3.312  0.00  0.00    +0.116 A 
ATOM     23  C   UNL     1      12.273   2.743  -1.958  0.00  0.00    +0.048 A 
ATOM     36  H   UNL     1       9.857   4.544  -5.493  0.00  0.00    +0.149 HD
BRANCH  19  24
ATOM     24  C   UNL     1      11.391   4.134  -0.132  0.00  0.00    +0.001 A 
ATOM     28  C   UNL     1      12.404   3.734   0.742  0.00  0.00    +0.013 A 
ATOM     29  C   UNL     1      10.323   4.896   0.347  0.00  0.00    +0.013 A 
ATOM     30  C   UNL     1      12.351   4.095   2.088  0.00  0.00    +0.046 A 
ATOM     31  C   UNL     1      10.269   5.258   1.694  0.00  0.00    +0.046 A 
ATOM     32  C   UNL     1      11.283   4.857   2.564  0.00  0.00    +0.120 A 
BRANCH  32   5
ATOM      5  O   UNL     1      11.230   5.209   3.878  0.00  0.00    -0.495 OA
ATOM     34  C   UNL     1      10.157   4.675   4.650  0.00  0.00    +0.277 C 
ENDBRANCH  32   5
ENDBRANCH  19  24
ENDBRANCH  13   7
BRANCH  12   6
ATOM      3  O   UNL     1       2.795   6.458  -5.227  0.00  0.00    -0.270 OA
ATOM      6  N   UNL     1       4.689   5.120  -5.229  0.00  0.00    -0.304 N 
ATOM     16  C   UNL     1       3.322   5.349  -5.198  0.00  0.00    +0.244 C 
ATOM     35  H   UNL     1       5.054   4.185  -5.085  0.00  0.00    +0.149 HD
BRANCH  16  18
ATOM     18  C   UNL     1       2.462   4.141  -5.097  0.00  0.00    +0.037 A 
ATOM     20  C   UNL     1       2.893   2.966  -5.677  0.00  0.00    +0.016 A 
ATOM     21  C   UNL     1       1.260   4.234  -4.426  0.00  0.00    +0.016 A 
ATOM     25  C   UNL     1       2.085   1.832  -5.582  0.00  0.00    +0.046 A 
ATOM     26  C   UNL     1       0.453   3.100  -4.332  0.00  0.00    +0.046 A 
ATOM     27  C   UNL     1       0.865   1.900  -4.911  0.00  0.00    +0.120 A 
BRANCH  27   4
ATOM      4  O   UNL     1       0.077   0.795  -4.820  0.00  0.00    -0.495 OA
ATOM     33  C   UNL     1      -0.256   0.131  -6.039  0.00  0.00    +0.277 C 
ENDBRANCH  27   4
ENDBRANCH  16  18
ENDBRANCH  12   6
TORSDOF 6
ENDMDL
MODEL 3
REMARK VINA RESULT:      -7.2     25.220     26.950
REMARK  Name = 11912001
REMARK  8 active torsions:
REMARK  status: ('A' for Active; 'I' for Inactive)
REMARK    1  A    between atoms: O_4  and  C_27
REMARK    2  A    between atoms: O_4  and  C_33
REMARK    3  A    between atoms: O_5  and  C_32
REMARK    4  A    between atoms: O_5  and  C_34
REMARK    5  A    between atoms: N_6  and  C_12
REMARK    6  A    between atoms: N_7  and  C_13
REMARK    7  A    between atoms: C_16  and  C_18
REMARK    8  A    between atoms: C_19  and  C_24
REMARK                            x       y       z     vdW  Elec       q    Type
REMARK                         _______ _______ _______ _____ _____    ______ ____
ROOT
ATOM      1  O   UNL     1      11.094  13.930  10.233  0.00  0.00    -0.370 OA
ATOM      2  O   UNL     1       9.760  11.827  12.114  0.00  0.00    -0.370 OA
ATOM     10  C   UNL     1      11.039  12.493  10.222  0.00  0.00    +0.171 C 
ATOM     11  C   UNL     1      11.111  12.029  11.664  0.00  0.00    +0.171 C 
ATOM     12  C   UNL     1       9.684  12.021   9.751  0.00  0.00    +0.130 C 
ATOM     13  C   UNL     1      11.739  13.191  12.396  0.00  0.00    +0.130 C 
ATOM     14  C   UNL     1      11.280  14.386  11.581  0.00  0.00    +0.185 C 
ATOM     15  C   UNL     1       8.860  12.074  11.025  0.00  0.00    +0.185 C 
ENDROOT
BRANCH  13   7
ATOM      7  N   UNL     1      13.181  13.080  12.354  0.00  0.00    -0.306 N 
ATOM      8  N   UNL     1      13.232  11.613  14.185  0.00  0.00    -0.214 NA
ATOM      9  N   UNL     1      15.266  12.287  13.083  0.00  0.00    -0.223 NA
ATOM     17  C   UNL     1      13.915  12.304  13.233  0.00  0.00    +0.216 A 
ATOM     19  C   UNL     1      13.979  10.867  15.026  0.00  0.00    +0.076 A 
ATOM     22  C   UNL     1      15.950  11.521  13.957  0.00  0.00    +0.116 A 
ATOM     23  C   UNL     1      15.355  10.782  14.958  0.00  0.00    +0.048 A 
ATOM     36  H   UNL     1      13.695  13.549  11.617  0.00  0.00    +0.149 HD
BRANCH  19  24
ATOM     24  C   UNL     1      13.234  10.142  16.027  0.00  0.00    +0.001 A 
ATOM     28  C   UNL     1      12.051   9.485  15.682  0.00  0.00    +0.013 A 
ATOM     29  C   UNL     1      13.694  10.096  17.345  0.00  0.00    +0.013 A 
ATOM     30  C   UNL     1      11.332   8.784  16.650  0.00  0.00    +0.046 A 
ATOM     31  C   UNL     1      12.975   9.395  18.314  0.00  0.00    +0.046 A 
ATOM     32  C   UNL     1      11.794   8.739  17.966  0.00  0.00    +0.120 A 
BRANCH  32   5
ATOM      5  O   UNL     1      11.091   8.057  18.911  0.00  0.00    -0.495 OA
ATOM     34  C   UNL     1      11.147   8.554  20.246  0.00  0.00    +0.277 C 
ENDBRANCH  32   5
ENDBRANCH  19  24
ENDBRANCH  13   7
BRANCH  12   6
ATOM      3  O   UNL     1      10.154  11.266   7.020  0.00  0.00    -0.270 OA
ATOM      6  N   UNL     1       9.750  10.678   9.227  0.00  0.00    -0.304 N 
ATOM     16  C   UNL     1       9.984  10.412   7.886  0.00  0.00    +0.244 C 
ATOM     35  H   UNL     1       9.505   9.927   9.862  0.00  0.00    +0.149 HD
BRANCH  16  18
ATOM     18  C   UNL     1       9.996   8.977   7.501  0.00  0.00    +0.037 A 
ATOM     20  C   UNL     1      11.041   8.501   6.735  0.00  0.00    +0.016 A 
ATOM     21  C   UNL     1       8.961   8.166   7.920  0.00  0.00    +0.016 A 
ATOM     25  C   UNL     1      11.052   7.154   6.373  0.00  0.00    +0.046 A 
ATOM     26  C   UNL     1       8.973   6.819   7.557  0.00  0.00    +0.046 A 
ATOM     27  C   UNL     1      10.017   6.313   6.783  0.00  0.00    +0.120 A 
BRANCH  27   4
ATOM      4  O   UNL     1      10.027   5.000   6.429  0.00  0.00    -0.495 OA
ATOM     33  C   UNL     1      10.040   4.703   5.033  0.00  0.00    +0.277 C 
ENDBRANCH  27   4
ENDBRANCH  16  18
ENDBRANCH  12   6
TORSDOF 6
ENDMDL
MODEL 4
REMARK VINA RESULT:      -7.1      1.562     11.681
REMARK  Name = 11912001
REMARK  8 active torsions:
REMARK  status: ('A' for Active; 'I' for Inactive)
REMARK    1  A    between atoms: O_4  and  C_27
REMARK    2  A    between atoms: O_4  and  C_33
REMARK    3  A    between atoms: O_5  and  C_32
REMARK    4  A    between atoms: O_5  and  C_34
REMARK    5  A    between atoms: N_6  and  C_12
REMARK    6  A    between atoms: N_7  and  C_13
REMARK    7  A    between atoms: C_16  and  C_18
REMARK    8  A    between atoms: C_19  and  C_24
REMARK                            x       y       z     vdW  Elec       q    Type
REMARK                         _______ _______ _______ _____ _____    ______ ____
ROOT
ATOM      1  O   UNL     1      -3.224  -9.640  11.292  0.00  0.00    -0.370 OA
ATOM      2  O   UNL     1      -4.311 -12.474  12.016  0.00  0.00    -0.370 OA
ATOM     10  C   UNL     1      -4.199 -10.109  12.240  0.00  0.00    +0.171 C 
ATOM     11  C   UNL     1      -4.945 -11.257  11.588  0.00  0.00    +0.171 C 
ATOM     12  C   UNL     1      -3.515 -10.742  13.428  0.00  0.00    +0.130 C 
ATOM     13  C   UNL     1      -4.729 -11.046  10.108  0.00  0.00    +0.130 C 
ATOM     14  C   UNL     1      -3.373 -10.366  10.062  0.00  0.00    +0.185 C 
ATOM     15  C   UNL     1      -3.261 -12.157  12.941  0.00  0.00    +0.185 C 
ENDROOT
BRANCH  13   7
ATOM      7  N   UNL     1      -5.748 -10.166   9.580  0.00  0.00    -0.306 N 
ATOM      8  N   UNL     1      -5.351 -10.852   7.371  0.00  0.00    -0.214 NA
ATOM      9  N   UNL     1      -7.037  -9.204   7.871  0.00  0.00    -0.223 NA
ATOM     17  C   UNL     1      -6.055 -10.071   8.234  0.00  0.00    +0.216 A 
ATOM     19  C   UNL     1      -5.676 -10.734   6.067  0.00  0.00    +0.076 A 
ATOM     22  C   UNL     1      -7.310  -9.136   6.551  0.00  0.00    +0.116 A 
ATOM     23  C   UNL     1      -6.656  -9.884   5.594  0.00  0.00    +0.048 A 
ATOM     36  H   UNL     1      -6.314  -9.618  10.218  0.00  0.00    +0.149 HD
BRANCH  19  24
ATOM     24  C   UNL     1      -4.919 -11.571   5.169  0.00  0.00    +0.001 A 
ATOM     28  C   UNL     1      -3.662 -12.050   5.547  0.00  0.00    +0.013 A 
ATOM     29  C   UNL     1      -5.439 -11.907   3.916  0.00  0.00    +0.013 A 
ATOM     30  C   UNL     1      -2.930 -12.859   4.679  0.00  0.00    +0.046 A 
ATOM     31  C   UNL     1      -4.707 -12.717   3.047  0.00  0.00    +0.046 A 
ATOM     32  C   UNL     1      -3.453 -13.193   3.428  0.00  0.00    +0.120 A 
BRANCH  32   5
ATOM      5  O   UNL     1      -2.738 -13.981   2.581  0.00  0.00    -0.495 OA
ATOM     34  C   UNL     1      -1.361 -14.186   2.890  0.00  0.00    +0.277 C 
ENDBRANCH  32   5
ENDBRANCH  19  24
ENDBRANCH  13   7
BRANCH  12   6
ATOM      3  O   UNL     1      -2.684 -10.546  16.171  0.00  0.00    -0.270 OA
ATOM      6  N   UNL     1      -4.371 -10.734  14.590  0.00  0.00    -0.304 N 
ATOM     16  C   UNL     1      -3.875 -10.634  15.881  0.00  0.00    +0.244 C 
ATOM     35  H   UNL     1      -5.356 -10.920  14.434  0.00  0.00    +0.149 HD
BRANCH  16  18
ATOM     18  C   UNL     1      -4.885 -10.667  16.970  0.00  0.00    +0.037 A 
ATOM     20  C   UNL     1      -4.568 -11.300  18.155  0.00  0.00    +0.016 A 
ATOM     21  C   UNL     1      -6.109 -10.065  16.761  0.00  0.00    +0.016 A 
ATOM     25  C   UNL     1      -5.517 -11.331  19.176  0.00  0.00    +0.046 A 
ATOM     26  C   UNL     1      -7.058 -10.097  17.784  0.00  0.00    +0.046 A 
ATOM     27  C   UNL     1      -6.762 -10.731  18.990  0.00  0.00    +0.120 A 
BRANCH  27   4
ATOM      4  O   UNL     1      -7.688 -10.763  19.987  0.00  0.00    -0.495 OA
ATOM     33  C   UNL     1      -8.992 -11.235  19.648  0.00  0.00    +0.277 C 
ENDBRANCH  27   4
ENDBRANCH  16  18
ENDBRANCH  12   6
TORSDOF 6
ENDMDL
MODEL 5
REMARK VINA RESULT:      -6.9      2.569     11.551
REMARK  Name = 11912001
REMARK  8 active torsions:
REMARK  status: ('A' for Active; 'I' for Inactive)
REMARK    1  A    between atoms: O_4  and  C_27
REMARK    2  A    between atoms: O_4  and  C_33
REMARK    3  A    between atoms: O_5  and  C_32
REMARK    4  A    between atoms: O_5  and  C_34
REMARK    5  A    between atoms: N_6  and  C_12
REMARK    6  A    between atoms: N_7  and  C_13
REMARK    7  A    between atoms: C_16  and  C_18
REMARK    8  A    between atoms: C_19  and  C_24
REMARK                            x       y       z     vdW  Elec       q    Type
REMARK                         _______ _______ _______ _____ _____    ______ ____
ROOT
ATOM      1  O   UNL     1      -3.540  -9.026  10.398  0.00  0.00    -0.370 OA
ATOM      2  O   UNL     1      -5.188 -11.637  10.847  0.00  0.00    -0.370 OA
ATOM     10  C   UNL     1      -4.375  -9.491  11.472  0.00  0.00    +0.171 C 
ATOM     11  C   UNL     1      -5.536 -10.242  10.848  0.00  0.00    +0.171 C 
ATOM     12  C   UNL     1      -3.652 -10.540  12.284  0.00  0.00    +0.130 C 
ATOM     13  C   UNL     1      -5.598  -9.717   9.433  0.00  0.00    +0.130 C 
ATOM     14  C   UNL     1      -4.150  -9.365   9.144  0.00  0.00    +0.185 C 
ATOM     15  C   UNL     1      -3.916 -11.806  11.488  0.00  0.00    +0.185 C 
ENDROOT
BRANCH  13   7
ATOM      7  N   UNL     1      -6.421  -8.528   9.383  0.00  0.00    -0.306 N 
ATOM      8  N   UNL     1      -7.068  -8.937   7.164  0.00  0.00    -0.214 NA
ATOM      9  N   UNL     1      -7.880  -7.005   8.354  0.00  0.00    -0.223 NA
ATOM     17  C   UNL     1      -7.145  -8.145   8.267  0.00  0.00    +0.216 A 
ATOM     19  C   UNL     1      -7.784  -8.533   6.094  0.00  0.00    +0.076 A 
ATOM     22  C   UNL     1      -8.571  -6.660   7.248  0.00  0.00    +0.116 A 
ATOM     23  C   UNL     1      -8.563  -7.392   6.079  0.00  0.00    +0.048 A 
ATOM     36  H   UNL     1      -6.527  -7.959  10.215  0.00  0.00    +0.149 HD
BRANCH  19  24
ATOM     24  C   UNL     1      -7.690  -9.387   4.936  0.00  0.00    +0.001 A 
ATOM     28  C   UNL     1      -7.032 -10.617   5.022  0.00  0.00    +0.013 A 
ATOM     29  C   UNL     1      -8.255  -8.988   3.722  0.00  0.00    +0.013 A 
ATOM     30  C   UNL     1      -6.940 -11.442   3.902  0.00  0.00    +0.046 A 
ATOM     31  C   UNL     1      -8.164  -9.813   2.601  0.00  0.00    +0.046 A 
ATOM     32  C   UNL     1      -7.506 -11.041   2.691  0.00  0.00    +0.120 A 
BRANCH  32   5
ATOM      5  O   UNL     1      -7.416 -11.845   1.597  0.00  0.00    -0.495 OA
ATOM     34  C   UNL     1      -6.537 -12.965   1.686  0.00  0.00    +0.277 C 
ENDBRANCH  32   5
ENDBRANCH  19  24
ENDBRANCH  13   7
BRANCH  12   6
ATOM      3  O   UNL     1      -2.187 -10.400  14.750  0.00  0.00    -0.270 OA
ATOM      6  N   UNL     1      -4.197 -10.637  13.617  0.00  0.00    -0.304 N 
ATOM     16  C   UNL     1      -3.406 -10.556  14.753  0.00  0.00    +0.244 C 
ATOM     35  H   UNL     1      -5.178 -10.881  13.694  0.00  0.00    +0.149 HD
BRANCH  16  18
ATOM     18  C   UNL     1      -4.115 -10.701  16.051  0.00  0.00    +0.037 A 
ATOM     20  C   UNL     1      -3.497 -11.387  17.076  0.00  0.00    +0.016 A 
ATOM     21  C   UNL     1      -5.371 -10.146  16.188  0.00  0.00    +0.016 A 
ATOM     25  C   UNL     1      -4.163 -11.523  18.293  0.00  0.00    +0.046 A 
ATOM     26  C   UNL     1      -6.037 -10.283  17.407  0.00  0.00    +0.046 A 
ATOM     27  C   UNL     1      -5.434 -10.972  18.458  0.00  0.00    +0.120 A 
BRANCH  27   4
ATOM      4  O   UNL     1      -6.084 -11.107  19.645  0.00  0.00    -0.495 OA
ATOM     33  C   UNL     1      -7.146 -12.058  19.701  0.00  0.00    +0.277 C 
ENDBRANCH  27   4
ENDBRANCH  16  18
ENDBRANCH  12   6
TORSDOF 6
ENDMDL
MODEL 6
REMARK VINA RESULT:      -6.9     22.664     24.679
REMARK  Name = 11912001
REMARK  8 active torsions:
REMARK  status: ('A' for Active; 'I' for Inactive)
REMARK    1  A    between atoms: O_4  and  C_27
REMARK    2  A    between atoms: O_4  and  C_33
REMARK    3  A    between atoms: O_5  and  C_32
REMARK    4  A    between atoms: O_5  and  C_34
REMARK    5  A    between atoms: N_6  and  C_12
REMARK    6  A    between atoms: N_7  and  C_13
REMARK    7  A    between atoms: C_16  and  C_18
REMARK    8  A    between atoms: C_19  and  C_24
REMARK                            x       y       z     vdW  Elec       q    Type
REMARK                         _______ _______ _______ _____ _____    ______ ____
ROOT
ATOM      1  O   UNL     1       6.487  12.807   4.029  0.00  0.00    -0.370 OA
ATOM      2  O   UNL     1       4.693  10.293   3.582  0.00  0.00    -0.370 OA
ATOM     10  C   UNL     1       6.359  11.552   4.720  0.00  0.00    +0.171 C 
ATOM     11  C   UNL     1       4.891  11.175   4.701  0.00  0.00    +0.171 C 
ATOM     12  C   UNL     1       7.033  10.449   3.939  0.00  0.00    +0.130 C 
ATOM     13  C   UNL     1       4.174  12.484   4.468  0.00  0.00    +0.130 C 
ATOM     14  C   UNL     1       5.183  13.275   3.654  0.00  0.00    +0.185 C 
ATOM     15  C   UNL     1       5.955  10.048   2.947  0.00  0.00    +0.185 C 
ENDROOT
BRANCH  13   7
ATOM      7  N   UNL     1       3.925  13.143   5.731  0.00  0.00    -0.306 N 
ATOM      8  N   UNL     1       1.816  12.139   5.962  0.00  0.00    -0.214 NA
ATOM      9  N   UNL     1       2.657  13.649   7.640  0.00  0.00    -0.223 NA
ATOM     17  C   UNL     1       2.765  12.972   6.467  0.00  0.00    +0.216 A 
ATOM     19  C   UNL     1       0.698  11.996   6.704  0.00  0.00    +0.076 A 
ATOM     22  C   UNL     1       1.514  13.461   8.331  0.00  0.00    +0.116 A 
ATOM     23  C   UNL     1       0.490  12.638   7.909  0.00  0.00    +0.048 A 
ATOM     36  H   UNL     1       4.646  13.725   6.141  0.00  0.00    +0.149 HD
BRANCH  19  24
ATOM     24  C   UNL     1      -0.295  11.107   6.152  0.00  0.00    +0.001 A 
ATOM     28  C   UNL     1      -1.051  10.290   6.995  0.00  0.00    +0.013 A 
ATOM     29  C   UNL     1      -0.503  11.060   4.771  0.00  0.00    +0.013 A 
ATOM     30  C   UNL     1      -2.011   9.430   6.461  0.00  0.00    +0.046 A 
ATOM     31  C   UNL     1      -1.463  10.200   4.236  0.00  0.00    +0.046 A 
ATOM     32  C   UNL     1      -2.217   9.385   5.081  0.00  0.00    +0.120 A 
BRANCH  32   5
ATOM      5  O   UNL     1      -3.152   8.545   4.560  0.00  0.00    -0.495 OA
ATOM     34  C   UNL     1      -3.458   7.370   5.307  0.00  0.00    +0.277 C 
ENDBRANCH  32   5
ENDBRANCH  19  24
ENDBRANCH  13   7
BRANCH  12   6
ATOM      3  O   UNL     1       9.688   9.666   4.707  0.00  0.00    -0.270 OA
ATOM      6  N   UNL     1       7.392   9.345   4.796  0.00  0.00    -0.304 N 
ATOM     16  C   UNL     1       8.709   9.044   5.112  0.00  0.00    +0.244 C 
ATOM     35  H   UNL     1       6.644   8.719   5.073  0.00  0.00    +0.149 HD
BRANCH  16  18
ATOM     18  C   UNL     1       8.913   7.860   5.985  0.00  0.00    +0.037 A 
ATOM     20  C   UNL     1       8.778   8.006   7.350  0.00  0.00    +0.016 A 
ATOM     21  C   UNL     1       9.234   6.650   5.403  0.00  0.00    +0.016 A 
ATOM     25  C   UNL     1       8.970   6.895   8.170  0.00  0.00    +0.046 A 
ATOM     26  C   UNL     1       9.427   5.539   6.223  0.00  0.00    +0.046 A 
ATOM     27  C   UNL     1       9.296   5.661   7.606  0.00  0.00    +0.120 A 
BRANCH  27   4
ATOM      4  O   UNL     1       9.486   4.577   8.406  0.00  0.00    -0.495 OA
ATOM     33  C   UNL     1       9.244   4.748   9.802  0.00  0.00    +0.277 C 
ENDBRANCH  27   4
ENDBRANCH  16  18
ENDBRANCH  12   6
TORSDOF 6
ENDMDL
MODEL 7
REMARK VINA RESULT:      -6.8     29.068     32.949
REMARK  Name = 11912001
REMARK  8 active torsions:
REMARK  status: ('A' for Active; 'I' for Inactive)
REMARK    1  A    between atoms: O_4  and  C_27
REMARK    2  A    between atoms: O_4  and  C_33
REMARK    3  A    between atoms: O_5  and  C_32
REMARK    4  A    between atoms: O_5  and  C_34
REMARK    5  A    between atoms: N_6  and  C_12
REMARK    6  A    between atoms: N_7  and  C_13
REMARK    7  A    between atoms: C_16  and  C_18
REMARK    8  A    between atoms: C_19  and  C_24
REMARK                            x       y       z     vdW  Elec       q    Type
REMARK                         _______ _______ _______ _____ _____    ______ ____
ROOT
ATOM      1  O   UNL     1      22.393   8.433  22.442  0.00  0.00    -0.370 OA
ATOM      2  O   UNL     1      20.943   6.197  24.065  0.00  0.00    -0.370 OA
ATOM     10  C   UNL     1      21.218   7.642  22.196  0.00  0.00    +0.171 C 
ATOM     11  C   UNL     1      21.489   6.251  22.736  0.00  0.00    +0.171 C 
ATOM     12  C   UNL     1      20.062   8.142  23.031  0.00  0.00    +0.130 C 
ATOM     13  C   UNL     1      22.997   6.161  22.785  0.00  0.00    +0.130 C 
ATOM     14  C   UNL     1      23.409   7.603  23.023  0.00  0.00    +0.185 C 
ATOM     15  C   UNL     1      20.294   7.442  24.358  0.00  0.00    +0.185 C 
ENDROOT
BRANCH  13   7
ATOM      7  N   UNL     1      23.506   5.699  21.513  0.00  0.00    -0.306 N 
ATOM      8  N   UNL     1      23.869   3.527  22.323  0.00  0.00    -0.214 NA
ATOM      9  N   UNL     1      24.390   4.099  20.041  0.00  0.00    -0.223 NA
ATOM     17  C   UNL     1      23.934   4.403  21.285  0.00  0.00    +0.216 A 
ATOM     19  C   UNL     1      24.295   2.272  22.067  0.00  0.00    +0.076 A 
ATOM     22  C   UNL     1      24.800   2.827  19.855  0.00  0.00    +0.116 A 
ATOM     23  C   UNL     1      24.775   1.861  20.839  0.00  0.00    +0.048 A 
ATOM     36  H   UNL     1      23.511   6.329  20.719  0.00  0.00    +0.149 HD
BRANCH  19  24
ATOM     24  C   UNL     1      24.216   1.359  23.180  0.00  0.00    +0.001 A 
ATOM     28  C   UNL     1      23.121   1.402  24.047  0.00  0.00    +0.013 A 
ATOM     29  C   UNL     1      25.235   0.428  23.397  0.00  0.00    +0.013 A 
ATOM     30  C   UNL     1      23.045   0.519  25.124  0.00  0.00    +0.046 A 
ATOM     31  C   UNL     1      25.159  -0.456  24.474  0.00  0.00    +0.046 A 
ATOM     32  C   UNL     1      24.064  -0.410  25.338  0.00  0.00    +0.120 A 
BRANCH  32   5
ATOM      5  O   UNL     1      23.991  -1.271  26.389  0.00  0.00    -0.495 OA
ATOM     34  C   UNL     1      22.940  -2.236  26.367  0.00  0.00    +0.277 C 
ENDBRANCH  32   5
ENDBRANCH  19  24
ENDBRANCH  13   7
BRANCH  12   6
ATOM      3  O   UNL     1      18.551   9.618  21.085  0.00  0.00    -0.270 OA
ATOM      6  N   UNL     1      18.796   7.761  22.453  0.00  0.00    -0.304 N 
ATOM     16  C   UNL     1      18.139   8.543  21.514  0.00  0.00    +0.244 C 
ATOM     35  H   UNL     1      18.341   6.944  22.845  0.00  0.00    +0.149 HD
BRANCH  16  18
ATOM     18  C   UNL     1      16.832   8.025  21.036  0.00  0.00    +0.037 A 
ATOM     20  C   UNL     1      15.672   8.522  21.595  0.00  0.00    +0.016 A 
ATOM     21  C   UNL     1      16.819   7.060  20.049  0.00  0.00    +0.016 A 
ATOM     25  C   UNL     1      14.445   8.035  21.146  0.00  0.00    +0.046 A 
ATOM     26  C   UNL     1      15.591   6.572  19.601  0.00  0.00    +0.046 A 
ATOM     27  C   UNL     1      14.404   7.059  20.150  0.00  0.00    +0.120 A 
BRANCH  27   4
ATOM      4  O   UNL     1      13.207   6.582  19.714  0.00  0.00    -0.495 OA
ATOM     33  C   UNL     1      12.566   7.301  18.661  0.00  0.00    +0.277 C 
ENDBRANCH  27   4
ENDBRANCH  16  18
ENDBRANCH  12   6
TORSDOF 6
ENDMDL
MODEL 8
REMARK VINA RESULT:      -6.8      3.516     10.132
REMARK  Name = 11912001
REMARK  8 active torsions:
REMARK  status: ('A' for Active; 'I' for Inactive)
REMARK    1  A    between atoms: O_4  and  C_27
REMARK    2  A    between atoms: O_4  and  C_33
REMARK    3  A    between atoms: O_5  and  C_32
REMARK    4  A    between atoms: O_5  and  C_34
REMARK    5  A    between atoms: N_6  and  C_12
REMARK    6  A    between atoms: N_7  and  C_13
REMARK    7  A    between atoms: C_16  and  C_18
REMARK    8  A    between atoms: C_19  and  C_24
REMARK                            x       y       z     vdW  Elec       q    Type
REMARK                         _______ _______ _______ _____ _____    ______ ____
ROOT
ATOM      1  O   UNL     1      -6.147 -12.961  18.218  0.00  0.00    -0.370 OA
ATOM      2  O   UNL     1      -7.024 -12.883  15.225  0.00  0.00    -0.370 OA
ATOM     10  C   UNL     1      -6.663 -11.921  17.369  0.00  0.00    +0.171 C 
ATOM     11  C   UNL     1      -6.069 -12.129  15.990  0.00  0.00    +0.171 C 
ATOM     12  C   UNL     1      -8.148 -12.101  17.161  0.00  0.00    +0.130 C 
ATOM     13  C   UNL     1      -4.829 -12.955  16.241  0.00  0.00    +0.130 C 
ATOM     14  C   UNL     1      -5.204 -13.751  17.478  0.00  0.00    +0.185 C 
ATOM     15  C   UNL     1      -8.198 -13.100  16.020  0.00  0.00    +0.185 C 
ENDROOT
BRANCH  13   7
ATOM      7  N   UNL     1      -3.707 -12.088  16.526  0.00  0.00    -0.306 N 
ATOM      8  N   UNL     1      -3.435 -11.515  14.267  0.00  0.00    -0.214 NA
ATOM      9  N   UNL     1      -1.985 -10.599  15.959  0.00  0.00    -0.223 NA
ATOM     17  C   UNL     1      -3.022 -11.379  15.555  0.00  0.00    +0.216 A 
ATOM     19  C   UNL     1      -2.745 -10.811  13.346  0.00  0.00    +0.076 A 
ATOM     22  C   UNL     1      -1.339  -9.922  14.986  0.00  0.00    +0.116 A 
ATOM     23  C   UNL     1      -1.677  -9.990  13.651  0.00  0.00    +0.048 A 
ATOM     36  H   UNL     1      -3.423 -11.939  17.488  0.00  0.00    +0.149 HD
BRANCH  19  24
ATOM     24  C   UNL     1      -3.200 -10.969  11.986  0.00  0.00    +0.001 A 
ATOM     28  C   UNL     1      -3.417  -9.845  11.185  0.00  0.00    +0.013 A 
ATOM     29  C   UNL     1      -3.426 -12.245  11.466  0.00  0.00    +0.013 A 
ATOM     30  C   UNL     1      -3.858  -9.998   9.870  0.00  0.00    +0.046 A 
ATOM     31  C   UNL     1      -3.867 -12.398  10.151  0.00  0.00    +0.046 A 
ATOM     32  C   UNL     1      -4.083 -11.274   9.353  0.00  0.00    +0.120 A 
BRANCH  32   5
ATOM      5  O   UNL     1      -4.514 -11.423   8.071  0.00  0.00    -0.495 OA
ATOM     34  C   UNL     1      -5.145 -10.297   7.464  0.00  0.00    +0.277 C 
ENDBRANCH  32   5
ENDBRANCH  19  24
ENDBRANCH  13   7
BRANCH  12   6
ATOM      3  O   UNL     1     -10.460 -10.921  18.391  0.00  0.00    -0.270 OA
ATOM      6  N   UNL     1      -8.779 -10.856  16.794  0.00  0.00    -0.304 N 
ATOM     16  C   UNL     1      -9.898 -10.365  17.451  0.00  0.00    +0.244 C 
ATOM     35  H   UNL     1      -8.439 -10.401  15.954  0.00  0.00    +0.149 HD
BRANCH  16  18
ATOM     18  C   UNL     1     -10.444  -9.083  16.935  0.00  0.00    +0.037 A 
ATOM     20  C   UNL     1      -9.569  -8.134  16.447  0.00  0.00    +0.016 A 
ATOM     21  C   UNL     1     -11.809  -8.881  16.963  0.00  0.00    +0.016 A 
ATOM     25  C   UNL     1     -10.082  -6.930  15.963  0.00  0.00    +0.046 A 
ATOM     26  C   UNL     1     -12.321  -7.677  16.479  0.00  0.00    +0.046 A 
ATOM     27  C   UNL     1     -11.458  -6.702  15.981  0.00  0.00    +0.120 A 
BRANCH  27   4
ATOM      4  O   UNL     1     -11.958  -5.527  15.511  0.00  0.00    -0.495 OA
ATOM     33  C   UNL     1     -12.215  -5.444  14.110  0.00  0.00    +0.277 C 
ENDBRANCH  27   4
ENDBRANCH  16  18
ENDBRANCH  12   6
TORSDOF 6
ENDMDL
MODEL 9
REMARK VINA RESULT:      -6.7     26.236     28.564
REMARK  Name = 11912001
REMARK  8 active torsions:
REMARK  status: ('A' for Active; 'I' for Inactive)
REMARK    1  A    between atoms: O_4  and  C_27
REMARK    2  A    between atoms: O_4  and  C_33
REMARK    3  A    between atoms: O_5  and  C_32
REMARK    4  A    between atoms: O_5  and  C_34
REMARK    5  A    between atoms: N_6  and  C_12
REMARK    6  A    between atoms: N_7  and  C_13
REMARK    7  A    between atoms: C_16  and  C_18
REMARK    8  A    between atoms: C_19  and  C_24
REMARK                            x       y       z     vdW  Elec       q    Type
REMARK                         _______ _______ _______ _____ _____    ______ ____
ROOT
ATOM      1  O   UNL     1      13.157  11.027   7.280  0.00  0.00    -0.370 OA
ATOM      2  O   UNL     1      13.419   9.959   4.359  0.00  0.00    -0.370 OA
ATOM     10  C   UNL     1      14.021  10.059   6.658  0.00  0.00    +0.171 C 
ATOM     11  C   UNL     1      13.195   9.316   5.626  0.00  0.00    +0.171 C 
ATOM     12  C   UNL     1      15.089  10.752   5.846  0.00  0.00    +0.130 C 
ATOM     13  C   UNL     1      11.768   9.524   6.074  0.00  0.00    +0.130 C 
ATOM     14  C   UNL     1      11.827  10.876   6.761  0.00  0.00    +0.185 C 
ATOM     15  C   UNL     1      14.379  11.011   4.529  0.00  0.00    +0.185 C 
ENDROOT
BRANCH  13   7
ATOM      7  N   UNL     1      11.392   8.498   7.021  0.00  0.00    -0.306 N 
ATOM      8  N   UNL     1      10.863   6.968   5.322  0.00  0.00    -0.214 NA
ATOM      9  N   UNL     1      10.629   6.368   7.644  0.00  0.00    -0.223 NA
ATOM     17  C   UNL     1      10.948   7.240   6.652  0.00  0.00    +0.216 A 
ATOM     19  C   UNL     1      10.426   5.734   4.997  0.00  0.00    +0.076 A 
ATOM     22  C   UNL     1      10.199   5.152   7.248  0.00  0.00    +0.116 A 
ATOM     23  C   UNL     1      10.077   4.774   5.927  0.00  0.00    +0.048 A 
ATOM     36  H   UNL     1      11.501   8.672   8.014  0.00  0.00    +0.149 HD
BRANCH  19  24
ATOM     24  C   UNL     1      10.345   5.465   3.582  0.00  0.00    +0.001 A 
ATOM     28  C   UNL     1       9.872   6.447   2.708  0.00  0.00    +0.013 A 
ATOM     29  C   UNL     1      10.737   4.221   3.081  0.00  0.00    +0.013 A 
ATOM     30  C   UNL     1       9.793   6.187   1.340  0.00  0.00    +0.046 A 
ATOM     31  C   UNL     1      10.658   3.961   1.712  0.00  0.00    +0.046 A 
ATOM     32  C   UNL     1      10.186   4.944   0.842  0.00  0.00    +0.120 A 
BRANCH  32   5
ATOM      5  O   UNL     1      10.107   4.689  -0.492  0.00  0.00    -0.495 OA
ATOM     34  C   UNL     1      11.190   3.972  -1.082  0.00  0.00    +0.277 C 
ENDBRANCH  32   5
ENDBRANCH  19  24
ENDBRANCH  13   7
BRANCH  12   6
ATOM      3  O   UNL     1      17.720  11.168   6.920  0.00  0.00    -0.270 OA
ATOM      6  N   UNL     1      16.240   9.902   5.661  0.00  0.00    -0.304 N 
ATOM     16  C   UNL     1      17.475  10.186   6.223  0.00  0.00    +0.244 C 
ATOM     35  H   UNL     1      16.142   9.136   5.004  0.00  0.00    +0.149 HD
BRANCH  16  18
ATOM     18  C   UNL     1      18.566   9.225   5.917  0.00  0.00    +0.037 A 
ATOM     20  C   UNL     1      18.582   8.604   4.685  0.00  0.00    +0.016 A 
ATOM     21  C   UNL     1      19.528   8.982   6.876  0.00  0.00    +0.016 A 
ATOM     25  C   UNL     1      19.605   7.702   4.398  0.00  0.00    +0.046 A 
ATOM     26  C   UNL     1      20.552   8.078   6.588  0.00  0.00    +0.046 A 
ATOM     27  C   UNL     1      20.589   7.438   5.350  0.00  0.00    +0.120 A 
BRANCH  27   4
ATOM      4  O   UNL     1      21.587   6.556   5.071  0.00  0.00    -0.495 OA
ATOM     33  C   UNL     1      21.975   6.425   3.703  0.00  0.00    +0.277 C 
ENDBRANCH  27   4
ENDBRANCH  16  18
ENDBRANCH  12   6
TORSDOF 6
ENDMDL
MODEL 10
REMARK VINA RESULT:      -6.6     28.810     32.760
REMARK  Name = 11912001
REMARK  8 active torsions:
REMARK  status: ('A' for Active; 'I' for Inactive)
REMARK    1  A    between atoms: O_4  and  C_27
REMARK    2  A    between atoms: O_4  and  C_33
REMARK    3  A    between atoms: O_5  and  C_32
REMARK    4  A    between atoms: O_5  and  C_34
REMARK    5  A    between atoms: N_6  and  C_12
REMARK    6  A    between atoms: N_7  and  C_13
REMARK    7  A    between atoms: C_16  and  C_18
REMARK    8  A    between atoms: C_19  and  C_24
REMARK                            x       y       z     vdW  Elec       q    Type
REMARK                         _______ _______ _______ _____ _____    ______ ____
ROOT
ATOM      1  O   UNL     1      15.154   6.279  20.316  0.00  0.00    -0.370 OA
ATOM      2  O   UNL     1      15.967   9.209  19.616  0.00  0.00    -0.370 OA
ATOM     10  C   UNL     1      14.953   7.541  20.975  0.00  0.00    +0.171 C 
ATOM     11  C   UNL     1      16.205   8.368  20.757  0.00  0.00    +0.171 C 
ATOM     12  C   UNL     1      13.866   8.330  20.281  0.00  0.00    +0.130 C 
ATOM     13  C   UNL     1      17.272   7.347  20.442  0.00  0.00    +0.130 C 
ATOM     14  C   UNL     1      16.483   6.234  19.776  0.00  0.00    +0.185 C 
ATOM     15  C   UNL     1      14.625   9.004  19.152  0.00  0.00    +0.185 C 
ENDROOT
BRANCH  13   7
ATOM      7  N   UNL     1      17.876   6.867  21.666  0.00  0.00    -0.306 N 
ATOM      8  N   UNL     1      19.938   7.873  21.172  0.00  0.00    -0.214 NA
ATOM      9  N   UNL     1      19.629   6.618  23.205  0.00  0.00    -0.223 NA
ATOM     17  C   UNL     1      19.187   7.127  22.025  0.00  0.00    +0.216 A 
ATOM     19  C   UNL     1      21.211   8.106  21.553  0.00  0.00    +0.076 A 
ATOM     22  C   UNL     1      20.912   6.889  23.524  0.00  0.00    +0.116 A 
ATOM     23  C   UNL     1      21.758   7.635  22.731  0.00  0.00    +0.048 A 
ATOM     36  H   UNL     1      17.311   6.355  22.333  0.00  0.00    +0.149 HD
BRANCH  19  24
ATOM     24  C   UNL     1      21.990   8.900  20.634  0.00  0.00    +0.001 A 
ATOM     28  C   UNL     1      23.115   8.352  20.013  0.00  0.00    +0.013 A 
ATOM     29  C   UNL     1      21.623  10.220  20.363  0.00  0.00    +0.013 A 
ATOM     30  C   UNL     1      23.869   9.120  19.126  0.00  0.00    +0.046 A 
ATOM     31  C   UNL     1      22.376  10.989  19.475  0.00  0.00    +0.046 A 
ATOM     32  C   UNL     1      23.499  10.439  18.856  0.00  0.00    +0.120 A 
BRANCH  32   5
ATOM      5  O   UNL     1      24.235  11.188  17.991  0.00  0.00    -0.495 OA
ATOM     34  C   UNL     1      24.018  10.973  16.598  0.00  0.00    +0.277 C 
ENDBRANCH  32   5
ENDBRANCH  19  24
ENDBRANCH  13   7
BRANCH  12   6
ATOM      3  O   UNL     1      11.147   9.253  20.254  0.00  0.00    -0.270 OA
ATOM      6  N   UNL     1      13.277   9.302  21.170  0.00  0.00    -0.304 N 
ATOM     16  C   UNL     1      11.948   9.686  21.079  0.00  0.00    +0.244 C 
ATOM     35  H   UNL     1      13.907   9.786  21.800  0.00  0.00    +0.149 HD
BRANCH  16  18
ATOM     18  C   UNL     1      11.501  10.718  22.051  0.00  0.00    +0.037 A 
ATOM     20  C   UNL     1      11.369  12.023  21.624  0.00  0.00    +0.016 A 
ATOM     21  C   UNL     1      11.234  10.338  23.350  0.00  0.00    +0.016 A 
ATOM     25  C   UNL     1      10.951  12.991  22.536  0.00  0.00    +0.046 A 
ATOM     26  C   UNL     1      10.816  11.307  24.262  0.00  0.00    +0.046 A 
ATOM     27  C   UNL     1      10.676  12.633  23.856  0.00  0.00    +0.120 A 
BRANCH  27   4
ATOM      4  O   UNL     1      10.269  13.578  24.746  0.00  0.00    -0.495 OA
ATOM     33  C   UNL     1      11.131  13.843  25.852  0.00  0.00    +0.277 C 
ENDBRANCH  27   4
ENDBRANCH  16  18
ENDBRANCH  12   6
TORSDOF 6
ENDMDL
