MODEL 1
REMARK VINA RESULT:      -7.4      0.000      0.000
REMARK  Name = 7143919
REMARK  6 active torsions:
REMARK  status: ('A' for Active; 'I' for Inactive)
REMARK    1  A    between atoms: S_2  and  N_6
REMARK    2  A    between atoms: S_2  and  C_17
REMARK    3  A    between atoms: C_17  and  C_20
REMARK    4  A    between atoms: C_18  and  C_21
REMARK    5  A    between atoms: C_20  and  C_22
REMARK    6  A    between atoms: C_23  and  C_24
REMARK                            x       y       z     vdW  Elec       q    Type
REMARK                         _______ _______ _______ _____ _____    ______ ____
ROOT
ATOM      5  O   UNL     1      17.373   8.757  21.561  0.00  0.00    -0.267 OA
ATOM      6  N   UNL     1      12.708   8.283  19.896  0.00  0.00    -0.180 NA
ATOM      7  N   UNL     1      15.863   8.461  19.810  0.00  0.00    -0.311 N 
ATOM      8  C   UNL     1      14.111  10.225  19.193  0.00  0.00    +0.025 C 
ATOM      9  C   UNL     1      14.221   8.122  17.929  0.00  0.00    +0.052 C 
ATOM     10  C   UNL     1      14.223   9.642  17.791  0.00  0.00    +0.017 C 
ATOM     11  C   UNL     1      12.804   9.771  19.864  0.00  0.00    +0.114 C 
ATOM     12  C   UNL     1      12.888   7.664  18.550  0.00  0.00    +0.118 C 
ATOM     13  C   UNL     1      15.353   9.827  20.000  0.00  0.00    +0.130 C 
ATOM     14  C   UNL     1      15.388   7.650  18.777  0.00  0.00    +0.026 A 
ATOM     15  C   UNL     1      15.949   6.452  18.552  0.00  0.00    +0.022 A 
ATOM     16  C   UNL     1      16.918   8.058  20.653  0.00  0.00    +0.259 A 
ATOM     18  C   UNL     1      17.509   6.698  20.393  0.00  0.00    +0.040 A 
ATOM     19  C   UNL     1      17.022   5.973  19.375  0.00  0.00    +0.015 A 
ENDROOT
BRANCH   6   2
ATOM      2  S   UNL     1      11.430   7.644  20.839  0.00  0.00    +0.032 S 
ATOM      3  O   UNL     1      11.703   6.249  21.107  0.00  0.00    -0.158 OA
ATOM      4  O   UNL     1      10.171   8.078  20.274  0.00  0.00    -0.158 OA
BRANCH   2  17
ATOM     17  C   UNL     1      11.701   8.553  22.339  0.00  0.00    +0.185 C 
BRANCH  17  20
ATOM     20  C   UNL     1      10.543   9.491  22.633  0.00  0.00    +0.021 C 
ATOM     22  C   UNL     1      10.990  10.683  23.463  0.00  0.00    +0.005 C 
ENDBRANCH  17  20
ENDBRANCH   2  17
ENDBRANCH   6   2
BRANCH  18  21
ATOM     21  C   UNL     1      18.580   6.208  21.223  0.00  0.00    +0.014 C 
ATOM     23  C   UNL     1      19.755   5.801  20.728  0.00  0.00    +0.008 C 
BRANCH  23  24
ATOM      1 CL   UNL     1      24.293   3.709  23.987  0.00  0.00    -0.084 Cl
ATOM     24  C   UNL     1      20.876   5.284  21.533  0.00  0.00    -0.025 A 
ATOM     25  C   UNL     1      21.425   4.050  21.220  0.00  0.00    +0.009 A 
ATOM     26  C   UNL     1      21.360   6.042  22.587  0.00  0.00    +0.009 A 
ATOM     27  C   UNL     1      22.485   3.561  21.983  0.00  0.00    +0.020 A 
ATOM     28  C   UNL     1      22.421   5.553  23.349  0.00  0.00    +0.020 A 
ATOM     29  C   UNL     1      22.983   4.313  23.048  0.00  0.00    +0.041 A 
ENDBRANCH  23  24
ENDBRANCH  18  21
TORSDOF 5
ENDMDL
MODEL 2
REMARK VINA RESULT:      -7.4      2.541      4.220
REMARK  Name = 7143919
REMARK  6 active torsions:
REMARK  status: ('A' for Active; 'I' for Inactive)
REMARK    1  A    between atoms: S_2  and  N_6
REMARK    2  A    between atoms: S_2  and  C_17
REMARK    3  A    between atoms: C_17  and  C_20
REMARK    4  A    between atoms: C_18  and  C_21
REMARK    5  A    between atoms: C_20  and  C_22
REMARK    6  A    between atoms: C_23  and  C_24
REMARK                            x       y       z     vdW  Elec       q    Type
REMARK                         _______ _______ _______ _____ _____    ______ ____
ROOT
ATOM      5  O   UNL     1      15.308   5.842  20.055  0.00  0.00    -0.267 OA
ATOM      6  N   UNL     1      12.970   9.327  17.381  0.00  0.00    -0.180 NA
ATOM      7  N   UNL     1      14.318   7.945  19.885  0.00  0.00    -0.311 N 
ATOM      8  C   UNL     1      11.836   8.257  19.331  0.00  0.00    +0.025 C 
ATOM      9  C   UNL     1      13.264  10.225  19.682  0.00  0.00    +0.052 C 
ATOM     10  C   UNL     1      11.967   9.552  20.123  0.00  0.00    +0.017 C 
ATOM     11  C   UNL     1      11.777   8.550  17.823  0.00  0.00    +0.114 C 
ATOM     12  C   UNL     1      13.180  10.569  18.183  0.00  0.00    +0.118 C 
ATOM     13  C   UNL     1      12.997   7.326  19.701  0.00  0.00    +0.130 C 
ATOM     14  C   UNL     1      14.461   9.333  19.953  0.00  0.00    +0.026 A 
ATOM     15  C   UNL     1      15.658   9.872  20.236  0.00  0.00    +0.022 A 
ATOM     16  C   UNL     1      15.403   7.070  20.089  0.00  0.00    +0.259 A 
ATOM     18  C   UNL     1      16.738   7.705  20.378  0.00  0.00    +0.040 A 
ATOM     19  C   UNL     1      16.809   9.042  20.448  0.00  0.00    +0.015 A 
ENDROOT
BRANCH   6   2
ATOM      2  S   UNL     1      13.157   9.500  15.688  0.00  0.00    +0.032 S 
ATOM      3  O   UNL     1      11.861   9.771  15.103  0.00  0.00    -0.158 OA
ATOM      4  O   UNL     1      14.003   8.432  15.201  0.00  0.00    -0.158 OA
BRANCH   2  17
ATOM     17  C   UNL     1      14.097  11.004  15.658  0.00  0.00    +0.185 C 
BRANCH  17  20
ATOM     20  C   UNL     1      15.402  10.825  14.900  0.00  0.00    +0.021 C 
ATOM     22  C   UNL     1      16.369  11.963  15.180  0.00  0.00    +0.005 C 
ENDBRANCH  17  20
ENDBRANCH   2  17
ENDBRANCH   6   2
BRANCH  18  21
ATOM     21  C   UNL     1      17.900   6.877  20.583  0.00  0.00    +0.014 C 
ATOM     23  C   UNL     1      18.815   7.130  21.526  0.00  0.00    +0.008 C 
BRANCH  23  24
ATOM      1 CL   UNL     1      23.700   3.848  22.506  0.00  0.00    -0.084 Cl
ATOM     24  C   UNL     1      20.022   6.319  21.768  0.00  0.00    -0.025 A 
ATOM     25  C   UNL     1      20.731   6.492  22.946  0.00  0.00    +0.009 A 
ATOM     26  C   UNL     1      20.425   5.400  20.813  0.00  0.00    +0.009 A 
ATOM     27  C   UNL     1      21.873   5.725  23.174  0.00  0.00    +0.020 A 
ATOM     28  C   UNL     1      21.567   4.632  21.042  0.00  0.00    +0.020 A 
ATOM     29  C   UNL     1      22.291   4.795  22.223  0.00  0.00    +0.041 A 
ENDBRANCH  23  24
ENDBRANCH  18  21
TORSDOF 5
ENDMDL
MODEL 3
REMARK VINA RESULT:      -7.3      1.876      3.520
REMARK  Name = 7143919
REMARK  6 active torsions:
REMARK  status: ('A' for Active; 'I' for Inactive)
REMARK    1  A    between atoms: S_2  and  N_6
REMARK    2  A    between atoms: S_2  and  C_17
REMARK    3  A    between atoms: C_17  and  C_20
REMARK    4  A    between atoms: C_18  and  C_21
REMARK    5  A    between atoms: C_20  and  C_22
REMARK    6  A    between atoms: C_23  and  C_24
REMARK                            x       y       z     vdW  Elec       q    Type
REMARK                         _______ _______ _______ _____ _____    ______ ____
ROOT
ATOM      5  O   UNL     1      15.388   7.234  22.266  0.00  0.00    -0.267 OA
ATOM      6  N   UNL     1      12.558   9.274  18.718  0.00  0.00    -0.180 NA
ATOM      7  N   UNL     1      14.404   9.103  21.278  0.00  0.00    -0.311 N 
ATOM      8  C   UNL     1      11.864   9.394  21.114  0.00  0.00    +0.025 C 
ATOM      9  C   UNL     1      13.351  11.116  20.189  0.00  0.00    +0.052 C 
ATOM     10  C   UNL     1      12.175  10.885  21.134  0.00  0.00    +0.017 C 
ATOM     11  C   UNL     1      11.482   8.941  19.695  0.00  0.00    +0.114 C 
ATOM     12  C   UNL     1      12.948  10.715  18.758  0.00  0.00    +0.118 C 
ATOM     13  C   UNL     1      13.070   8.625  21.668  0.00  0.00    +0.130 C 
ATOM     14  C   UNL     1      14.571  10.330  20.633  0.00  0.00    +0.026 A 
ATOM     15  C   UNL     1      15.805  10.798  20.390  0.00  0.00    +0.022 A 
ATOM     16  C   UNL     1      15.500   8.312  21.678  0.00  0.00    +0.259 A 
ATOM     18  C   UNL     1      16.872   8.852  21.368  0.00  0.00    +0.040 A 
ATOM     19  C   UNL     1      16.968  10.044  20.763  0.00  0.00    +0.015 A 
ENDROOT
BRANCH   6   2
ATOM      2  S   UNL     1      12.373   8.601  17.155  0.00  0.00    +0.032 S 
ATOM      3  O   UNL     1      12.474   9.662  16.177  0.00  0.00    -0.158 OA
ATOM      4  O   UNL     1      11.253   7.685  17.171  0.00  0.00    -0.158 OA
BRANCH   2  17
ATOM     17  C   UNL     1      13.865   7.643  17.081  0.00  0.00    +0.185 C 
BRANCH  17  20
ATOM     20  C   UNL     1      14.709   7.838  18.329  0.00  0.00    +0.021 C 
ATOM     22  C   UNL     1      15.553   6.610  18.626  0.00  0.00    +0.005 C 
ENDBRANCH  17  20
ENDBRANCH   2  17
ENDBRANCH   6   2
BRANCH  18  21
ATOM     21  C   UNL     1      18.042   8.094  21.731  0.00  0.00    +0.014 C 
ATOM     23  C   UNL     1      18.503   7.073  20.998  0.00  0.00    +0.008 C 
BRANCH  23  24
ATOM      1 CL   UNL     1      23.303   3.797  22.346  0.00  0.00    -0.084 Cl
ATOM     24  C   UNL     1      19.689   6.264  21.331  0.00  0.00    -0.025 A 
ATOM     25  C   UNL     1      20.132   5.307  20.431  0.00  0.00    +0.009 A 
ATOM     26  C   UNL     1      20.337   6.475  22.537  0.00  0.00    +0.009 A 
ATOM     27  C   UNL     1      21.254   4.541  20.748  0.00  0.00    +0.020 A 
ATOM     28  C   UNL     1      21.459   5.708  22.853  0.00  0.00    +0.020 A 
ATOM     29  C   UNL     1      21.918   4.742  21.958  0.00  0.00    +0.041 A 
ENDBRANCH  23  24
ENDBRANCH  18  21
TORSDOF 5
ENDMDL
MODEL 4
REMARK VINA RESULT:      -7.1     27.799     30.354
REMARK  Name = 7143919
REMARK  6 active torsions:
REMARK  status: ('A' for Active; 'I' for Inactive)
REMARK    1  A    between atoms: S_2  and  N_6
REMARK    2  A    between atoms: S_2  and  C_17
REMARK    3  A    between atoms: C_17  and  C_20
REMARK    4  A    between atoms: C_18  and  C_21
REMARK    5  A    between atoms: C_20  and  C_22
REMARK    6  A    between atoms: C_23  and  C_24
REMARK                            x       y       z     vdW  Elec       q    Type
REMARK                         _______ _______ _______ _____ _____    ______ ____
ROOT
ATOM      5  O   UNL     1      -6.623  -9.990  14.125  0.00  0.00    -0.267 OA
ATOM      6  N   UNL     1      -2.868 -13.130  13.230  0.00  0.00    -0.180 NA
ATOM      7  N   UNL     1      -4.345 -10.484  14.130  0.00  0.00    -0.311 N 
ATOM      8  C   UNL     1      -3.039 -10.975  11.981  0.00  0.00    +0.025 C 
ATOM      9  C   UNL     1      -1.887 -11.038  14.149  0.00  0.00    +0.052 C 
ATOM     10  C   UNL     1      -1.844 -10.430  12.750  0.00  0.00    +0.017 C 
ATOM     11  C   UNL     1      -2.962 -12.508  11.879  0.00  0.00    +0.114 C 
ATOM     12  C   UNL     1      -1.753 -12.569  14.049  0.00  0.00    +0.118 C 
ATOM     13  C   UNL     1      -4.329 -10.499  12.660  0.00  0.00    +0.130 C 
ATOM     14  C   UNL     1      -3.172 -10.667  14.866  0.00  0.00    +0.026 A 
ATOM     15  C   UNL     1      -3.190 -10.535  16.201  0.00  0.00    +0.022 A 
ATOM     16  C   UNL     1      -5.575 -10.176  14.746  0.00  0.00    +0.259 A 
ATOM     18  C   UNL     1      -5.569 -10.062  16.247  0.00  0.00    +0.040 A 
ATOM     19  C   UNL     1      -4.408 -10.231  16.897  0.00  0.00    +0.015 A 
ENDROOT
BRANCH   6   2
ATOM      2  S   UNL     1      -3.032 -14.834  13.274  0.00  0.00    +0.032 S 
ATOM      3  O   UNL     1      -1.717 -15.425  13.390  0.00  0.00    -0.158 OA
ATOM      4  O   UNL     1      -3.960 -15.240  12.240  0.00  0.00    -0.158 OA
BRANCH   2  17
ATOM     17  C   UNL     1      -3.848 -15.001  14.841  0.00  0.00    +0.185 C 
BRANCH  17  20
ATOM     20  C   UNL     1      -4.957 -13.975  14.998  0.00  0.00    +0.021 C 
ATOM     22  C   UNL     1      -5.338 -13.787  16.457  0.00  0.00    +0.005 C 
ENDBRANCH  17  20
ENDBRANCH   2  17
ENDBRANCH   6   2
BRANCH  18  21
ATOM     21  C   UNL     1      -6.791  -9.766  16.952  0.00  0.00    +0.014 C 
ATOM     23  C   UNL     1      -7.555 -10.713  17.510  0.00  0.00    +0.008 C 
BRANCH  23  24
ATOM      1 CL   UNL     1     -12.657  -9.695  20.429  0.00  0.00    -0.084 Cl
ATOM     24  C   UNL     1      -8.815 -10.461  18.231  0.00  0.00    -0.025 A 
ATOM     25  C   UNL     1      -9.761  -9.618  17.671  0.00  0.00    +0.009 A 
ATOM     26  C   UNL     1      -9.030 -11.074  19.455  0.00  0.00    +0.009 A 
ATOM     27  C   UNL     1     -10.953  -9.379  18.354  0.00  0.00    +0.020 A 
ATOM     28  C   UNL     1     -10.223 -10.836  20.138  0.00  0.00    +0.020 A 
ATOM     29  C   UNL     1     -11.185  -9.988  19.588  0.00  0.00    +0.041 A 
ENDBRANCH  23  24
ENDBRANCH  18  21
TORSDOF 5
ENDMDL
MODEL 5
REMARK VINA RESULT:      -6.8     27.784     30.329
REMARK  Name = 7143919
REMARK  6 active torsions:
REMARK  status: ('A' for Active; 'I' for Inactive)
REMARK    1  A    between atoms: S_2  and  N_6
REMARK    2  A    between atoms: S_2  and  C_17
REMARK    3  A    between atoms: C_17  and  C_20
REMARK    4  A    between atoms: C_18  and  C_21
REMARK    5  A    between atoms: C_20  and  C_22
REMARK    6  A    between atoms: C_23  and  C_24
REMARK                            x       y       z     vdW  Elec       q    Type
REMARK                         _______ _______ _______ _____ _____    ______ ____
ROOT
ATOM      5  O   UNL     1      -4.947 -12.434  10.014  0.00  0.00    -0.267 OA
ATOM      6  N   UNL     1      -3.765 -11.757  14.801  0.00  0.00    -0.180 NA
ATOM      7  N   UNL     1      -3.366 -12.014  11.675  0.00  0.00    -0.311 N 
ATOM      8  C   UNL     1      -2.841 -13.699  13.532  0.00  0.00    +0.025 C 
ATOM      9  C   UNL     1      -1.670 -11.541  13.478  0.00  0.00    +0.052 C 
ATOM     10  C   UNL     1      -1.462 -13.052  13.537  0.00  0.00    +0.017 C 
ATOM     11  C   UNL     1      -3.656 -13.243  14.754  0.00  0.00    +0.114 C 
ATOM     12  C   UNL     1      -2.437 -11.078  14.730  0.00  0.00    +0.118 C 
ATOM     13  C   UNL     1      -3.541 -13.373  12.207  0.00  0.00    +0.130 C 
ATOM     14  C   UNL     1      -2.422 -11.142  12.221  0.00  0.00    +0.026 A 
ATOM     15  C   UNL     1      -2.198  -9.949  11.647  0.00  0.00    +0.022 A 
ATOM     16  C   UNL     1      -4.120 -11.681  10.532  0.00  0.00    +0.259 A 
ATOM     18  C   UNL     1      -3.866 -10.325   9.927  0.00  0.00    +0.040 A 
ATOM     19  C   UNL     1      -2.934  -9.540  10.486  0.00  0.00    +0.015 A 
ENDROOT
BRANCH   6   2
ATOM      2  S   UNL     1      -4.855 -11.130  15.962  0.00  0.00    +0.032 S 
ATOM      3  O   UNL     1      -4.100 -10.428  16.977  0.00  0.00    -0.158 OA
ATOM      4  O   UNL     1      -5.815 -12.158  16.303  0.00  0.00    -0.158 OA
BRANCH   2  17
ATOM     17  C   UNL     1      -5.678  -9.922  14.956  0.00  0.00    +0.185 C 
BRANCH  17  20
ATOM     20  C   UNL     1      -5.923 -10.447  13.552  0.00  0.00    +0.021 C 
ATOM     22  C   UNL     1      -6.213  -9.316  12.579  0.00  0.00    +0.005 C 
ENDBRANCH  17  20
ENDBRANCH   2  17
ENDBRANCH   6   2
BRANCH  18  21
ATOM     21  C   UNL     1      -4.610  -9.904   8.767  0.00  0.00    +0.014 C 
ATOM     23  C   UNL     1      -5.810  -9.316   8.847  0.00  0.00    +0.008 C 
BRANCH  23  24
ATOM      1 CL   UNL     1      -9.056  -7.535   4.169  0.00  0.00    -0.084 Cl
ATOM     24  C   UNL     1      -6.612  -8.876   7.692  0.00  0.00    -0.025 A 
ATOM     25  C   UNL     1      -7.565  -7.886   7.865  0.00  0.00    +0.009 A 
ATOM     26  C   UNL     1      -6.396  -9.461   6.454  0.00  0.00    +0.009 A 
ATOM     27  C   UNL     1      -8.325  -7.471   6.771  0.00  0.00    +0.020 A 
ATOM     28  C   UNL     1      -7.155  -9.045   5.360  0.00  0.00    +0.020 A 
ATOM     29  C   UNL     1      -8.120  -8.050   5.519  0.00  0.00    +0.041 A 
ENDBRANCH  23  24
ENDBRANCH  18  21
TORSDOF 5
ENDMDL
MODEL 6
REMARK VINA RESULT:      -6.7     27.899     30.246
REMARK  Name = 7143919
REMARK  6 active torsions:
REMARK  status: ('A' for Active; 'I' for Inactive)
REMARK    1  A    between atoms: S_2  and  N_6
REMARK    2  A    between atoms: S_2  and  C_17
REMARK    3  A    between atoms: C_17  and  C_20
REMARK    4  A    between atoms: C_18  and  C_21
REMARK    5  A    between atoms: C_20  and  C_22
REMARK    6  A    between atoms: C_23  and  C_24
REMARK                            x       y       z     vdW  Elec       q    Type
REMARK                         _______ _______ _______ _____ _____    ______ ____
ROOT
ATOM      5  O   UNL     1     -14.611   9.571  20.261  0.00  0.00    -0.267 OA
ATOM      6  N   UNL     1     -11.585   9.667  16.312  0.00  0.00    -0.180 NA
ATOM      7  N   UNL     1     -12.468   9.670  19.347  0.00  0.00    -0.311 N 
ATOM      8  C   UNL     1     -11.691  11.614  17.872  0.00  0.00    +0.025 C 
ATOM      9  C   UNL     1     -10.158   9.756  18.347  0.00  0.00    +0.052 C 
ATOM     10  C   UNL     1     -10.303  11.274  18.398  0.00  0.00    +0.017 C 
ATOM     11  C   UNL     1     -11.852  11.130  16.421  0.00  0.00    +0.114 C 
ATOM     12  C   UNL     1     -10.263   9.278  16.887  0.00  0.00    +0.118 C 
ATOM     13  C   UNL     1     -12.743  11.010  18.810  0.00  0.00    +0.130 C 
ATOM     14  C   UNL     1     -11.212   9.077  19.201  0.00  0.00    +0.026 A 
ATOM     15  C   UNL     1     -10.950   7.904  19.799  0.00  0.00    +0.022 A 
ATOM     16  C   UNL     1     -13.498   9.066  20.097  0.00  0.00    +0.259 A 
ATOM     18  C   UNL     1     -13.182   7.738  20.732  0.00  0.00    +0.040 A 
ATOM     19  C   UNL     1     -11.952   7.228  20.571  0.00  0.00    +0.015 A 
ENDROOT
BRANCH   6   2
ATOM      2  S   UNL     1     -11.976   8.953  14.806  0.00  0.00    +0.032 S 
ATOM      3  O   UNL     1     -11.950   9.977  13.785  0.00  0.00    -0.158 OA
ATOM      4  O   UNL     1     -13.120   8.085  14.985  0.00  0.00    -0.158 OA
BRANCH   2  17
ATOM     17  C   UNL     1     -10.540   7.932  14.595  0.00  0.00    +0.185 C 
BRANCH  17  20
ATOM     20  C   UNL     1     -10.648   7.080  13.342  0.00  0.00    +0.021 C 
ATOM     22  C   UNL     1      -9.782   7.628  12.220  0.00  0.00    +0.005 C 
ENDBRANCH  17  20
ENDBRANCH   2  17
ENDBRANCH   6   2
BRANCH  18  21
ATOM     21  C   UNL     1     -14.188   7.050  21.501  0.00  0.00    +0.014 C 
ATOM     23  C   UNL     1     -14.041   5.790  21.929  0.00  0.00    +0.008 C 
BRANCH  23  24
ATOM      1 CL   UNL     1     -18.097   2.764  25.088  0.00  0.00    -0.084 Cl
ATOM     24  C   UNL     1     -15.043   5.043  22.709  0.00  0.00    -0.025 A 
ATOM     25  C   UNL     1     -14.658   4.414  23.883  0.00  0.00    +0.009 A 
ATOM     26  C   UNL     1     -16.350   4.983  22.255  0.00  0.00    +0.009 A 
ATOM     27  C   UNL     1     -15.606   3.705  24.620  0.00  0.00    +0.020 A 
ATOM     28  C   UNL     1     -17.299   4.275  22.994  0.00  0.00    +0.020 A 
ATOM     29  C   UNL     1     -16.927   3.636  24.176  0.00  0.00    +0.041 A 
ENDBRANCH  23  24
ENDBRANCH  18  21
TORSDOF 5
ENDMDL
MODEL 7
REMARK VINA RESULT:      -6.7     27.753     30.296
REMARK  Name = 7143919
REMARK  6 active torsions:
REMARK  status: ('A' for Active; 'I' for Inactive)
REMARK    1  A    between atoms: S_2  and  N_6
REMARK    2  A    between atoms: S_2  and  C_17
REMARK    3  A    between atoms: C_17  and  C_20
REMARK    4  A    between atoms: C_18  and  C_21
REMARK    5  A    between atoms: C_20  and  C_22
REMARK    6  A    between atoms: C_23  and  C_24
REMARK                            x       y       z     vdW  Elec       q    Type
REMARK                         _______ _______ _______ _____ _____    ______ ____
ROOT
ATOM      5  O   UNL     1     -14.653   9.564  19.858  0.00  0.00    -0.267 OA
ATOM      6  N   UNL     1     -11.431   9.884  16.078  0.00  0.00    -0.180 NA
ATOM      7  N   UNL     1     -12.477   9.818  19.061  0.00  0.00    -0.311 N 
ATOM      8  C   UNL     1     -11.763  11.816  17.625  0.00  0.00    +0.025 C 
ATOM      9  C   UNL     1     -10.127  10.072  18.188  0.00  0.00    +0.052 C 
ATOM     10  C   UNL     1     -10.384  11.576  18.227  0.00  0.00    +0.017 C 
ATOM     11  C   UNL     1     -11.809  11.323  16.169  0.00  0.00    +0.114 C 
ATOM     12  C   UNL     1     -10.118   9.590  16.725  0.00  0.00    +0.118 C 
ATOM     13  C   UNL     1     -12.818  11.137  18.507  0.00  0.00    +0.130 C 
ATOM     14  C   UNL     1     -11.175   9.318  18.985  0.00  0.00    +0.026 A 
ATOM     15  C   UNL     1     -10.861   8.166  19.599  0.00  0.00    +0.022 A 
ATOM     16  C   UNL     1     -13.499   9.141  19.756  0.00  0.00    +0.259 A 
ATOM     18  C   UNL     1     -13.123   7.838  20.410  0.00  0.00    +0.040 A 
ATOM     19  C   UNL     1     -11.853   7.419  20.317  0.00  0.00    +0.015 A 
ENDROOT
BRANCH   6   2
ATOM      2  S   UNL     1     -11.688   9.145  14.555  0.00  0.00    +0.032 S 
ATOM      3  O   UNL     1     -10.843   7.974  14.459  0.00  0.00    -0.158 OA
ATOM      4  O   UNL     1     -11.687  10.171  13.534  0.00  0.00    -0.158 OA
BRANCH   2  17
ATOM     17  C   UNL     1     -13.360   8.598  14.783  0.00  0.00    +0.185 C 
BRANCH  17  20
ATOM     20  C   UNL     1     -13.607   8.160  16.217  0.00  0.00    +0.021 C 
ATOM     22  C   UNL     1     -15.090   8.165  16.552  0.00  0.00    +0.005 C 
ENDBRANCH  17  20
ENDBRANCH   2  17
ENDBRANCH   6   2
BRANCH  18  21
ATOM     21  C   UNL     1     -14.117   7.078  21.125  0.00  0.00    +0.014 C 
ATOM     23  C   UNL     1     -13.822   5.986  21.840  0.00  0.00    +0.008 C 
BRANCH  23  24
ATOM      1 CL   UNL     1     -17.792   2.691  24.835  0.00  0.00    -0.084 Cl
ATOM     24  C   UNL     1     -14.802   5.172  22.579  0.00  0.00    -0.025 A 
ATOM     25  C   UNL     1     -14.419   4.554  23.759  0.00  0.00    +0.009 A 
ATOM     26  C   UNL     1     -16.088   5.040  22.082  0.00  0.00    +0.009 A 
ATOM     27  C   UNL     1     -15.348   3.783  24.459  0.00  0.00    +0.020 A 
ATOM     28  C   UNL     1     -17.017   4.270  22.782  0.00  0.00    +0.020 A 
ATOM     29  C   UNL     1     -16.647   3.641  23.970  0.00  0.00    +0.041 A 
ENDBRANCH  23  24
ENDBRANCH  18  21
TORSDOF 5
ENDMDL
MODEL 8
REMARK VINA RESULT:      -6.6     27.569     29.834
REMARK  Name = 7143919
REMARK  6 active torsions:
REMARK  status: ('A' for Active; 'I' for Inactive)
REMARK    1  A    between atoms: S_2  and  N_6
REMARK    2  A    between atoms: S_2  and  C_17
REMARK    3  A    between atoms: C_17  and  C_20
REMARK    4  A    between atoms: C_18  and  C_21
REMARK    5  A    between atoms: C_20  and  C_22
REMARK    6  A    between atoms: C_23  and  C_24
REMARK                            x       y       z     vdW  Elec       q    Type
REMARK                         _______ _______ _______ _____ _____    ______ ____
ROOT
ATOM      5  O   UNL     1     -12.189  10.008  20.777  0.00  0.00    -0.267 OA
ATOM      6  N   UNL     1     -12.302  11.299  15.972  0.00  0.00    -0.180 NA
ATOM      7  N   UNL     1     -11.181  10.107  18.677  0.00  0.00    -0.311 N 
ATOM      8  C   UNL     1     -10.631  12.325  17.518  0.00  0.00    +0.025 C 
ATOM      9  C   UNL     1     -10.111  10.202  16.398  0.00  0.00    +0.052 C 
ATOM     10  C   UNL     1      -9.517  11.534  16.845  0.00  0.00    +0.017 C 
ATOM     11  C   UNL     1     -11.783  12.580  16.533  0.00  0.00    +0.114 C 
ATOM     12  C   UNL     1     -11.228  10.456  15.368  0.00  0.00    +0.118 C 
ATOM     13  C   UNL     1     -11.090  11.571  18.773  0.00  0.00    +0.130 C 
ATOM     14  C   UNL     1     -10.653   9.421  17.581  0.00  0.00    +0.026 A 
ATOM     15  C   UNL     1     -10.645   8.079  17.569  0.00  0.00    +0.022 A 
ATOM     16  C   UNL     1     -11.732   9.434  19.786  0.00  0.00    +0.259 A 
ATOM     18  C   UNL     1     -11.734   7.929  19.731  0.00  0.00    +0.040 A 
ATOM     19  C   UNL     1     -11.196   7.328  18.660  0.00  0.00    +0.015 A 
ENDROOT
BRANCH   6   2
ATOM      2  S   UNL     1     -13.747  11.421  15.062  0.00  0.00    +0.032 S 
ATOM      3  O   UNL     1     -13.593  10.658  13.842  0.00  0.00    -0.158 OA
ATOM      4  O   UNL     1     -14.173  12.804  15.046  0.00  0.00    -0.158 OA
BRANCH   2  17
ATOM     17  C   UNL     1     -14.836  10.522  16.136  0.00  0.00    +0.185 C 
BRANCH  17  20
ATOM     20  C   UNL     1     -14.557   9.029  16.083  0.00  0.00    +0.021 C 
ATOM     22  C   UNL     1     -14.540   8.417  17.473  0.00  0.00    +0.005 C 
ENDBRANCH  17  20
ENDBRANCH   2  17
ENDBRANCH   6   2
BRANCH  18  21
ATOM     21  C   UNL     1     -12.295   7.170  20.820  0.00  0.00    +0.014 C 
ATOM     23  C   UNL     1     -13.600   6.884  20.910  0.00  0.00    +0.008 C 
BRANCH  23  24
ATOM      1 CL   UNL     1     -16.115   3.791  25.348  0.00  0.00    -0.084 Cl
ATOM     24  C   UNL     1     -14.221   6.120  22.006  0.00  0.00    -0.025 A 
ATOM     25  C   UNL     1     -13.519   5.077  22.589  0.00  0.00    +0.009 A 
ATOM     26  C   UNL     1     -15.495   6.459  22.432  0.00  0.00    +0.009 A 
ATOM     27  C   UNL     1     -14.108   4.354  23.626  0.00  0.00    +0.020 A 
ATOM     28  C   UNL     1     -16.083   5.736  23.470  0.00  0.00    +0.020 A 
ATOM     29  C   UNL     1     -15.390   4.683  24.067  0.00  0.00    +0.041 A 
ENDBRANCH  23  24
ENDBRANCH  18  21
TORSDOF 5
ENDMDL
MODEL 9
REMARK VINA RESULT:      -6.6     17.153     20.129
REMARK  Name = 7143919
REMARK  6 active torsions:
REMARK  status: ('A' for Active; 'I' for Inactive)
REMARK    1  A    between atoms: S_2  and  N_6
REMARK    2  A    between atoms: S_2  and  C_17
REMARK    3  A    between atoms: C_17  and  C_20
REMARK    4  A    between atoms: C_18  and  C_21
REMARK    5  A    between atoms: C_20  and  C_22
REMARK    6  A    between atoms: C_23  and  C_24
REMARK                            x       y       z     vdW  Elec       q    Type
REMARK                         _______ _______ _______ _____ _____    ______ ____
ROOT
ATOM      5  O   UNL     1       9.354   7.464   1.773  0.00  0.00    -0.267 OA
ATOM      6  N   UNL     1      11.412   7.913   6.282  0.00  0.00    -0.180 NA
ATOM      7  N   UNL     1       9.610   6.728   3.970  0.00  0.00    -0.311 N 
ATOM      8  C   UNL     1       8.945   8.161   5.987  0.00  0.00    +0.025 C 
ATOM      9  C   UNL     1       9.910   5.931   6.342  0.00  0.00    +0.052 C 
ATOM     10  C   UNL     1       8.722   6.826   6.685  0.00  0.00    +0.017 C 
ATOM     11  C   UNL     1      10.244   8.818   6.480  0.00  0.00    +0.114 C 
ATOM     12  C   UNL     1      11.205   6.563   6.886  0.00  0.00    +0.118 C 
ATOM     13  C   UNL     1       8.941   7.938   4.470  0.00  0.00    +0.130 C 
ATOM     14  C   UNL     1      10.018   5.717   4.843  0.00  0.00    +0.026 A 
ATOM     15  C   UNL     1      10.520   4.571   4.356  0.00  0.00    +0.022 A 
ATOM     16  C   UNL     1       9.722   6.599   2.571  0.00  0.00    +0.259 A 
ATOM     18  C   UNL     1      10.315   5.314   2.056  0.00  0.00    +0.040 A 
ATOM     19  C   UNL     1      10.671   4.374   2.943  0.00  0.00    +0.015 A 
ENDROOT
BRANCH   6   2
ATOM      2  S   UNL     1      12.949   8.616   6.552  0.00  0.00    +0.032 S 
ATOM      3  O   UNL     1      13.878   7.572   6.926  0.00  0.00    -0.158 OA
ATOM      4  O   UNL     1      12.782   9.809   7.352  0.00  0.00    -0.158 OA
BRANCH   2  17
ATOM     17  C   UNL     1      13.327   9.116   4.892  0.00  0.00    +0.185 C 
BRANCH  17  20
ATOM     20  C   UNL     1      12.644   8.218   3.875  0.00  0.00    +0.021 C 
ATOM     22  C   UNL     1      13.542   7.066   3.458  0.00  0.00    +0.005 C 
ENDBRANCH  17  20
ENDBRANCH   2  17
ENDBRANCH   6   2
BRANCH  18  21
ATOM     21  C   UNL     1      10.477   5.114   0.638  0.00  0.00    +0.014 C 
ATOM     23  C   UNL     1      11.136   4.069   0.123  0.00  0.00    +0.008 C 
BRANCH  23  24
ATOM      1 CL   UNL     1      11.947   3.086  -5.705  0.00  0.00    -0.084 Cl
ATOM     24  C   UNL     1      11.336   3.826  -1.316  0.00  0.00    -0.025 A 
ATOM     25  C   UNL     1      10.636   4.589  -2.237  0.00  0.00    +0.009 A 
ATOM     26  C   UNL     1      12.221   2.840  -1.722  0.00  0.00    +0.009 A 
ATOM     27  C   UNL     1      10.826   4.358  -3.600  0.00  0.00    +0.020 A 
ATOM     28  C   UNL     1      12.410   2.610  -3.084  0.00  0.00    +0.020 A 
ATOM     29  C   UNL     1      11.713   3.369  -4.024  0.00  0.00    +0.041 A 
ENDBRANCH  23  24
ENDBRANCH  18  21
TORSDOF 5
ENDMDL
MODEL 10
REMARK VINA RESULT:      -6.6     28.265     30.420
REMARK  Name = 7143919
REMARK  6 active torsions:
REMARK  status: ('A' for Active; 'I' for Inactive)
REMARK    1  A    between atoms: S_2  and  N_6
REMARK    2  A    between atoms: S_2  and  C_17
REMARK    3  A    between atoms: C_17  and  C_20
REMARK    4  A    between atoms: C_18  and  C_21
REMARK    5  A    between atoms: C_20  and  C_22
REMARK    6  A    between atoms: C_23  and  C_24
REMARK                            x       y       z     vdW  Elec       q    Type
REMARK                         _______ _______ _______ _____ _____    ______ ____
ROOT
ATOM      5  O   UNL     1      -4.509 -12.894   9.810  0.00  0.00    -0.267 OA
ATOM      6  N   UNL     1      -3.689 -12.792  14.717  0.00  0.00    -0.180 NA
ATOM      7  N   UNL     1      -3.086 -12.549  11.623  0.00  0.00    -0.311 N 
ATOM      8  C   UNL     1      -2.471 -14.417  13.265  0.00  0.00    +0.025 C 
ATOM      9  C   UNL     1      -1.564 -12.158  13.593  0.00  0.00    +0.052 C 
ATOM     10  C   UNL     1      -1.182 -13.630  13.459  0.00  0.00    +0.017 C 
ATOM     11  C   UNL     1      -3.402 -14.235  14.475  0.00  0.00    +0.114 C 
ATOM     12  C   UNL     1      -2.450 -11.968  14.838  0.00  0.00    +0.118 C 
ATOM     13  C   UNL     1      -3.129 -13.981  11.950  0.00  0.00    +0.130 C 
ATOM     14  C   UNL     1      -2.285 -11.666  12.352  0.00  0.00    +0.026 A 
ATOM     15  C   UNL     1      -2.172 -10.386  11.964  0.00  0.00    +0.022 A 
ATOM     16  C   UNL     1      -3.809 -12.138  10.485  0.00  0.00    +0.259 A 
ATOM     18  C   UNL     1      -3.684 -10.689  10.092  0.00  0.00    +0.040 A 
ATOM     19  C   UNL     1      -2.885  -9.896  10.820  0.00  0.00    +0.015 A 
ENDROOT
BRANCH   6   2
ATOM      2  S   UNL     1      -4.911 -12.463  15.871  0.00  0.00    +0.032 S 
ATOM      3  O   UNL     1      -5.139 -13.655  16.659  0.00  0.00    -0.158 OA
ATOM      4  O   UNL     1      -5.996 -11.765  15.215  0.00  0.00    -0.158 OA
BRANCH   2  17
ATOM     17  C   UNL     1      -4.038 -11.296  16.883  0.00  0.00    +0.185 C 
BRANCH  17  20
ATOM     20  C   UNL     1      -4.312 -11.531  18.359  0.00  0.00    +0.021 C 
ATOM     22  C   UNL     1      -5.523 -10.743  18.832  0.00  0.00    +0.005 C 
ENDBRANCH  17  20
ENDBRANCH   2  17
ENDBRANCH   6   2
BRANCH  18  21
ATOM     21  C   UNL     1      -4.405 -10.189   8.949  0.00  0.00    +0.014 C 
ATOM     23  C   UNL     1      -5.634  -9.665   9.038  0.00  0.00    +0.008 C 
BRANCH  23  24
ATOM      1 CL   UNL     1      -8.794  -7.578   4.429  0.00  0.00    -0.084 Cl
ATOM     24  C   UNL     1      -6.414  -9.149   7.900  0.00  0.00    -0.025 A 
ATOM     25  C   UNL     1      -6.152  -9.626   6.625  0.00  0.00    +0.009 A 
ATOM     26  C   UNL     1      -7.396  -8.198   8.125  0.00  0.00    +0.009 A 
ATOM     27  C   UNL     1      -6.890  -9.137   5.548  0.00  0.00    +0.020 A 
ATOM     28  C   UNL     1      -8.135  -7.710   7.047  0.00  0.00    +0.020 A 
ATOM     29  C   UNL     1      -7.882  -8.179   5.759  0.00  0.00    +0.041 A 
ENDBRANCH  23  24
ENDBRANCH  18  21
TORSDOF 5
ENDMDL
