MODEL 1
REMARK VINA RESULT:      -7.2      0.000      0.000
REMARK  Name = 75536644
REMARK  9 active torsions:
REMARK  status: ('A' for Active; 'I' for Inactive)
REMARK    1  A    between atoms: S_1  and  C_20
REMARK    2  A    between atoms: S_1  and  C_26
REMARK    3  A    between atoms: O_4  and  C_11
REMARK    4  A    between atoms: N_8  and  C_10
REMARK    5  A    between atoms: N_8  and  C_15
REMARK    6  A    between atoms: N_9  and  C_14
REMARK    7  A    between atoms: C_12  and  C_14
REMARK    8  A    between atoms: C_15  and  C_16
REMARK    9  A    between atoms: C_17  and  C_23
REMARK                            x       y       z     vdW  Elec       q    Type
REMARK                         _______ _______ _______ _____ _____    ______ ____
ROOT
ATOM      3  O   UNL     1      10.973   8.295  20.013  0.00  0.00    -0.371 OA
ATOM     10  C   UNL     1      12.611   6.586  19.979  0.00  0.00    +0.111 C 
ATOM     11  C   UNL     1      11.758   6.390  21.221  0.00  0.00    +0.164 C 
ATOM     12  C   UNL     1      10.880   7.639  21.292  0.00  0.00    +0.165 C 
ATOM     13  C   UNL     1      11.711   7.456  19.117  0.00  0.00    +0.181 C 
ENDROOT
BRANCH  11   4
ATOM      4  O   UNL     1      10.927   5.247  21.003  0.00  0.00    -0.388 OA
ATOM     31  H   UNL     1      11.408   4.472  21.337  0.00  0.00    +0.210 HD
ENDBRANCH  11   4
BRANCH  10   8
ATOM      8  N   UNL     1      13.860   7.278  20.287  0.00  0.00    -0.305 NA
ATOM     30  H   UNL     1      13.666   8.268  20.441  0.00  0.00    +0.123 HD
BRANCH   8  15
ATOM     15  C   UNL     1      14.811   7.158  19.188  0.00  0.00    +0.116 C 
BRANCH  15  16
ATOM     16  C   UNL     1      16.199   6.845  19.680  0.00  0.00    -0.033 A 
ATOM     18  C   UNL     1      16.993   5.927  18.992  0.00  0.00    +0.007 A 
ATOM     19  C   UNL     1      16.692   7.473  20.824  0.00  0.00    +0.007 A 
ATOM     20  C   UNL     1      18.772   6.265  20.591  0.00  0.00    +0.088 A 
ATOM     21  C   UNL     1      18.279   5.638  19.447  0.00  0.00    +0.027 A 
ATOM     22  C   UNL     1      17.978   7.183  21.279  0.00  0.00    +0.027 A 
BRANCH  20   1
ATOM      1  S   UNL     1      20.383   5.904  21.159  0.00  0.00    -0.006 S 
ATOM      6  O   UNL     1      20.392   5.953  22.615  0.00  0.00    -0.170 OA
ATOM      7  O   UNL     1      20.840   4.704  20.473  0.00  0.00    -0.170 OA
ATOM     26  C   UNL     1      21.370   7.269  20.589  0.00  0.00    +0.200 C 
ENDBRANCH  20   1
ENDBRANCH  15  16
ENDBRANCH   8  15
ENDBRANCH  10   8
BRANCH  12  14
ATOM     14  C   UNL     1      11.311   8.625  22.367  0.00  0.00    +0.138 C 
BRANCH  14   9
ATOM      5  O   UNL     1      12.131  11.140  21.252  0.00  0.00    -0.270 OA
ATOM      9  N   UNL     1      12.658   9.070  22.157  0.00  0.00    -0.309 N 
ATOM     17  C   UNL     1      12.964  10.312  21.608  0.00  0.00    +0.244 C 
ATOM     32  H   UNL     1      13.394   8.400  22.353  0.00  0.00    +0.149 HD
BRANCH  17  23
ATOM      2  F   UNL     1      18.423  11.447  20.944  0.00  0.00    -0.205 F 
ATOM     23  C   UNL     1      14.408  10.613  21.432  0.00  0.00    +0.037 A 
ATOM     24  C   UNL     1      15.248  10.677  22.545  0.00  0.00    +0.016 A 
ATOM     25  C   UNL     1      14.925  10.830  20.156  0.00  0.00    +0.016 A 
ATOM     27  C   UNL     1      16.604  10.959  22.380  0.00  0.00    +0.039 A 
ATOM     28  C   UNL     1      16.281  11.111  19.991  0.00  0.00    +0.039 A 
ATOM     29  C   UNL     1      17.121  11.176  21.104  0.00  0.00    +0.123 A 
ENDBRANCH  17  23
ENDBRANCH  14   9
ENDBRANCH  12  14
TORSDOF 8
ENDMDL
MODEL 2
REMARK VINA RESULT:      -7.0      4.126      6.484
REMARK  Name = 75536644
REMARK  9 active torsions:
REMARK  status: ('A' for Active; 'I' for Inactive)
REMARK    1  A    between atoms: S_1  and  C_20
REMARK    2  A    between atoms: S_1  and  C_26
REMARK    3  A    between atoms: O_4  and  C_11
REMARK    4  A    between atoms: N_8  and  C_10
REMARK    5  A    between atoms: N_8  and  C_15
REMARK    6  A    between atoms: N_9  and  C_14
REMARK    7  A    between atoms: C_12  and  C_14
REMARK    8  A    between atoms: C_15  and  C_16
REMARK    9  A    between atoms: C_17  and  C_23
REMARK                            x       y       z     vdW  Elec       q    Type
REMARK                         _______ _______ _______ _____ _____    ______ ____
ROOT
ATOM      3  O   UNL     1      12.980   8.558  22.343  0.00  0.00    -0.371 OA
ATOM     10  C   UNL     1      11.684   9.976  20.961  0.00  0.00    +0.111 C 
ATOM     11  C   UNL     1      10.824   8.783  21.341  0.00  0.00    +0.164 C 
ATOM     12  C   UNL     1      11.783   7.817  22.038  0.00  0.00    +0.165 C 
ATOM     13  C   UNL     1      12.761   9.939  22.032  0.00  0.00    +0.181 C 
ENDROOT
BRANCH  11   4
ATOM      4  O   UNL     1       9.848   9.232  22.284  0.00  0.00    -0.388 OA
ATOM     31  H   UNL     1       9.634  10.154  22.063  0.00  0.00    +0.210 HD
ENDBRANCH  11   4
BRANCH  10   8
ATOM      8  N   UNL     1      12.269   9.817  19.632  0.00  0.00    -0.305 NA
ATOM     30  H   UNL     1      12.529   8.839  19.494  0.00  0.00    +0.123 HD
BRANCH   8  15
ATOM     15  C   UNL     1      13.464  10.639  19.483  0.00  0.00    +0.116 C 
BRANCH  15  16
ATOM     16  C   UNL     1      13.707  11.018  18.046  0.00  0.00    -0.033 A 
ATOM     18  C   UNL     1      14.217  12.279  17.734  0.00  0.00    +0.007 A 
ATOM     19  C   UNL     1      13.421  10.110  17.026  0.00  0.00    +0.007 A 
ATOM     20  C   UNL     1      14.157  11.722  15.384  0.00  0.00    +0.088 A 
ATOM     21  C   UNL     1      14.442  12.630  16.403  0.00  0.00    +0.027 A 
ATOM     22  C   UNL     1      13.647  10.462  15.696  0.00  0.00    +0.027 A 
BRANCH  20   1
ATOM      1  S   UNL     1      14.442  12.162  13.718  0.00  0.00    -0.006 S 
ATOM      6  O   UNL     1      15.731  11.626  13.302  0.00  0.00    -0.170 OA
ATOM      7  O   UNL     1      13.243  11.835  12.958  0.00  0.00    -0.170 OA
ATOM     26  C   UNL     1      14.603  13.932  13.749  0.00  0.00    +0.200 C 
ENDBRANCH  20   1
ENDBRANCH  15  16
ENDBRANCH   8  15
ENDBRANCH  10   8
BRANCH  12  14
ATOM     14  C   UNL     1      12.167   6.619  21.184  0.00  0.00    +0.138 C 
BRANCH  14   9
ATOM      5  O   UNL     1      13.850   7.195  18.930  0.00  0.00    -0.270 OA
ATOM      9  N   UNL     1      13.592   6.462  21.116  0.00  0.00    -0.309 N 
ATOM     17  C   UNL     1      14.330   6.768  19.976  0.00  0.00    +0.244 C 
ATOM     32  H   UNL     1      14.040   6.035  21.919  0.00  0.00    +0.149 HD
BRANCH  17  23
ATOM      2  F   UNL     1      19.860   5.848  20.288  0.00  0.00    -0.205 F 
ATOM     23  C   UNL     1      15.793   6.525  20.058  0.00  0.00    +0.037 A 
ATOM     24  C   UNL     1      16.484   6.825  21.232  0.00  0.00    +0.016 A 
ATOM     25  C   UNL     1      16.475   5.996  18.963  0.00  0.00    +0.016 A 
ATOM     27  C   UNL     1      17.858   6.596  21.310  0.00  0.00    +0.039 A 
ATOM     28  C   UNL     1      17.849   5.768  19.041  0.00  0.00    +0.039 A 
ATOM     29  C   UNL     1      18.540   6.068  20.215  0.00  0.00    +0.123 A 
ENDBRANCH  17  23
ENDBRANCH  14   9
ENDBRANCH  12  14
TORSDOF 8
ENDMDL
MODEL 3
REMARK VINA RESULT:      -6.9      2.754      3.659
REMARK  Name = 75536644
REMARK  9 active torsions:
REMARK  status: ('A' for Active; 'I' for Inactive)
REMARK    1  A    between atoms: S_1  and  C_20
REMARK    2  A    between atoms: S_1  and  C_26
REMARK    3  A    between atoms: O_4  and  C_11
REMARK    4  A    between atoms: N_8  and  C_10
REMARK    5  A    between atoms: N_8  and  C_15
REMARK    6  A    between atoms: N_9  and  C_14
REMARK    7  A    between atoms: C_12  and  C_14
REMARK    8  A    between atoms: C_15  and  C_16
REMARK    9  A    between atoms: C_17  and  C_23
REMARK                            x       y       z     vdW  Elec       q    Type
REMARK                         _______ _______ _______ _____ _____    ______ ____
ROOT
ATOM      3  O   UNL     1      10.977   7.624  20.099  0.00  0.00    -0.371 OA
ATOM     10  C   UNL     1      13.178   7.442  20.951  0.00  0.00    +0.111 C 
ATOM     11  C   UNL     1      13.006   8.847  20.398  0.00  0.00    +0.164 C 
ATOM     12  C   UNL     1      11.659   8.820  19.676  0.00  0.00    +0.165 C 
ATOM     13  C   UNL     1      11.735   7.004  21.144  0.00  0.00    +0.181 C 
ENDROOT
BRANCH  11   4
ATOM      4  O   UNL     1      12.922   9.745  21.508  0.00  0.00    -0.388 OA
ATOM     31  H   UNL     1      13.644  10.389  21.414  0.00  0.00    +0.210 HD
ENDBRANCH  11   4
BRANCH  10   8
ATOM      8  N   UNL     1      13.861   6.569  20.000  0.00  0.00    -0.305 NA
ATOM     30  H   UNL     1      14.305   5.802  20.507  0.00  0.00    +0.123 HD
BRANCH   8  15
ATOM     15  C   UNL     1      14.891   7.296  19.267  0.00  0.00    +0.116 C 
BRANCH  15  16
ATOM     16  C   UNL     1      16.276   6.916  19.720  0.00  0.00    -0.033 A 
ATOM     18  C   UNL     1      16.973   5.905  19.059  0.00  0.00    +0.007 A 
ATOM     19  C   UNL     1      16.861   7.575  20.801  0.00  0.00    +0.007 A 
ATOM     20  C   UNL     1      18.842   6.212  20.560  0.00  0.00    +0.088 A 
ATOM     21  C   UNL     1      18.256   5.553  19.479  0.00  0.00    +0.027 A 
ATOM     22  C   UNL     1      18.144   7.224  21.221  0.00  0.00    +0.027 A 
BRANCH  20   1
ATOM      1  S   UNL     1      20.449   5.774  21.083  0.00  0.00    -0.006 S 
ATOM      6  O   UNL     1      20.491   5.786  22.539  0.00  0.00    -0.170 OA
ATOM      7  O   UNL     1      20.843   4.573  20.358  0.00  0.00    -0.170 OA
ATOM     26  C   UNL     1      21.477   7.112  20.524  0.00  0.00    +0.200 C 
ENDBRANCH  20   1
ENDBRANCH  15  16
ENDBRANCH   8  15
ENDBRANCH  10   8
BRANCH  12  14
ATOM     14  C   UNL     1      11.782   8.790  18.161  0.00  0.00    +0.138 C 
BRANCH  14   9
ATOM      5  O   UNL     1      12.925   8.837  15.528  0.00  0.00    -0.270 OA
ATOM      9  N   UNL     1      12.852   9.630  17.707  0.00  0.00    -0.309 N 
ATOM     17  C   UNL     1      13.345   9.586  16.406  0.00  0.00    +0.244 C 
ATOM     32  H   UNL     1      13.299  10.214  18.405  0.00  0.00    +0.149 HD
BRANCH  17  23
ATOM      2  F   UNL     1      17.608  13.052  15.250  0.00  0.00    -0.205 F 
ATOM     23  C   UNL     1      14.473  10.503  16.101  0.00  0.00    +0.037 A 
ATOM     24  C   UNL     1      15.116  10.429  14.865  0.00  0.00    +0.016 A 
ATOM     25  C   UNL     1      14.889  11.437  17.048  0.00  0.00    +0.016 A 
ATOM     27  C   UNL     1      16.175  11.290  14.577  0.00  0.00    +0.039 A 
ATOM     28  C   UNL     1      15.948  12.298  16.761  0.00  0.00    +0.039 A 
ATOM     29  C   UNL     1      16.591  12.224  15.525  0.00  0.00    +0.123 A 
ENDBRANCH  17  23
ENDBRANCH  14   9
ENDBRANCH  12  14
TORSDOF 8
ENDMDL
MODEL 4
REMARK VINA RESULT:      -6.8      3.848      6.294
REMARK  Name = 75536644
REMARK  9 active torsions:
REMARK  status: ('A' for Active; 'I' for Inactive)
REMARK    1  A    between atoms: S_1  and  C_20
REMARK    2  A    between atoms: S_1  and  C_26
REMARK    3  A    between atoms: O_4  and  C_11
REMARK    4  A    between atoms: N_8  and  C_10
REMARK    5  A    between atoms: N_8  and  C_15
REMARK    6  A    between atoms: N_9  and  C_14
REMARK    7  A    between atoms: C_12  and  C_14
REMARK    8  A    between atoms: C_15  and  C_16
REMARK    9  A    between atoms: C_17  and  C_23
REMARK                            x       y       z     vdW  Elec       q    Type
REMARK                         _______ _______ _______ _____ _____    ______ ____
ROOT
ATOM      3  O   UNL     1      13.374   7.747  21.837  0.00  0.00    -0.371 OA
ATOM     10  C   UNL     1      11.267   7.974  20.784  0.00  0.00    +0.111 C 
ATOM     11  C   UNL     1      11.902   6.688  20.285  0.00  0.00    +0.164 C 
ATOM     12  C   UNL     1      13.330   6.721  20.828  0.00  0.00    +0.165 C 
ATOM     13  C   UNL     1      12.045   8.230  22.065  0.00  0.00    +0.181 C 
ENDROOT
BRANCH  11   4
ATOM      4  O   UNL     1      11.201   5.595  20.883  0.00  0.00    -0.388 OA
ATOM     31  H   UNL     1      11.126   4.896  20.211  0.00  0.00    +0.210 HD
ENDBRANCH  11   4
BRANCH  10   8
ATOM      8  N   UNL     1      11.453   9.070  19.837  0.00  0.00    -0.305 NA
ATOM     30  H   UNL     1      10.722   9.768  19.983  0.00  0.00    +0.123 HD
BRANCH   8  15
ATOM     15  C   UNL     1      11.372   8.595  18.461  0.00  0.00    +0.116 C 
BRANCH  15  16
ATOM     16  C   UNL     1      12.318   9.337  17.555  0.00  0.00    -0.033 A 
ATOM     18  C   UNL     1      12.181   9.237  16.170  0.00  0.00    +0.007 A 
ATOM     19  C   UNL     1      13.333  10.124  18.100  0.00  0.00    +0.007 A 
ATOM     20  C   UNL     1      14.072  10.712  15.876  0.00  0.00    +0.088 A 
ATOM     21  C   UNL     1      13.057   9.925  15.331  0.00  0.00    +0.027 A 
ATOM     22  C   UNL     1      14.209  10.812  17.261  0.00  0.00    +0.027 A 
BRANCH  20   1
ATOM      1  S   UNL     1      15.167  11.574  14.825  0.00  0.00    -0.006 S 
ATOM      6  O   UNL     1      16.379  11.895  15.566  0.00  0.00    -0.170 OA
ATOM      7  O   UNL     1      15.259  10.836  13.573  0.00  0.00    -0.170 OA
ATOM     26  C   UNL     1      14.342  13.114  14.492  0.00  0.00    +0.200 C 
ENDBRANCH  20   1
ENDBRANCH  15  16
ENDBRANCH   8  15
ENDBRANCH  10   8
BRANCH  12  14
ATOM     14  C   UNL     1      14.375   7.046  19.771  0.00  0.00    +0.138 C 
BRANCH  14   9
ATOM      5  O   UNL     1      16.608   5.677  18.595  0.00  0.00    -0.270 OA
ATOM      9  N   UNL     1      15.703   6.957  20.306  0.00  0.00    -0.309 N 
ATOM     17  C   UNL     1      16.729   6.269  19.664  0.00  0.00    +0.244 C 
ATOM     32  H   UNL     1      15.850   7.355  21.227  0.00  0.00    +0.149 HD
BRANCH  17  23
ATOM      2  F   UNL     1      21.688   6.192  22.295  0.00  0.00    -0.205 F 
ATOM     23  C   UNL     1      18.041   6.249  20.361  0.00  0.00    +0.037 A 
ATOM     24  C   UNL     1      19.046   5.383  19.928  0.00  0.00    +0.016 A 
ATOM     25  C   UNL     1      18.268   7.094  21.446  0.00  0.00    +0.016 A 
ATOM     27  C   UNL     1      20.278   5.364  20.582  0.00  0.00    +0.039 A 
ATOM     28  C   UNL     1      19.500   7.075  22.099  0.00  0.00    +0.039 A 
ATOM     29  C   UNL     1      20.506   6.210  21.667  0.00  0.00    +0.123 A 
ENDBRANCH  17  23
ENDBRANCH  14   9
ENDBRANCH  12  14
TORSDOF 8
ENDMDL
MODEL 5
REMARK VINA RESULT:      -6.6     31.654     33.249
REMARK  Name = 75536644
REMARK  9 active torsions:
REMARK  status: ('A' for Active; 'I' for Inactive)
REMARK    1  A    between atoms: S_1  and  C_20
REMARK    2  A    between atoms: S_1  and  C_26
REMARK    3  A    between atoms: O_4  and  C_11
REMARK    4  A    between atoms: N_8  and  C_10
REMARK    5  A    between atoms: N_8  and  C_15
REMARK    6  A    between atoms: N_9  and  C_14
REMARK    7  A    between atoms: C_12  and  C_14
REMARK    8  A    between atoms: C_15  and  C_16
REMARK    9  A    between atoms: C_17  and  C_23
REMARK                            x       y       z     vdW  Elec       q    Type
REMARK                         _______ _______ _______ _____ _____    ______ ____
ROOT
ATOM      3  O   UNL     1     -14.213   1.622  29.355  0.00  0.00    -0.371 OA
ATOM     10  C   UNL     1     -14.581   0.788  31.539  0.00  0.00    +0.111 C 
ATOM     11  C   UNL     1     -15.488   0.024  30.589  0.00  0.00    +0.164 C 
ATOM     12  C   UNL     1     -15.360   0.757  29.253  0.00  0.00    +0.165 C 
ATOM     13  C   UNL     1     -13.538   1.352  30.589  0.00  0.00    +0.181 C 
ENDROOT
BRANCH  11   4
ATOM      4  O   UNL     1     -14.957  -1.297  30.448  0.00  0.00    -0.388 OA
ATOM     31  H   UNL     1     -14.275  -1.263  29.756  0.00  0.00    +0.210 HD
ENDBRANCH  11   4
BRANCH  10   8
ATOM      8  N   UNL     1     -15.298   1.863  32.219  0.00  0.00    -0.305 NA
ATOM     30  H   UNL     1     -15.288   2.697  31.632  0.00  0.00    +0.123 HD
BRANCH   8  15
ATOM     15  C   UNL     1     -14.671   2.187  33.495  0.00  0.00    +0.116 C 
BRANCH  15  16
ATOM     16  C   UNL     1     -14.354   3.655  33.607  0.00  0.00    -0.033 A 
ATOM     18  C   UNL     1     -13.832   4.342  32.511  0.00  0.00    +0.007 A 
ATOM     19  C   UNL     1     -14.582   4.328  34.807  0.00  0.00    +0.007 A 
ATOM     20  C   UNL     1     -13.767   6.375  33.814  0.00  0.00    +0.088 A 
ATOM     21  C   UNL     1     -13.539   5.701  32.614  0.00  0.00    +0.027 A 
ATOM     22  C   UNL     1     -14.289   5.688  34.911  0.00  0.00    +0.027 A 
BRANCH  20   1
ATOM      1  S   UNL     1     -13.402   8.077  33.942  0.00  0.00    -0.006 S 
ATOM      6  O   UNL     1     -12.384   8.417  32.958  0.00  0.00    -0.170 OA
ATOM      7  O   UNL     1     -14.664   8.805  33.958  0.00  0.00    -0.170 OA
ATOM     26  C   UNL     1     -12.651   8.250  35.544  0.00  0.00    +0.200 C 
ENDBRANCH  20   1
ENDBRANCH  15  16
ENDBRANCH   8  15
ENDBRANCH  10   8
BRANCH  12  14
ATOM     14  C   UNL     1     -16.572   1.609  28.910  0.00  0.00    +0.138 C 
BRANCH  14   9
ATOM      5  O   UNL     1     -16.457   4.444  28.477  0.00  0.00    -0.270 OA
ATOM      9  N   UNL     1     -16.785   2.634  29.890  0.00  0.00    -0.309 N 
ATOM     17  C   UNL     1     -16.709   3.991  29.590  0.00  0.00    +0.244 C 
ATOM     32  H   UNL     1     -16.916   2.327  30.848  0.00  0.00    +0.149 HD
BRANCH  17  23
ATOM      2  F   UNL     1     -17.541   7.524  33.874  0.00  0.00    -0.205 F 
ATOM     23  C   UNL     1     -16.930   4.926  30.723  0.00  0.00    +0.037 A 
ATOM     24  C   UNL     1     -17.520   4.467  31.901  0.00  0.00    +0.016 A 
ATOM     25  C   UNL     1     -16.547   6.262  30.610  0.00  0.00    +0.016 A 
ATOM     27  C   UNL     1     -17.726   5.344  32.965  0.00  0.00    +0.039 A 
ATOM     28  C   UNL     1     -16.753   7.139  31.674  0.00  0.00    +0.039 A 
ATOM     29  C   UNL     1     -17.343   6.680  32.852  0.00  0.00    +0.123 A 
ENDBRANCH  17  23
ENDBRANCH  14   9
ENDBRANCH  12  14
TORSDOF 8
ENDMDL
MODEL 6
REMARK VINA RESULT:      -6.5      3.981      7.761
REMARK  Name = 75536644
REMARK  9 active torsions:
REMARK  status: ('A' for Active; 'I' for Inactive)
REMARK    1  A    between atoms: S_1  and  C_20
REMARK    2  A    between atoms: S_1  and  C_26
REMARK    3  A    between atoms: O_4  and  C_11
REMARK    4  A    between atoms: N_8  and  C_10
REMARK    5  A    between atoms: N_8  and  C_15
REMARK    6  A    between atoms: N_9  and  C_14
REMARK    7  A    between atoms: C_12  and  C_14
REMARK    8  A    between atoms: C_15  and  C_16
REMARK    9  A    between atoms: C_17  and  C_23
REMARK                            x       y       z     vdW  Elec       q    Type
REMARK                         _______ _______ _______ _____ _____    ______ ____
ROOT
ATOM      3  O   UNL     1      13.377   6.776  20.553  0.00  0.00    -0.371 OA
ATOM     10  C   UNL     1      11.548   8.056  19.766  0.00  0.00    +0.111 C 
ATOM     11  C   UNL     1      12.531   7.893  18.619  0.00  0.00    +0.164 C 
ATOM     12  C   UNL     1      13.768   7.257  19.253  0.00  0.00    +0.165 C 
ATOM     13  C   UNL     1      11.959   6.924  20.693  0.00  0.00    +0.181 C 
ENDROOT
BRANCH  11   4
ATOM      4  O   UNL     1      11.961   6.973  17.685  0.00  0.00    -0.388 OA
ATOM     31  H   UNL     1      11.291   7.457  17.174  0.00  0.00    +0.210 HD
ENDBRANCH  11   4
BRANCH  10   8
ATOM      8  N   UNL     1      11.703   9.349  20.428  0.00  0.00    -0.305 NA
ATOM     30  H   UNL     1      12.682   9.634  20.385  0.00  0.00    +0.123 HD
BRANCH   8  15
ATOM     15  C   UNL     1      11.304   9.274  21.828  0.00  0.00    +0.116 C 
BRANCH  15  16
ATOM     16  C   UNL     1      11.171  10.640  22.447  0.00  0.00    -0.033 A 
ATOM     18  C   UNL     1      11.320  11.781  21.659  0.00  0.00    +0.007 A 
ATOM     19  C   UNL     1      10.898  10.765  23.810  0.00  0.00    +0.007 A 
ATOM     20  C   UNL     1      10.924  13.171  23.595  0.00  0.00    +0.088 A 
ATOM     21  C   UNL     1      11.196  13.046  22.233  0.00  0.00    +0.027 A 
ATOM     22  C   UNL     1      10.774  12.030  24.383  0.00  0.00    +0.027 A 
BRANCH  20   1
ATOM      1  S   UNL     1      10.766  14.755  24.311  0.00  0.00    -0.006 S 
ATOM      6  O   UNL     1      11.919  15.561  23.934  0.00  0.00    -0.170 OA
ATOM      7  O   UNL     1       9.422  15.241  24.031  0.00  0.00    -0.170 OA
ATOM     26  C   UNL     1      10.889  14.464  26.061  0.00  0.00    +0.200 C 
ENDBRANCH  20   1
ENDBRANCH  15  16
ENDBRANCH   8  15
ENDBRANCH  10   8
BRANCH  12  14
ATOM     14  C   UNL     1      14.926   8.227  19.432  0.00  0.00    +0.138 C 
BRANCH  14   9
ATOM      5  O   UNL     1      16.663   8.585  21.689  0.00  0.00    -0.270 OA
ATOM      9  N   UNL     1      16.155   7.532  19.685  0.00  0.00    -0.309 N 
ATOM     17  C   UNL     1      16.937   7.770  20.812  0.00  0.00    +0.244 C 
ATOM     32  H   UNL     1      16.481   6.905  18.957  0.00  0.00    +0.149 HD
BRANCH  17  23
ATOM      2  F   UNL     1      21.690   4.807  21.198  0.00  0.00    -0.205 F 
ATOM     23  C   UNL     1      18.194   6.986  20.915  0.00  0.00    +0.037 A 
ATOM     24  C   UNL     1      18.433   5.933  20.031  0.00  0.00    +0.016 A 
ATOM     25  C   UNL     1      19.136   7.303  21.893  0.00  0.00    +0.016 A 
ATOM     27  C   UNL     1      19.614   5.197  20.127  0.00  0.00    +0.039 A 
ATOM     28  C   UNL     1      20.317   6.567  21.989  0.00  0.00    +0.039 A 
ATOM     29  C   UNL     1      20.556   5.513  21.105  0.00  0.00    +0.123 A 
ENDBRANCH  17  23
ENDBRANCH  14   9
ENDBRANCH  12  14
TORSDOF 8
ENDMDL
MODEL 7
REMARK VINA RESULT:      -6.5     26.861     29.418
REMARK  Name = 75536644
REMARK  9 active torsions:
REMARK  status: ('A' for Active; 'I' for Inactive)
REMARK    1  A    between atoms: S_1  and  C_20
REMARK    2  A    between atoms: S_1  and  C_26
REMARK    3  A    between atoms: O_4  and  C_11
REMARK    4  A    between atoms: N_8  and  C_10
REMARK    5  A    between atoms: N_8  and  C_15
REMARK    6  A    between atoms: N_9  and  C_14
REMARK    7  A    between atoms: C_12  and  C_14
REMARK    8  A    between atoms: C_15  and  C_16
REMARK    9  A    between atoms: C_17  and  C_23
REMARK                            x       y       z     vdW  Elec       q    Type
REMARK                         _______ _______ _______ _____ _____    ______ ____
ROOT
ATOM      3  O   UNL     1      -4.006 -12.182  15.711  0.00  0.00    -0.371 OA
ATOM     10  C   UNL     1      -2.170 -11.135  14.645  0.00  0.00    +0.111 C 
ATOM     11  C   UNL     1      -2.297 -10.547  16.040  0.00  0.00    +0.164 C 
ATOM     12  C   UNL     1      -3.617 -11.100  16.578  0.00  0.00    +0.165 C 
ATOM     13  C   UNL     1      -2.945 -12.435  14.783  0.00  0.00    +0.181 C 
ENDROOT
BRANCH  11   4
ATOM      4  O   UNL     1      -1.221 -11.060  16.829  0.00  0.00    -0.388 OA
ATOM     31  H   UNL     1      -1.183 -12.020  16.678  0.00  0.00    +0.210 HD
ENDBRANCH  11   4
BRANCH  10   8
ATOM      8  N   UNL     1      -2.782 -10.271  13.639  0.00  0.00    -0.305 NA
ATOM     30  H   UNL     1      -3.716 -10.620  13.420  0.00  0.00    +0.123 HD
BRANCH   8  15
ATOM     15  C   UNL     1      -1.995 -10.256  12.412  0.00  0.00    +0.116 C 
BRANCH  15  16
ATOM     16  C   UNL     1      -2.864 -10.355  11.187  0.00  0.00    -0.033 A 
ATOM     18  C   UNL     1      -3.505 -11.556  10.881  0.00  0.00    +0.007 A 
ATOM     19  C   UNL     1      -3.030  -9.247  10.356  0.00  0.00    +0.007 A 
ATOM     20  C   UNL     1      -4.476 -10.540   8.916  0.00  0.00    +0.088 A 
ATOM     21  C   UNL     1      -4.311 -11.648   9.747  0.00  0.00    +0.027 A 
ATOM     22  C   UNL     1      -3.836  -9.339   9.222  0.00  0.00    +0.027 A 
BRANCH  20   1
ATOM      1  S   UNL     1      -5.487 -10.655   7.498  0.00  0.00    -0.006 S 
ATOM      6  O   UNL     1      -6.157  -9.379   7.290  0.00  0.00    -0.170 OA
ATOM      7  O   UNL     1      -4.690 -11.236   6.426  0.00  0.00    -0.170 OA
ATOM     26  C   UNL     1      -6.743 -11.832   7.943  0.00  0.00    +0.200 C 
ENDBRANCH  20   1
ENDBRANCH  15  16
ENDBRANCH   8  15
ENDBRANCH  10   8
BRANCH  12  14
ATOM     14  C   UNL     1      -4.741 -10.076  16.599  0.00  0.00    +0.138 C 
BRANCH  14   9
ATOM      5  O   UNL     1      -7.442 -10.635  15.802  0.00  0.00    -0.270 OA
ATOM      9  N   UNL     1      -5.304  -9.892  15.293  0.00  0.00    -0.309 N 
ATOM     17  C   UNL     1      -6.630 -10.191  14.994  0.00  0.00    +0.244 C 
ATOM     32  H   UNL     1      -4.665  -9.605  14.559  0.00  0.00    +0.149 HD
BRANCH  17  23
ATOM      2  F   UNL     1      -8.228  -9.349   9.678  0.00  0.00    -0.205 F 
ATOM     23  C   UNL     1      -7.052  -9.968  13.588  0.00  0.00    +0.037 A 
ATOM     24  C   UNL     1      -8.293 -10.433  13.151  0.00  0.00    +0.016 A 
ATOM     25  C   UNL     1      -6.210  -9.295  12.704  0.00  0.00    +0.016 A 
ATOM     27  C   UNL     1      -8.690 -10.224  11.830  0.00  0.00    +0.039 A 
ATOM     28  C   UNL     1      -6.607  -9.086  11.384  0.00  0.00    +0.039 A 
ATOM     29  C   UNL     1      -7.848  -9.550  10.947  0.00  0.00    +0.123 A 
ENDBRANCH  17  23
ENDBRANCH  14   9
ENDBRANCH  12  14
TORSDOF 8
ENDMDL
MODEL 8
REMARK VINA RESULT:      -6.4      3.687      5.703
REMARK  Name = 75536644
REMARK  9 active torsions:
REMARK  status: ('A' for Active; 'I' for Inactive)
REMARK    1  A    between atoms: S_1  and  C_20
REMARK    2  A    between atoms: S_1  and  C_26
REMARK    3  A    between atoms: O_4  and  C_11
REMARK    4  A    between atoms: N_8  and  C_10
REMARK    5  A    between atoms: N_8  and  C_15
REMARK    6  A    between atoms: N_9  and  C_14
REMARK    7  A    between atoms: C_12  and  C_14
REMARK    8  A    between atoms: C_15  and  C_16
REMARK    9  A    between atoms: C_17  and  C_23
REMARK                            x       y       z     vdW  Elec       q    Type
REMARK                         _______ _______ _______ _____ _____    ______ ____
ROOT
ATOM      3  O   UNL     1      11.815   8.973  20.695  0.00  0.00    -0.371 OA
ATOM     10  C   UNL     1      12.477   6.989  19.588  0.00  0.00    +0.111 C 
ATOM     11  C   UNL     1      12.764   6.815  21.069  0.00  0.00    +0.164 C 
ATOM     12  C   UNL     1      12.523   8.196  21.679  0.00  0.00    +0.165 C 
ATOM     13  C   UNL     1      11.464   8.122  19.597  0.00  0.00    +0.181 C 
ENDROOT
BRANCH  11   4
ATOM      4  O   UNL     1      11.801   5.899  21.596  0.00  0.00    -0.388 OA
ATOM     31  H   UNL     1      10.921   6.230  21.349  0.00  0.00    +0.210 HD
ENDBRANCH  11   4
BRANCH  10   8
ATOM      8  N   UNL     1      13.676   7.372  18.848  0.00  0.00    -0.305 NA
ATOM     30  H   UNL     1      14.111   8.174  19.305  0.00  0.00    +0.123 HD
BRANCH   8  15
ATOM     15  C   UNL     1      13.351   7.742  17.475  0.00  0.00    +0.116 C 
BRANCH  15  16
ATOM     16  C   UNL     1      13.861   9.115  17.128  0.00  0.00    -0.033 A 
ATOM     18  C   UNL     1      13.676   9.624  15.843  0.00  0.00    +0.007 A 
ATOM     19  C   UNL     1      14.520   9.879  18.092  0.00  0.00    +0.007 A 
ATOM     20  C   UNL     1      14.807  11.660  16.485  0.00  0.00    +0.088 A 
ATOM     21  C   UNL     1      14.148  10.897  15.521  0.00  0.00    +0.027 A 
ATOM     22  C   UNL     1      14.992  11.151  17.771  0.00  0.00    +0.027 A 
BRANCH  20   1
ATOM      1  S   UNL     1      15.396  13.254  16.083  0.00  0.00    -0.006 S 
ATOM      6  O   UNL     1      14.369  14.233  16.410  0.00  0.00    -0.170 OA
ATOM      7  O   UNL     1      16.732  13.392  16.646  0.00  0.00    -0.170 OA
ATOM     26  C   UNL     1      15.548  13.236  14.312  0.00  0.00    +0.200 C 
ENDBRANCH  20   1
ENDBRANCH  15  16
ENDBRANCH   8  15
ENDBRANCH  10   8
BRANCH  12  14
ATOM     14  C   UNL     1      13.803   8.934  22.039  0.00  0.00    +0.138 C 
BRANCH  14   9
ATOM      5  O   UNL     1      16.334   9.907  21.097  0.00  0.00    -0.270 OA
ATOM      9  N   UNL     1      14.963   8.147  21.732  0.00  0.00    -0.309 N 
ATOM     17  C   UNL     1      16.154   8.706  21.279  0.00  0.00    +0.244 C 
ATOM     32  H   UNL     1      14.855   7.140  21.782  0.00  0.00    +0.149 HD
BRANCH  17  23
ATOM      2  F   UNL     1      20.312   5.105  20.156  0.00  0.00    -0.205 F 
ATOM     23  C   UNL     1      17.254   7.754  20.981  0.00  0.00    +0.037 A 
ATOM     24  C   UNL     1      18.458   7.838  21.682  0.00  0.00    +0.016 A 
ATOM     25  C   UNL     1      17.084   6.775  20.003  0.00  0.00    +0.016 A 
ATOM     27  C   UNL     1      19.491   6.943  21.403  0.00  0.00    +0.039 A 
ATOM     28  C   UNL     1      18.117   5.880  19.724  0.00  0.00    +0.039 A 
ATOM     29  C   UNL     1      19.321   5.964  20.424  0.00  0.00    +0.123 A 
ENDBRANCH  17  23
ENDBRANCH  14   9
ENDBRANCH  12  14
TORSDOF 8
ENDMDL
MODEL 9
REMARK VINA RESULT:      -6.3      3.209      7.315
REMARK  Name = 75536644
REMARK  9 active torsions:
REMARK  status: ('A' for Active; 'I' for Inactive)
REMARK    1  A    between atoms: S_1  and  C_20
REMARK    2  A    between atoms: S_1  and  C_26
REMARK    3  A    between atoms: O_4  and  C_11
REMARK    4  A    between atoms: N_8  and  C_10
REMARK    5  A    between atoms: N_8  and  C_15
REMARK    6  A    between atoms: N_9  and  C_14
REMARK    7  A    between atoms: C_12  and  C_14
REMARK    8  A    between atoms: C_15  and  C_16
REMARK    9  A    between atoms: C_17  and  C_23
REMARK                            x       y       z     vdW  Elec       q    Type
REMARK                         _______ _______ _______ _____ _____    ______ ____
ROOT
ATOM      3  O   UNL     1      20.360   7.570  20.417  0.00  0.00    -0.371 OA
ATOM     10  C   UNL     1      19.185   8.069  22.410  0.00  0.00    +0.111 C 
ATOM     11  C   UNL     1      19.475   6.578  22.401  0.00  0.00    +0.164 C 
ATOM     12  C   UNL     1      20.029   6.297  21.004  0.00  0.00    +0.165 C 
ATOM     13  C   UNL     1      20.202   8.592  21.408  0.00  0.00    +0.181 C 
ENDROOT
BRANCH  11   4
ATOM      4  O   UNL     1      20.498   6.328  23.367  0.00  0.00    -0.388 OA
ATOM     31  H   UNL     1      20.826   5.425  23.215  0.00  0.00    +0.210 HD
ENDBRANCH  11   4
BRANCH  10   8
ATOM      8  N   UNL     1      17.824   8.356  21.964  0.00  0.00    -0.305 NA
ATOM     30  H   UNL     1      17.497   7.592  21.371  0.00  0.00    +0.123 HD
BRANCH   8  15
ATOM     15  C   UNL     1      17.773   9.594  21.194  0.00  0.00    +0.116 C 
BRANCH  15  16
ATOM     16  C   UNL     1      16.401  10.214  21.220  0.00  0.00    -0.033 A 
ATOM     18  C   UNL     1      15.856  10.749  20.052  0.00  0.00    +0.007 A 
ATOM     19  C   UNL     1      15.676  10.254  22.410  0.00  0.00    +0.007 A 
ATOM     20  C   UNL     1      13.859  11.363  21.267  0.00  0.00    +0.088 A 
ATOM     21  C   UNL     1      14.585  11.322  20.076  0.00  0.00    +0.027 A 
ATOM     22  C   UNL     1      14.405  10.828  22.434  0.00  0.00    +0.027 A 
BRANCH  20   1
ATOM      1  S   UNL     1      12.267  12.079  21.294  0.00  0.00    -0.006 S 
ATOM      6  O   UNL     1      12.098  12.900  20.103  0.00  0.00    -0.170 OA
ATOM      7  O   UNL     1      11.307  11.024  21.588  0.00  0.00    -0.170 OA
ATOM     26  C   UNL     1      12.304  13.187  22.685  0.00  0.00    +0.200 C 
ENDBRANCH  20   1
ENDBRANCH  15  16
ENDBRANCH   8  15
ENDBRANCH  10   8
BRANCH  12  14
ATOM     14  C   UNL     1      19.041   5.591  20.089  0.00  0.00    +0.138 C 
BRANCH  14   9
ATOM      5  O   UNL     1      16.940   5.453  18.137  0.00  0.00    -0.270 OA
ATOM      9  N   UNL     1      17.728   6.158  20.202  0.00  0.00    -0.309 N 
ATOM     17  C   UNL     1      16.768   6.041  19.201  0.00  0.00    +0.244 C 
ATOM     32  H   UNL     1      17.548   6.727  21.022  0.00  0.00    +0.149 HD
BRANCH  17  23
ATOM      2  F   UNL     1      11.846   8.557  20.185  0.00  0.00    -0.205 F 
ATOM     23  C   UNL     1      15.465   6.707  19.460  0.00  0.00    +0.037 A 
ATOM     24  C   UNL     1      14.924   6.701  20.746  0.00  0.00    +0.016 A 
ATOM     25  C   UNL     1      14.784   7.338  18.420  0.00  0.00    +0.016 A 
ATOM     27  C   UNL     1      13.702   7.326  20.991  0.00  0.00    +0.039 A 
ATOM     28  C   UNL     1      13.562   7.963  18.665  0.00  0.00    +0.039 A 
ATOM     29  C   UNL     1      13.020   7.957  19.951  0.00  0.00    +0.123 A 
ENDBRANCH  17  23
ENDBRANCH  14   9
ENDBRANCH  12  14
TORSDOF 8
ENDMDL
MODEL 10
REMARK VINA RESULT:      -6.2     27.178     30.042
REMARK  Name = 75536644
REMARK  9 active torsions:
REMARK  status: ('A' for Active; 'I' for Inactive)
REMARK    1  A    between atoms: S_1  and  C_20
REMARK    2  A    between atoms: S_1  and  C_26
REMARK    3  A    between atoms: O_4  and  C_11
REMARK    4  A    between atoms: N_8  and  C_10
REMARK    5  A    between atoms: N_8  and  C_15
REMARK    6  A    between atoms: N_9  and  C_14
REMARK    7  A    between atoms: C_12  and  C_14
REMARK    8  A    between atoms: C_15  and  C_16
REMARK    9  A    between atoms: C_17  and  C_23
REMARK                            x       y       z     vdW  Elec       q    Type
REMARK                         _______ _______ _______ _____ _____    ______ ____
ROOT
ATOM      3  O   UNL     1      -2.832 -12.540  14.827  0.00  0.00    -0.371 OA
ATOM     10  C   UNL     1      -3.713 -10.701  13.626  0.00  0.00    +0.111 C 
ATOM     11  C   UNL     1      -2.376 -10.279  14.211  0.00  0.00    +0.164 C 
ATOM     12  C   UNL     1      -1.979 -11.424  15.142  0.00  0.00    +0.165 C 
ATOM     13  C   UNL     1      -3.608 -12.216  13.667  0.00  0.00    +0.181 C 
ENDROOT
BRANCH  11   4
ATOM      4  O   UNL     1      -1.435 -10.204  13.137  0.00  0.00    -0.388 OA
ATOM     31  H   UNL     1      -1.332  -9.265  12.908  0.00  0.00    +0.210 HD
ENDBRANCH  11   4
BRANCH  10   8
ATOM      8  N   UNL     1      -4.829 -10.237  14.446  0.00  0.00    -0.305 NA
ATOM     30  H   UNL     1      -4.509 -10.102  15.405  0.00  0.00    +0.123 HD
BRANCH   8  15
ATOM     15  C   UNL     1      -5.915 -11.210  14.454  0.00  0.00    +0.116 C 
BRANCH  15  16
ATOM     16  C   UNL     1      -7.093 -10.730  15.260  0.00  0.00    -0.033 A 
ATOM     18  C   UNL     1      -6.940  -9.670  16.154  0.00  0.00    +0.007 A 
ATOM     19  C   UNL     1      -8.336 -11.345  15.114  0.00  0.00    +0.007 A 
ATOM     20  C   UNL     1      -9.274  -9.840  16.755  0.00  0.00    +0.088 A 
ATOM     21  C   UNL     1      -8.031  -9.225  16.901  0.00  0.00    +0.027 A 
ATOM     22  C   UNL     1      -9.427 -10.900  15.861  0.00  0.00    +0.027 A 
BRANCH  20   1
ATOM      1  S   UNL     1     -10.639  -9.280  17.688  0.00  0.00    -0.006 S 
ATOM      6  O   UNL     1     -10.456  -9.677  19.078  0.00  0.00    -0.170 OA
ATOM      7  O   UNL     1     -10.862  -7.879  17.359  0.00  0.00    -0.170 OA
ATOM     26  C   UNL     1     -12.017 -10.214  17.062  0.00  0.00    +0.200 C 
ENDBRANCH  20   1
ENDBRANCH  15  16
ENDBRANCH   8  15
ENDBRANCH  10   8
BRANCH  12  14
ATOM     14  C   UNL     1      -2.148 -11.095  16.617  0.00  0.00    +0.138 C 
BRANCH  14   9
ATOM      5  O   UNL     1      -3.006 -11.851  19.251  0.00  0.00    -0.270 OA
ATOM      9  N   UNL     1      -3.499 -11.312  17.049  0.00  0.00    -0.309 N 
ATOM     17  C   UNL     1      -3.824 -11.678  18.352  0.00  0.00    +0.244 C 
ATOM     32  H   UNL     1      -4.218 -11.266  16.334  0.00  0.00    +0.149 HD
BRANCH  17  23
ATOM      2  F   UNL     1      -9.280 -12.476  19.412  0.00  0.00    -0.205 F 
ATOM     23  C   UNL     1      -5.268 -11.890  18.632  0.00  0.00    +0.037 A 
ATOM     24  C   UNL     1      -5.928 -11.068  19.546  0.00  0.00    +0.016 A 
ATOM     25  C   UNL     1      -5.963 -12.909  17.982  0.00  0.00    +0.016 A 
ATOM     27  C   UNL     1      -7.283 -11.266  19.809  0.00  0.00    +0.039 A 
ATOM     28  C   UNL     1      -7.318 -13.107  18.245  0.00  0.00    +0.039 A 
ATOM     29  C   UNL     1      -7.978 -12.285  19.160  0.00  0.00    +0.123 A 
ENDBRANCH  17  23
ENDBRANCH  14   9
ENDBRANCH  12  14
TORSDOF 8
ENDMDL
