MODEL 1
REMARK VINA RESULT:      -7.7      0.000      0.000
REMARK  Name = 11883409
REMARK  11 active torsions:
REMARK  status: ('A' for Active; 'I' for Inactive)
REMARK    1  A    between atoms: S_1  and  N_13
REMARK    2  A    between atoms: S_1  and  C_21
REMARK    3  A    between atoms: O_7  and  C_18
REMARK    4  A    between atoms: O_7  and  C_22
REMARK    5  A    between atoms: O_11  and  C_23
REMARK    6  A    between atoms: O_11  and  C_31
REMARK    7  A    between atoms: O_12  and  C_25
REMARK    8  A    between atoms: O_12  and  C_35
REMARK    9  A    between atoms: N_13  and  C_17
REMARK   10  A    between atoms: N_14  and  C_27
REMARK   11  A    between atoms: C_32  and  C_36
REMARK                            x       y       z     vdW  Elec       q    Type
REMARK                         _______ _______ _______ _____ _____    ______ ____
ROOT
ATOM      5  O   UNL     1      15.951   6.291  21.259  0.00  0.00    -0.369 OA
ATOM      6  O   UNL     1      17.020   9.151  20.889  0.00  0.00    -0.368 OA
ATOM     15  C   UNL     1      16.307   8.270  19.997  0.00  0.00    +0.171 C 
ATOM     16  C   UNL     1      16.816   6.867  20.265  0.00  0.00    +0.191 C 
ATOM     17  C   UNL     1      14.852   8.209  20.388  0.00  0.00    +0.133 C 
ATOM     18  C   UNL     1      18.202   7.119  20.810  0.00  0.00    +0.235 C 
ATOM     19  C   UNL     1      14.842   7.172  21.493  0.00  0.00    +0.183 C 
ATOM     20  C   UNL     1      18.005   8.391  21.604  0.00  0.00    +0.207 C 
ENDROOT
BRANCH  17  13
ATOM     13  N   UNL     1      14.039   7.731  19.244  0.00  0.00    -0.182 NA
ATOM     37  H   UNL     1      14.445   7.004  18.642  0.00  0.00    +0.148 HD
BRANCH  13   1
ATOM      1  S   UNL     1      12.696   8.631  18.728  0.00  0.00    +0.062 S 
ATOM      8  O   UNL     1      11.823   7.785  17.935  0.00  0.00    -0.153 OA
ATOM      9  O   UNL     1      13.158   9.900  18.198  0.00  0.00    -0.153 OA
BRANCH   1  21
ATOM     21  C   UNL     1      11.878   8.977  20.255  0.00  0.00    +0.150 A 
ATOM     23  C   UNL     1      11.309   7.952  21.011  0.00  0.00    +0.147 A 
ATOM     24  C   UNL     1      11.804  10.296  20.703  0.00  0.00    +0.077 A 
ATOM     25  C   UNL     1      11.164  10.590  21.906  0.00  0.00    +0.122 A 
ATOM     26  C   UNL     1      10.668   8.246  22.215  0.00  0.00    +0.051 A 
ATOM     28  C   UNL     1      10.595   9.566  22.662  0.00  0.00    +0.049 A 
BRANCH  23  11
ATOM     11  O   UNL     1      11.368   6.656  20.594  0.00  0.00    -0.493 OA
ATOM     31  C   UNL     1      11.143   5.648  21.577  0.00  0.00    +0.277 C 
ENDBRANCH  23  11
BRANCH  25  12
ATOM     12  O   UNL     1      11.092  11.877  22.343  0.00  0.00    -0.495 OA
ATOM     35  C   UNL     1      10.942  12.078  23.747  0.00  0.00    +0.277 C 
ENDBRANCH  25  12
ENDBRANCH   1  21
ENDBRANCH  13   1
ENDBRANCH  17  13
BRANCH  18   7
ATOM      7  O   UNL     1      18.693   6.066  21.608  0.00  0.00    -0.442 OA
BRANCH   7  22
ATOM     10  O   UNL     1      20.485   6.288  23.012  0.00  0.00    -0.226 OA
ATOM     14  N   UNL     1      20.757   5.808  20.736  0.00  0.00    -0.251 N 
ATOM     22  C   UNL     1      20.043   6.074  21.889  0.00  0.00    +0.405 C 
ATOM     38  H   UNL     1      20.209   5.656  19.893  0.00  0.00    +0.158 HD
BRANCH  14  27
ATOM     27  C   UNL     1      22.160   5.724  20.581  0.00  0.00    +0.037 A 
ATOM     29  C   UNL     1      22.765   4.487  20.362  0.00  0.00    +0.035 A 
ATOM     30  C   UNL     1      22.939   6.880  20.648  0.00  0.00    +0.023 A 
ATOM     32  C   UNL     1      24.149   4.405  20.210  0.00  0.00    +0.057 A 
ATOM     33  C   UNL     1      24.323   6.798  20.495  0.00  0.00    +0.002 A 
ATOM     34  C   UNL     1      24.928   5.560  20.276  0.00  0.00    +0.012 A 
BRANCH  32  36
ATOM      2  F   UNL     1      24.015   2.021  20.337  0.00  0.00    -0.166 F 
ATOM      3  F   UNL     1      25.122   2.855  18.670  0.00  0.00    -0.166 F 
ATOM      4  F   UNL     1      25.959   2.935  20.674  0.00  0.00    -0.166 F 
ATOM     36  C   UNL     1      24.796   3.082  19.976  0.00  0.00    +0.417 C 
ENDBRANCH  32  36
ENDBRANCH  14  27
ENDBRANCH   7  22
ENDBRANCH  18   7
TORSDOF 9
ENDMDL
MODEL 2
REMARK VINA RESULT:      -7.1      5.526     11.757
REMARK  Name = 11883409
REMARK  11 active torsions:
REMARK  status: ('A' for Active; 'I' for Inactive)
REMARK    1  A    between atoms: S_1  and  N_13
REMARK    2  A    between atoms: S_1  and  C_21
REMARK    3  A    between atoms: O_7  and  C_18
REMARK    4  A    between atoms: O_7  and  C_22
REMARK    5  A    between atoms: O_11  and  C_23
REMARK    6  A    between atoms: O_11  and  C_31
REMARK    7  A    between atoms: O_12  and  C_25
REMARK    8  A    between atoms: O_12  and  C_35
REMARK    9  A    between atoms: N_13  and  C_17
REMARK   10  A    between atoms: N_14  and  C_27
REMARK   11  A    between atoms: C_32  and  C_36
REMARK                            x       y       z     vdW  Elec       q    Type
REMARK                         _______ _______ _______ _____ _____    ______ ____
ROOT
ATOM      5  O   UNL     1      19.267   6.012  20.147  0.00  0.00    -0.369 OA
ATOM      6  O   UNL     1      19.152   8.168  22.339  0.00  0.00    -0.368 OA
ATOM     15  C   UNL     1      19.377   6.744  22.403  0.00  0.00    +0.171 C 
ATOM     16  C   UNL     1      18.487   6.111  21.351  0.00  0.00    +0.191 C 
ATOM     17  C   UNL     1      20.775   6.423  21.937  0.00  0.00    +0.133 C 
ATOM     18  C   UNL     1      17.372   7.121  21.214  0.00  0.00    +0.235 C 
ATOM     19  C   UNL     1      20.626   6.377  20.429  0.00  0.00    +0.183 C 
ATOM     20  C   UNL     1      18.105   8.431  21.394  0.00  0.00    +0.207 C 
ENDROOT
BRANCH  17  13
ATOM     13  N   UNL     1      21.183   5.090  22.441  0.00  0.00    -0.182 NA
ATOM     37  H   UNL     1      20.492   4.331  22.396  0.00  0.00    +0.148 HD
BRANCH  13   1
ATOM      1  S   UNL     1      22.566   4.941  23.414  0.00  0.00    +0.062 S 
ATOM      8  O   UNL     1      22.168   4.759  24.797  0.00  0.00    -0.153 OA
ATOM      9  O   UNL     1      23.503   5.990  23.057  0.00  0.00    -0.153 OA
BRANCH   1  21
ATOM     21  C   UNL     1      23.254   3.418  22.840  0.00  0.00    +0.150 A 
ATOM     23  C   UNL     1      23.541   3.226  21.488  0.00  0.00    +0.147 A 
ATOM     24  C   UNL     1      23.511   2.400  23.758  0.00  0.00    +0.077 A 
ATOM     25  C   UNL     1      24.055   1.191  23.326  0.00  0.00    +0.122 A 
ATOM     26  C   UNL     1      24.084   2.016  21.056  0.00  0.00    +0.051 A 
ATOM     28  C   UNL     1      24.340   0.998  21.975  0.00  0.00    +0.049 A 
BRANCH  23  11
ATOM     11  O   UNL     1      23.298   4.206  20.573  0.00  0.00    -0.493 OA
ATOM     31  C   UNL     1      24.418   4.704  19.845  0.00  0.00    +0.277 C 
ENDBRANCH  23  11
BRANCH  25  12
ATOM     12  O   UNL     1      24.305   0.197  24.222  0.00  0.00    -0.495 OA
ATOM     35  C   UNL     1      25.628  -0.337  24.245  0.00  0.00    +0.277 C 
ENDBRANCH  25  12
ENDBRANCH   1  21
ENDBRANCH  13   1
ENDBRANCH  17  13
BRANCH  18   7
ATOM      7  O   UNL     1      16.702   7.054  19.976  0.00  0.00    -0.442 OA
BRANCH   7  22
ATOM     10  O   UNL     1      15.036   8.277  18.997  0.00  0.00    -0.226 OA
ATOM     14  N   UNL     1      14.725   7.199  21.052  0.00  0.00    -0.251 N 
ATOM     22  C   UNL     1      15.428   7.582  19.926  0.00  0.00    +0.405 C 
ATOM     38  H   UNL     1      15.225   6.616  21.718  0.00  0.00    +0.158 HD
BRANCH  14  27
ATOM     27  C   UNL     1      13.392   7.521  21.397  0.00  0.00    +0.037 A 
ATOM     29  C   UNL     1      13.090   8.777  21.920  0.00  0.00    +0.035 A 
ATOM     30  C   UNL     1      12.378   6.579  21.214  0.00  0.00    +0.023 A 
ATOM     32  C   UNL     1      11.775   9.093  22.261  0.00  0.00    +0.057 A 
ATOM     33  C   UNL     1      11.063   6.895  21.554  0.00  0.00    +0.002 A 
ATOM     34  C   UNL     1      10.762   8.153  22.078  0.00  0.00    +0.012 A 
BRANCH  32  36
ATOM      2  F   UNL     1      12.538  11.091  23.332  0.00  0.00    -0.166 F 
ATOM      3  F   UNL     1      10.919  11.298  21.905  0.00  0.00    -0.166 F 
ATOM      4  F   UNL     1      10.547  10.380  23.840  0.00  0.00    -0.166 F 
ATOM     36  C   UNL     1      11.453  10.438  22.821  0.00  0.00    +0.417 C 
ENDBRANCH  32  36
ENDBRANCH  14  27
ENDBRANCH   7  22
ENDBRANCH  18   7
TORSDOF 9
ENDMDL
MODEL 3
REMARK VINA RESULT:      -7.0     27.945     30.341
REMARK  Name = 11883409
REMARK  11 active torsions:
REMARK  status: ('A' for Active; 'I' for Inactive)
REMARK    1  A    between atoms: S_1  and  N_13
REMARK    2  A    between atoms: S_1  and  C_21
REMARK    3  A    between atoms: O_7  and  C_18
REMARK    4  A    between atoms: O_7  and  C_22
REMARK    5  A    between atoms: O_11  and  C_23
REMARK    6  A    between atoms: O_11  and  C_31
REMARK    7  A    between atoms: O_12  and  C_25
REMARK    8  A    between atoms: O_12  and  C_35
REMARK    9  A    between atoms: N_13  and  C_17
REMARK   10  A    between atoms: N_14  and  C_27
REMARK   11  A    between atoms: C_32  and  C_36
REMARK                            x       y       z     vdW  Elec       q    Type
REMARK                         _______ _______ _______ _____ _____    ______ ____
ROOT
ATOM      5  O   UNL     1      -4.251 -12.142  15.009  0.00  0.00    -0.369 OA
ATOM      6  O   UNL     1      -2.134 -10.823  16.809  0.00  0.00    -0.368 OA
ATOM     15  C   UNL     1      -3.509 -10.483  16.536  0.00  0.00    +0.171 C 
ATOM     16  C   UNL     1      -3.757 -10.793  15.073  0.00  0.00    +0.191 C 
ATOM     17  C   UNL     1      -4.427 -11.429  17.269  0.00  0.00    +0.133 C 
ATOM     18  C   UNL     1      -2.375 -10.675  14.474  0.00  0.00    +0.235 C 
ATOM     19  C   UNL     1      -4.491 -12.625  16.339  0.00  0.00    +0.183 C 
ATOM     20  C   UNL     1      -1.500 -11.215  15.583  0.00  0.00    +0.207 C 
ENDROOT
BRANCH  17  13
ATOM     13  N   UNL     1      -5.775 -10.825  17.403  0.00  0.00    -0.182 NA
ATOM     37  H   UNL     1      -5.983  -9.993  16.837  0.00  0.00    +0.148 HD
BRANCH  13   1
ATOM      1  S   UNL     1      -6.760 -11.243  18.720  0.00  0.00    +0.062 S 
ATOM      8  O   UNL     1      -6.200 -10.688  19.938  0.00  0.00    -0.153 OA
ATOM      9  O   UNL     1      -7.074 -12.657  18.640  0.00  0.00    -0.153 OA
BRANCH   1  21
ATOM     21  C   UNL     1      -8.249 -10.363  18.356  0.00  0.00    +0.150 A 
ATOM     23  C   UNL     1      -9.391 -10.532  19.140  0.00  0.00    +0.147 A 
ATOM     24  C   UNL     1      -8.274  -9.491  17.268  0.00  0.00    +0.077 A 
ATOM     25  C   UNL     1      -9.439  -8.787  16.965  0.00  0.00    +0.122 A 
ATOM     26  C   UNL     1     -10.556  -9.828  18.836  0.00  0.00    +0.051 A 
ATOM     28  C   UNL     1     -10.580  -8.956  17.748  0.00  0.00    +0.049 A 
BRANCH  23  11
ATOM     11  O   UNL     1      -9.390 -11.379  20.208  0.00  0.00    -0.493 OA
ATOM     31  C   UNL     1     -10.382 -12.403  20.223  0.00  0.00    +0.277 C 
ENDBRANCH  23  11
BRANCH  25  12
ATOM     12  O   UNL     1      -9.463  -7.935  15.903  0.00  0.00    -0.495 OA
ATOM     35  C   UNL     1     -10.420  -6.878  15.941  0.00  0.00    +0.277 C 
ENDBRANCH  25  12
ENDBRANCH   1  21
ENDBRANCH  13   1
ENDBRANCH  17  13
BRANCH  18   7
ATOM      7  O   UNL     1      -2.218 -11.398  13.275  0.00  0.00    -0.442 OA
BRANCH   7  22
ATOM     10  O   UNL     1      -1.579  -9.908  11.663  0.00  0.00    -0.226 OA
ATOM     14  N   UNL     1      -3.617 -11.053  11.539  0.00  0.00    -0.251 N 
ATOM     22  C   UNL     1      -2.403 -10.703  12.098  0.00  0.00    +0.405 C 
ATOM     38  H   UNL     1      -4.168 -11.737  12.053  0.00  0.00    +0.158 HD
BRANCH  14  27
ATOM     27  C   UNL     1      -4.193 -10.577  10.339  0.00  0.00    +0.037 A 
ATOM     29  C   UNL     1      -4.179 -11.372   9.194  0.00  0.00    +0.035 A 
ATOM     30  C   UNL     1      -4.774  -9.309  10.300  0.00  0.00    +0.023 A 
ATOM     32  C   UNL     1      -4.746 -10.901   8.010  0.00  0.00    +0.057 A 
ATOM     33  C   UNL     1      -5.342  -8.838   9.117  0.00  0.00    +0.002 A 
ATOM     34  C   UNL     1      -5.328  -9.634   7.971  0.00  0.00    +0.012 A 
BRANCH  32  36
ATOM      2  F   UNL     1      -3.643 -12.577   6.707  0.00  0.00    -0.166 F 
ATOM      3  F   UNL     1      -5.812 -12.578   6.679  0.00  0.00    -0.166 F 
ATOM      4  F   UNL     1      -4.716 -11.018   5.635  0.00  0.00    -0.166 F 
ATOM     36  C   UNL     1      -4.730 -11.752   6.786  0.00  0.00    +0.417 C 
ENDBRANCH  32  36
ENDBRANCH  14  27
ENDBRANCH   7  22
ENDBRANCH  18   7
TORSDOF 9
ENDMDL
MODEL 4
REMARK VINA RESULT:      -7.0      6.136      9.394
REMARK  Name = 11883409
REMARK  11 active torsions:
REMARK  status: ('A' for Active; 'I' for Inactive)
REMARK    1  A    between atoms: S_1  and  N_13
REMARK    2  A    between atoms: S_1  and  C_21
REMARK    3  A    between atoms: O_7  and  C_18
REMARK    4  A    between atoms: O_7  and  C_22
REMARK    5  A    between atoms: O_11  and  C_23
REMARK    6  A    between atoms: O_11  and  C_31
REMARK    7  A    between atoms: O_12  and  C_25
REMARK    8  A    between atoms: O_12  and  C_35
REMARK    9  A    between atoms: N_13  and  C_17
REMARK   10  A    between atoms: N_14  and  C_27
REMARK   11  A    between atoms: C_32  and  C_36
REMARK                            x       y       z     vdW  Elec       q    Type
REMARK                         _______ _______ _______ _____ _____    ______ ____
ROOT
ATOM      5  O   UNL     1      22.513   3.274  25.347  0.00  0.00    -0.369 OA
ATOM      6  O   UNL     1      24.544   2.589  23.141  0.00  0.00    -0.368 OA
ATOM     15  C   UNL     1      23.134   2.889  23.088  0.00  0.00    +0.171 C 
ATOM     16  C   UNL     1      22.506   2.267  24.320  0.00  0.00    +0.191 C 
ATOM     17  C   UNL     1      22.915   4.369  23.276  0.00  0.00    +0.133 C 
ATOM     18  C   UNL     1      23.457   1.138  24.639  0.00  0.00    +0.235 C 
ATOM     19  C   UNL     1      22.938   4.524  24.784  0.00  0.00    +0.183 C 
ATOM     20  C   UNL     1      24.796   1.734  24.265  0.00  0.00    +0.207 C 
ENDROOT
BRANCH  17  13
ATOM     13  N   UNL     1      21.584   4.756  22.753  0.00  0.00    -0.182 NA
ATOM     37  H   UNL     1      20.782   4.687  23.392  0.00  0.00    +0.148 HD
BRANCH  13   1
ATOM      1  S   UNL     1      21.344   4.904  21.079  0.00  0.00    +0.062 S 
ATOM      8  O   UNL     1      20.981   3.612  20.527  0.00  0.00    -0.153 OA
ATOM      9  O   UNL     1      22.448   5.655  20.513  0.00  0.00    -0.153 OA
BRANCH   1  21
ATOM     21  C   UNL     1      19.919   5.947  21.005  0.00  0.00    +0.150 A 
ATOM     23  C   UNL     1      19.833   7.098  21.788  0.00  0.00    +0.147 A 
ATOM     24  C   UNL     1      18.872   5.606  20.149  0.00  0.00    +0.077 A 
ATOM     25  C   UNL     1      17.739   6.417  20.075  0.00  0.00    +0.122 A 
ATOM     26  C   UNL     1      18.700   7.908  21.714  0.00  0.00    +0.051 A 
ATOM     28  C   UNL     1      17.653   7.567  20.858  0.00  0.00    +0.049 A 
BRANCH  23  11
ATOM     11  O   UNL     1      20.844   7.450  22.632  0.00  0.00    -0.493 OA
ATOM     31  C   UNL     1      20.473   8.013  23.888  0.00  0.00    +0.277 C 
ENDBRANCH  23  11
BRANCH  25  12
ATOM     12  O   UNL     1      16.717   6.085  19.240  0.00  0.00    -0.495 OA
ATOM     35  C   UNL     1      15.544   6.894  19.297  0.00  0.00    +0.277 C 
ENDBRANCH  25  12
ENDBRANCH   1  21
ENDBRANCH  13   1
ENDBRANCH  17  13
BRANCH  18   7
ATOM      7  O   UNL     1      23.416   0.731  25.988  0.00  0.00    -0.442 OA
BRANCH   7  22
ATOM     10  O   UNL     1      21.933  -0.043  27.547  0.00  0.00    -0.226 OA
ATOM     14  N   UNL     1      21.771  -0.645  25.290  0.00  0.00    -0.251 N 
ATOM     22  C   UNL     1      22.318  -0.004  26.384  0.00  0.00    +0.405 C 
ATOM     38  H   UNL     1      22.235  -0.489  24.399  0.00  0.00    +0.158 HD
BRANCH  14  27
ATOM     27  C   UNL     1      20.642  -1.496  25.254  0.00  0.00    +0.037 A 
ATOM     29  C   UNL     1      19.363  -0.955  25.130  0.00  0.00    +0.035 A 
ATOM     30  C   UNL     1      20.809  -2.879  25.345  0.00  0.00    +0.023 A 
ATOM     32  C   UNL     1      18.251  -1.795  25.096  0.00  0.00    +0.057 A 
ATOM     33  C   UNL     1      19.696  -3.719  25.310  0.00  0.00    +0.002 A 
ATOM     34  C   UNL     1      18.417  -3.177  25.186  0.00  0.00    +0.012 A 
BRANCH  32  36
ATOM      2  F   UNL     1      16.143  -1.293  26.110  0.00  0.00    -0.166 F 
ATOM      3  F   UNL     1      16.880   0.107  24.627  0.00  0.00    -0.166 F 
ATOM      4  F   UNL     1      16.138  -1.839  24.006  0.00  0.00    -0.166 F 
ATOM     36  C   UNL     1      16.883  -1.216  24.964  0.00  0.00    +0.417 C 
ENDBRANCH  32  36
ENDBRANCH  14  27
ENDBRANCH   7  22
ENDBRANCH  18   7
TORSDOF 9
ENDMDL
MODEL 5
REMARK VINA RESULT:      -7.0     16.242     18.054
REMARK  Name = 11883409
REMARK  11 active torsions:
REMARK  status: ('A' for Active; 'I' for Inactive)
REMARK    1  A    between atoms: S_1  and  N_13
REMARK    2  A    between atoms: S_1  and  C_21
REMARK    3  A    between atoms: O_7  and  C_18
REMARK    4  A    between atoms: O_7  and  C_22
REMARK    5  A    between atoms: O_11  and  C_23
REMARK    6  A    between atoms: O_11  and  C_31
REMARK    7  A    between atoms: O_12  and  C_25
REMARK    8  A    between atoms: O_12  and  C_35
REMARK    9  A    between atoms: N_13  and  C_17
REMARK   10  A    between atoms: N_14  and  C_27
REMARK   11  A    between atoms: C_32  and  C_36
REMARK                            x       y       z     vdW  Elec       q    Type
REMARK                         _______ _______ _______ _____ _____    ______ ____
ROOT
ATOM      5  O   UNL     1      13.657   7.334   5.266  0.00  0.00    -0.369 OA
ATOM      6  O   UNL     1      14.886   9.838   6.564  0.00  0.00    -0.368 OA
ATOM     15  C   UNL     1      13.672   9.645   5.808  0.00  0.00    +0.171 C 
ATOM     16  C   UNL     1      13.984   8.627   4.728  0.00  0.00    +0.191 C 
ATOM     17  C   UNL     1      12.636   8.962   6.664  0.00  0.00    +0.133 C 
ATOM     18  C   UNL     1      15.473   8.794   4.539  0.00  0.00    +0.235 C 
ATOM     19  C   UNL     1      13.004   7.497   6.533  0.00  0.00    +0.183 C 
ATOM     20  C   UNL     1      15.941   9.087   5.947  0.00  0.00    +0.207 C 
ENDROOT
BRANCH  17  13
ATOM     13  N   UNL     1      11.283   9.191   6.103  0.00  0.00    -0.182 NA
ATOM     37  H   UNL     1      11.209   9.772   5.259  0.00  0.00    +0.148 HD
BRANCH  13   1
ATOM      1  S   UNL     1       9.911   8.855   7.044  0.00  0.00    +0.062 S 
ATOM      8  O   UNL     1       8.734   9.400   6.393  0.00  0.00    -0.153 OA
ATOM      9  O   UNL     1      10.198   9.187   8.427  0.00  0.00    -0.153 OA
BRANCH   1  21
ATOM     21  C   UNL     1       9.821   7.093   6.944  0.00  0.00    +0.150 A 
ATOM     23  C   UNL     1       9.688   6.451   5.712  0.00  0.00    +0.147 A 
ATOM     24  C   UNL     1       9.886   6.343   8.117  0.00  0.00    +0.077 A 
ATOM     25  C   UNL     1       9.817   4.951   8.060  0.00  0.00    +0.122 A 
ATOM     26  C   UNL     1       9.620   5.060   5.655  0.00  0.00    +0.051 A 
ATOM     28  C   UNL     1       9.684   4.309   6.829  0.00  0.00    +0.049 A 
BRANCH  23  11
ATOM     11  O   UNL     1       9.624   7.164   4.553  0.00  0.00    -0.493 OA
ATOM     31  C   UNL     1      10.503   6.773   3.502  0.00  0.00    +0.277 C 
ENDBRANCH  23  11
BRANCH  25  12
ATOM     12  O   UNL     1       9.880   4.218   9.206  0.00  0.00    -0.495 OA
ATOM     35  C   UNL     1       8.985   4.578  10.256  0.00  0.00    +0.277 C 
ENDBRANCH  25  12
ENDBRANCH   1  21
ENDBRANCH  13   1
ENDBRANCH  17  13
BRANCH  18   7
ATOM      7  O   UNL     1      16.102   7.656   3.997  0.00  0.00    -0.442 OA
BRANCH   7  22
ATOM     10  O   UNL     1      15.913   7.947   1.736  0.00  0.00    -0.226 OA
ATOM     14  N   UNL     1      15.074   6.040   2.805  0.00  0.00    -0.251 N 
ATOM     22  C   UNL     1      15.706   7.267   2.734  0.00  0.00    +0.405 C 
ATOM     38  H   UNL     1      14.997   5.627   3.731  0.00  0.00    +0.158 HD
BRANCH  14  27
ATOM     27  C   UNL     1      14.517   5.286   1.747  0.00  0.00    +0.037 A 
ATOM     29  C   UNL     1      13.132   5.200   1.604  0.00  0.00    +0.035 A 
ATOM     30  C   UNL     1      15.353   4.625   0.846  0.00  0.00    +0.023 A 
ATOM     32  C   UNL     1      12.584   4.455   0.561  0.00  0.00    +0.057 A 
ATOM     33  C   UNL     1      14.805   3.880  -0.197  0.00  0.00    +0.002 A 
ATOM     34  C   UNL     1      13.419   3.795  -0.340  0.00  0.00    +0.012 A 
BRANCH  32  36
ATOM      2  F   UNL     1      10.485   3.730   1.450  0.00  0.00    -0.166 F 
ATOM      3  F   UNL     1      10.486   5.578   0.316  0.00  0.00    -0.166 F 
ATOM      4  F   UNL     1      10.730   3.677  -0.710  0.00  0.00    -0.166 F 
ATOM     36  C   UNL     1      11.103   4.363   0.409  0.00  0.00    +0.417 C 
ENDBRANCH  32  36
ENDBRANCH  14  27
ENDBRANCH   7  22
ENDBRANCH  18   7
TORSDOF 9
ENDMDL
MODEL 6
REMARK VINA RESULT:      -6.9      4.539      7.350
REMARK  Name = 11883409
REMARK  11 active torsions:
REMARK  status: ('A' for Active; 'I' for Inactive)
REMARK    1  A    between atoms: S_1  and  N_13
REMARK    2  A    between atoms: S_1  and  C_21
REMARK    3  A    between atoms: O_7  and  C_18
REMARK    4  A    between atoms: O_7  and  C_22
REMARK    5  A    between atoms: O_11  and  C_23
REMARK    6  A    between atoms: O_11  and  C_31
REMARK    7  A    between atoms: O_12  and  C_25
REMARK    8  A    between atoms: O_12  and  C_35
REMARK    9  A    between atoms: N_13  and  C_17
REMARK   10  A    between atoms: N_14  and  C_27
REMARK   11  A    between atoms: C_32  and  C_36
REMARK                            x       y       z     vdW  Elec       q    Type
REMARK                         _______ _______ _______ _____ _____    ______ ____
ROOT
ATOM      5  O   UNL     1      14.116  10.067  18.101  0.00  0.00    -0.369 OA
ATOM      6  O   UNL     1      12.325   7.985  16.718  0.00  0.00    -0.368 OA
ATOM     15  C   UNL     1      12.348   9.426  16.654  0.00  0.00    +0.171 C 
ATOM     16  C   UNL     1      12.687   9.922  18.046  0.00  0.00    +0.191 C 
ATOM     17  C   UNL     1      13.511   9.885  15.811  0.00  0.00    +0.133 C 
ATOM     18  C   UNL     1      12.206   8.791  18.924  0.00  0.00    +0.235 C 
ATOM     19  C   UNL     1      14.667   9.865  16.792  0.00  0.00    +0.183 C 
ATOM     20  C   UNL     1      12.520   7.577  18.079  0.00  0.00    +0.207 C 
ENDROOT
BRANCH  17  13
ATOM     13  N   UNL     1      13.279  11.271  15.338  0.00  0.00    -0.182 NA
ATOM     37  H   UNL     1      12.348  11.678  15.494  0.00  0.00    +0.148 HD
BRANCH  13   1
ATOM      1  S   UNL     1      14.359  11.980  14.238  0.00  0.00    +0.062 S 
ATOM      8  O   UNL     1      13.725  13.123  13.607  0.00  0.00    -0.153 OA
ATOM      9  O   UNL     1      14.953  10.935  13.426  0.00  0.00    -0.153 OA
BRANCH   1  21
ATOM     21  C   UNL     1      15.628  12.585  15.310  0.00  0.00    +0.150 A 
ATOM     23  C   UNL     1      15.310  13.331  16.445  0.00  0.00    +0.147 A 
ATOM     24  C   UNL     1      16.960  12.307  15.009  0.00  0.00    +0.077 A 
ATOM     25  C   UNL     1      17.976  12.775  15.842  0.00  0.00    +0.122 A 
ATOM     26  C   UNL     1      16.326  13.799  17.279  0.00  0.00    +0.051 A 
ATOM     28  C   UNL     1      17.659  13.521  16.977  0.00  0.00    +0.049 A 
BRANCH  23  11
ATOM     11  O   UNL     1      14.015  13.615  16.760  0.00  0.00    -0.493 OA
ATOM     31  C   UNL     1      13.663  13.592  18.141  0.00  0.00    +0.277 C 
ENDBRANCH  23  11
BRANCH  25  12
ATOM     12  O   UNL     1      19.278  12.504  15.549  0.00  0.00    -0.495 OA
ATOM     35  C   UNL     1      19.529  11.422  14.654  0.00  0.00    +0.277 C 
ENDBRANCH  25  12
ENDBRANCH   1  21
ENDBRANCH  13   1
ENDBRANCH  17  13
BRANCH  18   7
ATOM      7  O   UNL     1      12.844   8.743  20.180  0.00  0.00    -0.442 OA
BRANCH   7  22
ATOM     10  O   UNL     1      13.418   6.640  20.870  0.00  0.00    -0.226 OA
ATOM     14  N   UNL     1      14.998   8.110  19.961  0.00  0.00    -0.251 N 
ATOM     22  C   UNL     1      13.742   7.717  20.384  0.00  0.00    +0.405 C 
ATOM     38  H   UNL     1      15.070   9.050  19.582  0.00  0.00    +0.158 HD
BRANCH  14  27
ATOM     27  C   UNL     1      16.199   7.365  19.992  0.00  0.00    +0.037 A 
ATOM     29  C   UNL     1      17.189   7.675  20.924  0.00  0.00    +0.035 A 
ATOM     30  C   UNL     1      16.394   6.319  19.089  0.00  0.00    +0.023 A 
ATOM     32  C   UNL     1      18.375   6.941  20.953  0.00  0.00    +0.057 A 
ATOM     33  C   UNL     1      17.579   5.584  19.119  0.00  0.00    +0.002 A 
ATOM     34  C   UNL     1      18.569   5.895  20.051  0.00  0.00    +0.012 A 
BRANCH  32  36
ATOM      2  F   UNL     1      19.735   6.242  22.792  0.00  0.00    -0.166 F 
ATOM      3  F   UNL     1      20.624   7.630  21.384  0.00  0.00    -0.166 F 
ATOM      4  F   UNL     1      19.085   8.317  22.757  0.00  0.00    -0.166 F 
ATOM     36  C   UNL     1      19.433   7.274  21.949  0.00  0.00    +0.417 C 
ENDBRANCH  32  36
ENDBRANCH  14  27
ENDBRANCH   7  22
ENDBRANCH  18   7
TORSDOF 9
ENDMDL
MODEL 7
REMARK VINA RESULT:      -6.9     27.667     31.397
REMARK  Name = 11883409
REMARK  11 active torsions:
REMARK  status: ('A' for Active; 'I' for Inactive)
REMARK    1  A    between atoms: S_1  and  N_13
REMARK    2  A    between atoms: S_1  and  C_21
REMARK    3  A    between atoms: O_7  and  C_18
REMARK    4  A    between atoms: O_7  and  C_22
REMARK    5  A    between atoms: O_11  and  C_23
REMARK    6  A    between atoms: O_11  and  C_31
REMARK    7  A    between atoms: O_12  and  C_25
REMARK    8  A    between atoms: O_12  and  C_35
REMARK    9  A    between atoms: N_13  and  C_17
REMARK   10  A    between atoms: N_14  and  C_27
REMARK   11  A    between atoms: C_32  and  C_36
REMARK                            x       y       z     vdW  Elec       q    Type
REMARK                         _______ _______ _______ _____ _____    ______ ____
ROOT
ATOM      5  O   UNL     1      -5.904 -10.088  17.113  0.00  0.00    -0.369 OA
ATOM      6  O   UNL     1      -4.224 -12.275  18.476  0.00  0.00    -0.368 OA
ATOM     15  C   UNL     1      -4.772 -12.174  17.145  0.00  0.00    +0.171 C 
ATOM     16  C   UNL     1      -6.123 -11.500  17.276  0.00  0.00    +0.191 C 
ATOM     17  C   UNL     1      -3.958 -11.203  16.326  0.00  0.00    +0.133 C 
ATOM     18  C   UNL     1      -6.526 -11.843  18.690  0.00  0.00    +0.235 C 
ATOM     19  C   UNL     1      -4.543  -9.860  16.718  0.00  0.00    +0.183 C 
ATOM     20  C   UNL     1      -5.201 -11.806  19.417  0.00  0.00    +0.207 C 
ENDROOT
BRANCH  17  13
ATOM     13  N   UNL     1      -4.183 -11.446  14.882  0.00  0.00    -0.182 NA
ATOM     37  H   UNL     1      -5.033 -11.955  14.610  0.00  0.00    +0.148 HD
BRANCH  13   1
ATOM      1  S   UNL     1      -2.902 -11.257  13.784  0.00  0.00    +0.062 S 
ATOM      8  O   UNL     1      -2.527 -12.553  13.250  0.00  0.00    -0.153 OA
ATOM      9  O   UNL     1      -1.898 -10.397  14.381  0.00  0.00    -0.153 OA
BRANCH   1  21
ATOM     21  C   UNL     1      -3.666 -10.333  12.486  0.00  0.00    +0.150 A 
ATOM     23  C   UNL     1      -2.922  -9.879  11.397  0.00  0.00    +0.147 A 
ATOM     24  C   UNL     1      -5.031 -10.060  12.560  0.00  0.00    +0.077 A 
ATOM     25  C   UNL     1      -5.653  -9.333  11.545  0.00  0.00    +0.122 A 
ATOM     26  C   UNL     1      -3.544  -9.152  10.382  0.00  0.00    +0.051 A 
ATOM     28  C   UNL     1      -4.910  -8.878  10.456  0.00  0.00    +0.049 A 
BRANCH  23  11
ATOM     11  O   UNL     1      -1.586 -10.135  11.303  0.00  0.00    -0.493 OA
ATOM     31  C   UNL     1      -0.721  -9.012  11.156  0.00  0.00    +0.277 C 
ENDBRANCH  23  11
BRANCH  25  12
ATOM     12  O   UNL     1      -6.986  -9.065  11.617  0.00  0.00    -0.495 OA
ATOM     35  C   UNL     1      -7.729  -9.141  10.401  0.00  0.00    +0.277 C 
ENDBRANCH  25  12
ENDBRANCH   1  21
ENDBRANCH  13   1
ENDBRANCH  17  13
BRANCH  18   7
ATOM      7  O   UNL     1      -7.460 -10.944  19.243  0.00  0.00    -0.442 OA
BRANCH   7  22
ATOM     10  O   UNL     1      -9.340 -11.954  18.420  0.00  0.00    -0.226 OA
ATOM     14  N   UNL     1      -9.125  -9.623  18.487  0.00  0.00    -0.251 N 
ATOM     22  C   UNL     1      -8.720 -10.930  18.683  0.00  0.00    +0.405 C 
ATOM     38  H   UNL     1      -8.467  -8.902  18.770  0.00  0.00    +0.158 HD
BRANCH  14  27
ATOM     27  C   UNL     1     -10.344  -9.163  17.939  0.00  0.00    +0.037 A 
ATOM     29  C   UNL     1     -10.344  -8.111  17.023  0.00  0.00    +0.035 A 
ATOM     30  C   UNL     1     -11.547  -9.760  18.315  0.00  0.00    +0.023 A 
ATOM     32  C   UNL     1     -11.547  -7.656  16.483  0.00  0.00    +0.057 A 
ATOM     33  C   UNL     1     -12.750  -9.306  17.775  0.00  0.00    +0.002 A 
ATOM     34  C   UNL     1     -12.750  -8.254  16.859  0.00  0.00    +0.012 A 
BRANCH  32  36
ATOM      2  F   UNL     1     -11.576  -6.941  14.201  0.00  0.00    -0.166 F 
ATOM      3  F   UNL     1     -12.614  -5.690  15.637  0.00  0.00    -0.166 F 
ATOM      4  F   UNL     1     -10.441  -5.739  15.614  0.00  0.00    -0.166 F 
ATOM     36  C   UNL     1     -11.547  -6.531  15.505  0.00  0.00    +0.417 C 
ENDBRANCH  32  36
ENDBRANCH  14  27
ENDBRANCH   7  22
ENDBRANCH  18   7
TORSDOF 9
ENDMDL
MODEL 8
REMARK VINA RESULT:      -6.7     28.351     30.803
REMARK  Name = 11883409
REMARK  11 active torsions:
REMARK  status: ('A' for Active; 'I' for Inactive)
REMARK    1  A    between atoms: S_1  and  N_13
REMARK    2  A    between atoms: S_1  and  C_21
REMARK    3  A    between atoms: O_7  and  C_18
REMARK    4  A    between atoms: O_7  and  C_22
REMARK    5  A    between atoms: O_11  and  C_23
REMARK    6  A    between atoms: O_11  and  C_31
REMARK    7  A    between atoms: O_12  and  C_25
REMARK    8  A    between atoms: O_12  and  C_35
REMARK    9  A    between atoms: N_13  and  C_17
REMARK   10  A    between atoms: N_14  and  C_27
REMARK   11  A    between atoms: C_32  and  C_36
REMARK                            x       y       z     vdW  Elec       q    Type
REMARK                         _______ _______ _______ _____ _____    ______ ____
ROOT
ATOM      5  O   UNL     1      -7.760 -10.745  15.371  0.00  0.00    -0.369 OA
ATOM      6  O   UNL     1      -8.062 -10.248  18.392  0.00  0.00    -0.368 OA
ATOM     15  C   UNL     1      -8.224  -9.376  17.254  0.00  0.00    +0.171 C 
ATOM     16  C   UNL     1      -7.164  -9.769  16.244  0.00  0.00    +0.191 C 
ATOM     17  C   UNL     1      -9.525  -9.680  16.554  0.00  0.00    +0.133 C 
ATOM     18  C   UNL     1      -6.091 -10.379  17.114  0.00  0.00    +0.235 C 
ATOM     19  C   UNL     1      -9.161 -10.851  15.662  0.00  0.00    +0.183 C 
ATOM     20  C   UNL     1      -6.905 -11.071  18.185  0.00  0.00    +0.207 C 
ENDROOT
BRANCH  17  13
ATOM     13  N   UNL     1      -9.936  -8.525  15.722  0.00  0.00    -0.182 NA
ATOM     37  H   UNL     1      -9.252  -8.153  15.051  0.00  0.00    +0.148 HD
BRANCH  13   1
ATOM      1  S   UNL     1     -11.304  -7.618  16.152  0.00  0.00    +0.062 S 
ATOM      8  O   UNL     1     -10.900  -6.493  16.973  0.00  0.00    -0.153 OA
ATOM      9  O   UNL     1     -12.339  -8.524  16.614  0.00  0.00    -0.153 OA
BRANCH   1  21
ATOM     21  C   UNL     1     -11.832  -6.988  14.587  0.00  0.00    +0.150 A 
ATOM     23  C   UNL     1     -12.024  -7.842  13.500  0.00  0.00    +0.147 A 
ATOM     24  C   UNL     1     -12.057  -5.619  14.446  0.00  0.00    +0.077 A 
ATOM     25  C   UNL     1     -12.474  -5.103  13.220  0.00  0.00    +0.122 A 
ATOM     26  C   UNL     1     -12.442  -7.325  12.273  0.00  0.00    +0.051 A 
ATOM     28  C   UNL     1     -12.666  -5.955  12.133  0.00  0.00    +0.049 A 
BRANCH  23  11
ATOM     11  O   UNL     1     -11.811  -9.183  13.614  0.00  0.00    -0.493 OA
ATOM     31  C   UNL     1     -11.211  -9.840  12.501  0.00  0.00    +0.277 C 
ENDBRANCH  23  11
BRANCH  25  12
ATOM     12  O   UNL     1     -12.694  -3.766  13.083  0.00  0.00    -0.495 OA
ATOM     35  C   UNL     1     -13.571  -3.357  12.034  0.00  0.00    +0.277 C 
ENDBRANCH  25  12
ENDBRANCH   1  21
ENDBRANCH  13   1
ENDBRANCH  17  13
BRANCH  18   7
ATOM      7  O   UNL     1      -5.250 -11.275  16.425  0.00  0.00    -0.442 OA
BRANCH   7  22
ATOM     10  O   UNL     1      -3.305 -10.154  15.989  0.00  0.00    -0.226 OA
ATOM     14  N   UNL     1      -4.692 -10.926  14.268  0.00  0.00    -0.251 N 
ATOM     22  C   UNL     1      -4.310 -10.724  15.580  0.00  0.00    +0.405 C 
ATOM     38  H   UNL     1      -5.567 -11.425  14.126  0.00  0.00    +0.158 HD
BRANCH  14  27
ATOM     27  C   UNL     1      -4.018 -10.522  13.093  0.00  0.00    +0.037 A 
ATOM     29  C   UNL     1      -4.731  -9.942  12.043  0.00  0.00    +0.035 A 
ATOM     30  C   UNL     1      -2.639 -10.704  12.983  0.00  0.00    +0.023 A 
ATOM     32  C   UNL     1      -4.065  -9.544  10.884  0.00  0.00    +0.057 A 
ATOM     33  C   UNL     1      -1.973 -10.306  11.823  0.00  0.00    +0.002 A 
ATOM     34  C   UNL     1      -2.687  -9.726  10.774  0.00  0.00    +0.012 A 
BRANCH  32  36
ATOM      2  F   UNL     1      -5.084  -7.595   9.944  0.00  0.00    -0.166 F 
ATOM      3  F   UNL     1      -4.189  -9.002   8.558  0.00  0.00    -0.166 F 
ATOM      4  F   UNL     1      -6.045  -9.509   9.568  0.00  0.00    -0.166 F 
ATOM     36  C   UNL     1      -4.827  -8.925   9.762  0.00  0.00    +0.417 C 
ENDBRANCH  32  36
ENDBRANCH  14  27
ENDBRANCH   7  22
ENDBRANCH  18   7
TORSDOF 9
ENDMDL
MODEL 9
REMARK VINA RESULT:      -6.6     18.941     23.198
REMARK  Name = 11883409
REMARK  11 active torsions:
REMARK  status: ('A' for Active; 'I' for Inactive)
REMARK    1  A    between atoms: S_1  and  N_13
REMARK    2  A    between atoms: S_1  and  C_21
REMARK    3  A    between atoms: O_7  and  C_18
REMARK    4  A    between atoms: O_7  and  C_22
REMARK    5  A    between atoms: O_11  and  C_23
REMARK    6  A    between atoms: O_11  and  C_31
REMARK    7  A    between atoms: O_12  and  C_25
REMARK    8  A    between atoms: O_12  and  C_35
REMARK    9  A    between atoms: N_13  and  C_17
REMARK   10  A    between atoms: N_14  and  C_27
REMARK   11  A    between atoms: C_32  and  C_36
REMARK                            x       y       z     vdW  Elec       q    Type
REMARK                         _______ _______ _______ _____ _____    ______ ____
ROOT
ATOM      5  O   UNL     1       5.432   9.618   2.829  0.00  0.00    -0.369 OA
ATOM      6  O   UNL     1       6.473  12.415   3.575  0.00  0.00    -0.368 OA
ATOM     15  C   UNL     1       6.361  11.197   4.339  0.00  0.00    +0.171 C 
ATOM     16  C   UNL     1       5.081  10.516   3.896  0.00  0.00    +0.191 C 
ATOM     17  C   UNL     1       7.446  10.232   3.931  0.00  0.00    +0.133 C 
ATOM     18  C   UNL     1       4.247  11.674   3.401  0.00  0.00    +0.235 C 
ATOM     19  C   UNL     1       6.860   9.567   2.701  0.00  0.00    +0.183 C 
ATOM     20  C   UNL     1       5.291  12.573   2.777  0.00  0.00    +0.207 C 
ENDROOT
BRANCH  17  13
ATOM     13  N   UNL     1       7.653   9.222   4.996  0.00  0.00    -0.182 NA
ATOM     37  H   UNL     1       6.823   8.743   5.367  0.00  0.00    +0.148 HD
BRANCH  13   1
ATOM      1  S   UNL     1       9.129   9.167   5.833  0.00  0.00    +0.062 S 
ATOM      8  O   UNL     1       8.954   9.733   7.157  0.00  0.00    -0.153 OA
ATOM      9  O   UNL     1      10.179   9.661   4.962  0.00  0.00    -0.153 OA
BRANCH   1  21
ATOM     21  C   UNL     1       9.383   7.428   6.014  0.00  0.00    +0.150 A 
ATOM     23  C   UNL     1       9.231   6.566   4.927  0.00  0.00    +0.147 A 
ATOM     24  C   UNL     1       9.739   6.920   7.262  0.00  0.00    +0.077 A 
ATOM     25  C   UNL     1       9.945   5.550   7.425  0.00  0.00    +0.122 A 
ATOM     26  C   UNL     1       9.437   5.196   5.090  0.00  0.00    +0.051 A 
ATOM     28  C   UNL     1       9.793   4.688   6.339  0.00  0.00    +0.049 A 
BRANCH  23  11
ATOM     11  O   UNL     1       8.884   7.040   3.698  0.00  0.00    -0.493 OA
ATOM     31  C   UNL     1       9.788   6.786   2.626  0.00  0.00    +0.277 C 
ENDBRANCH  23  11
BRANCH  25  12
ATOM     12  O   UNL     1      10.293   5.053   8.644  0.00  0.00    -0.495 OA
ATOM     35  C   UNL     1       9.251   4.911   9.608  0.00  0.00    +0.277 C 
ENDBRANCH  25  12
ENDBRANCH   1  21
ENDBRANCH  13   1
ENDBRANCH  17  13
BRANCH  18   7
ATOM      7  O   UNL     1       3.252  11.296   2.478  0.00  0.00    -0.442 OA
BRANCH   7  22
ATOM     10  O   UNL     1       1.536  12.491   3.404  0.00  0.00    -0.226 OA
ATOM     14  N   UNL     1       1.216  10.329   2.565  0.00  0.00    -0.251 N 
ATOM     22  C   UNL     1       1.940  11.465   2.870  0.00  0.00    +0.405 C 
ATOM     38  H   UNL     1       1.731   9.574   2.119  0.00  0.00    +0.158 HD
BRANCH  14  27
ATOM     27  C   UNL     1      -0.157  10.083   2.797  0.00  0.00    +0.037 A 
ATOM     29  C   UNL     1      -0.571   9.523   4.005  0.00  0.00    +0.035 A 
ATOM     30  C   UNL     1      -1.097  10.399   1.816  0.00  0.00    +0.023 A 
ATOM     32  C   UNL     1      -1.925   9.280   4.233  0.00  0.00    +0.057 A 
ATOM     33  C   UNL     1      -2.452  10.157   2.045  0.00  0.00    +0.002 A 
ATOM     34  C   UNL     1      -2.865   9.597   3.254  0.00  0.00    +0.012 A 
BRANCH  32  36
ATOM      2  F   UNL     1      -3.520   9.228   6.016  0.00  0.00    -0.166 F 
ATOM      3  F   UNL     1      -2.613   7.340   5.452  0.00  0.00    -0.166 F 
ATOM      4  F   UNL     1      -1.442   8.829   6.518  0.00  0.00    -0.166 F 
ATOM     36  C   UNL     1      -2.367   8.681   5.526  0.00  0.00    +0.417 C 
ENDBRANCH  32  36
ENDBRANCH  14  27
ENDBRANCH   7  22
ENDBRANCH  18   7
TORSDOF 9
ENDMDL
MODEL 10
REMARK VINA RESULT:      -6.5     29.485     32.198
REMARK  Name = 11883409
REMARK  11 active torsions:
REMARK  status: ('A' for Active; 'I' for Inactive)
REMARK    1  A    between atoms: S_1  and  N_13
REMARK    2  A    between atoms: S_1  and  C_21
REMARK    3  A    between atoms: O_7  and  C_18
REMARK    4  A    between atoms: O_7  and  C_22
REMARK    5  A    between atoms: O_11  and  C_23
REMARK    6  A    between atoms: O_11  and  C_31
REMARK    7  A    between atoms: O_12  and  C_25
REMARK    8  A    between atoms: O_12  and  C_35
REMARK    9  A    between atoms: N_13  and  C_17
REMARK   10  A    between atoms: N_14  and  C_27
REMARK   11  A    between atoms: C_32  and  C_36
REMARK                            x       y       z     vdW  Elec       q    Type
REMARK                         _______ _______ _______ _____ _____    ______ ____
ROOT
ATOM      5  O   UNL     1     -12.805  -7.975  14.618  0.00  0.00    -0.369 OA
ATOM      6  O   UNL     1     -11.322  -5.822  16.240  0.00  0.00    -0.368 OA
ATOM     15  C   UNL     1     -11.615  -5.932  14.831  0.00  0.00    +0.171 C 
ATOM     16  C   UNL     1     -11.495  -7.400  14.471  0.00  0.00    +0.191 C 
ATOM     17  C   UNL     1     -13.068  -5.613  14.582  0.00  0.00    +0.133 C 
ATOM     18  C   UNL     1     -10.536  -7.918  15.516  0.00  0.00    +0.235 C 
ATOM     19  C   UNL     1     -13.757  -6.932  14.874  0.00  0.00    +0.183 C 
ATOM     20  C   UNL     1     -10.926  -7.109  16.733  0.00  0.00    +0.207 C 
ENDROOT
BRANCH  17  13
ATOM     13  N   UNL     1     -13.270  -5.247  13.160  0.00  0.00    -0.182 NA
ATOM     37  H   UNL     1     -12.470  -5.350  12.522  0.00  0.00    +0.148 HD
BRANCH  13   1
ATOM      1  S   UNL     1     -14.619  -4.321  12.709  0.00  0.00    +0.062 S 
ATOM      8  O   UNL     1     -14.684  -3.128  13.532  0.00  0.00    -0.153 OA
ATOM      9  O   UNL     1     -15.772  -5.196  12.602  0.00  0.00    -0.153 OA
BRANCH   1  21
ATOM     21  C   UNL     1     -14.192  -3.827  11.067  0.00  0.00    +0.150 A 
ATOM     23  C   UNL     1     -15.014  -2.964  10.342  0.00  0.00    +0.147 A 
ATOM     24  C   UNL     1     -13.016  -4.312  10.496  0.00  0.00    +0.077 A 
ATOM     25  C   UNL     1     -12.661  -3.934   9.201  0.00  0.00    +0.122 A 
ATOM     26  C   UNL     1     -14.659  -2.586   9.048  0.00  0.00    +0.051 A 
ATOM     28  C   UNL     1     -13.483  -3.072   8.477  0.00  0.00    +0.049 A 
BRANCH  23  11
ATOM     11  O   UNL     1     -16.168  -2.477  10.880  0.00  0.00    -0.493 OA
ATOM     31  C   UNL     1     -17.062  -1.806   9.995  0.00  0.00    +0.277 C 
ENDBRANCH  23  11
BRANCH  25  12
ATOM     12  O   UNL     1     -11.513  -4.408   8.644  0.00  0.00    -0.495 OA
ATOM     35  C   UNL     1     -10.829  -5.444   9.347  0.00  0.00    +0.277 C 
ENDBRANCH  25  12
ENDBRANCH   1  21
ENDBRANCH  13   1
ENDBRANCH  17  13
BRANCH  18   7
ATOM      7  O   UNL     1     -10.646  -9.304  15.742  0.00  0.00    -0.442 OA
BRANCH   7  22
ATOM     10  O   UNL     1     -10.162 -10.468  17.650  0.00  0.00    -0.226 OA
ATOM     14  N   UNL     1      -8.475  -9.606  16.276  0.00  0.00    -0.251 N 
ATOM     22  C   UNL     1      -9.778  -9.857  16.661  0.00  0.00    +0.405 C 
ATOM     38  H   UNL     1      -8.354  -9.076  15.416  0.00  0.00    +0.158 HD
BRANCH  14  27
ATOM     27  C   UNL     1      -7.283  -9.993  16.931  0.00  0.00    +0.037 A 
ATOM     29  C   UNL     1      -6.142 -10.290  16.187  0.00  0.00    +0.035 A 
ATOM     30  C   UNL     1      -7.250 -10.078  18.324  0.00  0.00    +0.023 A 
ATOM     32  C   UNL     1      -4.967 -10.673  16.835  0.00  0.00    +0.057 A 
ATOM     33  C   UNL     1      -6.075 -10.459  18.971  0.00  0.00    +0.002 A 
ATOM     34  C   UNL     1      -4.934 -10.757  18.226  0.00  0.00    +0.012 A 
BRANCH  32  36
ATOM      2  F   UNL     1      -3.648 -12.310  15.695  0.00  0.00    -0.166 F 
ATOM      3  F   UNL     1      -3.671 -10.310  14.858  0.00  0.00    -0.166 F 
ATOM      4  F   UNL     1      -2.593 -10.698  16.705  0.00  0.00    -0.166 F 
ATOM     36  C   UNL     1      -3.748 -10.991  16.038  0.00  0.00    +0.417 C 
ENDBRANCH  32  36
ENDBRANCH  14  27
ENDBRANCH   7  22
ENDBRANCH  18   7
TORSDOF 9
ENDMDL
