MODEL 1
REMARK VINA RESULT:      -7.2      0.000      0.000
REMARK  Name = 11912176
REMARK  9 active torsions:
REMARK  status: ('A' for Active; 'I' for Inactive)
REMARK    1  A    between atoms: O_3  and  C_24
REMARK    2  A    between atoms: O_3  and  C_30
REMARK    3  A    between atoms: N_5  and  C_17
REMARK    4  A    between atoms: N_6  and  C_18
REMARK    5  A    between atoms: C_7  and  C_13
REMARK    6  A    between atoms: C_8  and  C_12
REMARK    7  A    between atoms: C_12  and  C_14
REMARK    8  A    between atoms: C_13  and  C_16
REMARK    9  A    between atoms: C_17  and  C_19
REMARK                            x       y       z     vdW  Elec       q    Type
REMARK                         _______ _______ _______ _____ _____    ______ ____
ROOT
ATOM      1  O   UNL     1      10.326   8.722  21.957  0.00  0.00    -0.252 OA
ATOM      4  N   UNL     1      12.527   8.015  21.897  0.00  0.00    -0.285 N 
ATOM      6  N   UNL     1      11.942  10.012  23.009  0.00  0.00    -0.269 N 
ATOM      7  C   UNL     1      14.511   6.964  20.071  0.00  0.00    +0.004 C 
ATOM      8  C   UNL     1      14.822   8.185  20.977  0.00  0.00    +0.010 C 
ATOM      9  C   UNL     1      13.001   6.823  19.801  0.00  0.00    +0.023 C 
ATOM     10  C   UNL     1      13.952   8.121  22.244  0.00  0.00    +0.113 C 
ATOM     11  C   UNL     1      12.196   6.834  21.099  0.00  0.00    +0.109 C 
ATOM     15  C   UNL     1      11.503   8.908  22.279  0.00  0.00    +0.306 C 
ATOM     32  H   UNL     1      12.769   9.911  23.586  0.00  0.00    +0.156 HD
ENDROOT
BRANCH   6  18
ATOM     18  C   UNL     1      11.369  11.308  23.037  0.00  0.00    +0.038 A 
ATOM     20  C   UNL     1      11.354  12.088  21.881  0.00  0.00    +0.069 A 
ATOM     21  C   UNL     1      10.821  11.802  24.221  0.00  0.00    +0.023 A 
ATOM     24  C   UNL     1      10.790  13.364  21.909  0.00  0.00    +0.122 A 
ATOM     25  C   UNL     1      10.258  13.078  24.248  0.00  0.00    +0.005 A 
ATOM     26  C   UNL     1      10.243  13.859  23.093  0.00  0.00    +0.046 A 
BRANCH  24   3
ATOM      3  O   UNL     1      10.776  14.126  20.781  0.00  0.00    -0.495 OA
ATOM     30  C   UNL     1      10.201  15.427  20.885  0.00  0.00    +0.277 C 
ENDBRANCH  24   3
ENDBRANCH   6  18
BRANCH   8  12
ATOM     12  C   UNL     1      14.654   9.540  20.279  0.00  0.00    +0.002 C 
ATOM     14  C   UNL     1      15.960  10.305  20.247  0.00  0.00    +0.004 C 
ENDBRANCH   8  12
BRANCH   7  13
ATOM     13  C   UNL     1      15.294   6.975  18.759  0.00  0.00    +0.099 C 
BRANCH  13  16
ATOM      2  O   UNL     1      16.895   5.291  18.084  0.00  0.00    -0.276 OA
ATOM      5  N   UNL     1      17.356   6.633  19.925  0.00  0.00    -0.311 N 
ATOM     16  C   UNL     1      16.586   6.194  18.857  0.00  0.00    +0.214 C 
ATOM     31  H   UNL     1      17.018   7.401  20.498  0.00  0.00    +0.149 HD
BRANCH   5  17
ATOM     17  C   UNL     1      18.642   6.063  20.259  0.00  0.00    +0.139 C 
BRANCH  17  19
ATOM     19  C   UNL     1      19.316   6.810  21.373  0.00  0.00    -0.030 A 
ATOM     22  C   UNL     1      18.934   8.119  21.666  0.00  0.00    +0.005 A 
ATOM     23  C   UNL     1      20.323   6.195  22.116  0.00  0.00    +0.005 A 
ATOM     27  C   UNL     1      19.559   8.814  22.701  0.00  0.00    +0.000 A 
ATOM     28  C   UNL     1      20.949   6.890  23.152  0.00  0.00    +0.000 A 
ATOM     29  C   UNL     1      20.567   8.198  23.444  0.00  0.00    +0.000 A 
ENDBRANCH  17  19
ENDBRANCH   5  17
ENDBRANCH  13  16
ENDBRANCH   7  13
TORSDOF 7
ENDMDL
MODEL 2
REMARK VINA RESULT:      -6.9      1.498      1.939
REMARK  Name = 11912176
REMARK  9 active torsions:
REMARK  status: ('A' for Active; 'I' for Inactive)
REMARK    1  A    between atoms: O_3  and  C_24
REMARK    2  A    between atoms: O_3  and  C_30
REMARK    3  A    between atoms: N_5  and  C_17
REMARK    4  A    between atoms: N_6  and  C_18
REMARK    5  A    between atoms: C_7  and  C_13
REMARK    6  A    between atoms: C_8  and  C_12
REMARK    7  A    between atoms: C_12  and  C_14
REMARK    8  A    between atoms: C_13  and  C_16
REMARK    9  A    between atoms: C_17  and  C_19
REMARK                            x       y       z     vdW  Elec       q    Type
REMARK                         _______ _______ _______ _____ _____    ______ ____
ROOT
ATOM      1  O   UNL     1       9.692   9.595  23.017  0.00  0.00    -0.252 OA
ATOM      4  N   UNL     1      11.710   8.856  22.164  0.00  0.00    -0.285 N 
ATOM      6  N   UNL     1      11.634  10.719  23.609  0.00  0.00    -0.269 N 
ATOM      7  C   UNL     1      12.930   7.989  19.687  0.00  0.00    +0.004 C 
ATOM      8  C   UNL     1      13.589   9.088  20.563  0.00  0.00    +0.010 C 
ATOM      9  C   UNL     1      11.409   7.911  19.915  0.00  0.00    +0.023 C 
ATOM     10  C   UNL     1      13.174   8.892  22.032  0.00  0.00    +0.113 C 
ATOM     11  C   UNL     1      11.070   7.785  21.400  0.00  0.00    +0.109 C 
ATOM     15  C   UNL     1      10.919   9.718  22.952  0.00  0.00    +0.306 C 
ATOM     32  H   UNL     1      12.595  10.534  23.868  0.00  0.00    +0.156 HD
ENDROOT
BRANCH   6  18
ATOM     18  C   UNL     1      11.177  12.013  23.961  0.00  0.00    +0.038 A 
ATOM     20  C   UNL     1      10.942  12.963  22.966  0.00  0.00    +0.069 A 
ATOM     21  C   UNL     1      10.962  12.338  25.300  0.00  0.00    +0.023 A 
ATOM     24  C   UNL     1      10.493  14.238  23.312  0.00  0.00    +0.122 A 
ATOM     25  C   UNL     1      10.513  13.612  25.645  0.00  0.00    +0.005 A 
ATOM     26  C   UNL     1      10.278  14.562  24.651  0.00  0.00    +0.046 A 
BRANCH  24   3
ATOM      3  O   UNL     1      10.265  15.165  22.342  0.00  0.00    -0.495 OA
ATOM     30  C   UNL     1      10.315  14.715  20.989  0.00  0.00    +0.277 C 
ENDBRANCH  24   3
ENDBRANCH   6  18
BRANCH   8  12
ATOM     12  C   UNL     1      13.282  10.519  20.106  0.00  0.00    +0.002 C 
ATOM     14  C   UNL     1      14.553  11.271  19.771  0.00  0.00    +0.004 C 
ENDBRANCH   8  12
BRANCH   7  13
ATOM     13  C   UNL     1      13.245   8.139  18.199  0.00  0.00    +0.099 C 
BRANCH  13  16
ATOM      2  O   UNL     1      14.882   7.275  16.641  0.00  0.00    -0.276 OA
ATOM      5  N   UNL     1      15.162   6.899  18.918  0.00  0.00    -0.311 N 
ATOM     16  C   UNL     1      14.506   7.402  17.804  0.00  0.00    +0.214 C 
ATOM     31  H   UNL     1      14.777   7.074  19.841  0.00  0.00    +0.149 HD
BRANCH   5  17
ATOM     17  C   UNL     1      16.394   6.149  18.837  0.00  0.00    +0.139 C 
BRANCH  17  19
ATOM     19  C   UNL     1      17.399   6.606  19.854  0.00  0.00    -0.030 A 
ATOM     22  C   UNL     1      17.141   7.736  20.629  0.00  0.00    +0.005 A 
ATOM     23  C   UNL     1      18.590   5.899  20.025  0.00  0.00    +0.005 A 
ATOM     27  C   UNL     1      18.074   8.161  21.575  0.00  0.00    +0.000 A 
ATOM     28  C   UNL     1      19.523   6.324  20.971  0.00  0.00    +0.000 A 
ATOM     29  C   UNL     1      19.265   7.455  21.746  0.00  0.00    +0.000 A 
ENDBRANCH  17  19
ENDBRANCH   5  17
ENDBRANCH  13  16
ENDBRANCH   7  13
TORSDOF 7
ENDMDL
MODEL 3
REMARK VINA RESULT:      -6.6     27.254     30.091
REMARK  Name = 11912176
REMARK  9 active torsions:
REMARK  status: ('A' for Active; 'I' for Inactive)
REMARK    1  A    between atoms: O_3  and  C_24
REMARK    2  A    between atoms: O_3  and  C_30
REMARK    3  A    between atoms: N_5  and  C_17
REMARK    4  A    between atoms: N_6  and  C_18
REMARK    5  A    between atoms: C_7  and  C_13
REMARK    6  A    between atoms: C_8  and  C_12
REMARK    7  A    between atoms: C_12  and  C_14
REMARK    8  A    between atoms: C_13  and  C_16
REMARK    9  A    between atoms: C_17  and  C_19
REMARK                            x       y       z     vdW  Elec       q    Type
REMARK                         _______ _______ _______ _____ _____    ______ ____
ROOT
ATOM      1  O   UNL     1      -7.884 -14.253  17.146  0.00  0.00    -0.252 OA
ATOM      4  N   UNL     1      -5.812 -13.388  17.701  0.00  0.00    -0.285 N 
ATOM      6  N   UNL     1      -7.598 -13.297  19.241  0.00  0.00    -0.269 N 
ATOM      7  C   UNL     1      -3.696 -11.735  16.623  0.00  0.00    +0.004 C 
ATOM      8  C   UNL     1      -4.301 -11.450  18.023  0.00  0.00    +0.010 C 
ATOM      9  C   UNL     1      -4.687 -12.483  15.712  0.00  0.00    +0.023 C 
ATOM     10  C   UNL     1      -4.855 -12.755  18.620  0.00  0.00    +0.113 C 
ATOM     11  C   UNL     1      -5.246 -13.730  16.395  0.00  0.00    +0.109 C 
ATOM     15  C   UNL     1      -7.161 -13.698  17.979  0.00  0.00    +0.306 C 
ATOM     32  H   UNL     1      -6.921 -13.253  19.993  0.00  0.00    +0.156 HD
ENDROOT
BRANCH   6  18
ATOM     18  C   UNL     1      -8.910 -12.915  19.615  0.00  0.00    +0.038 A 
ATOM     20  C   UNL     1      -9.451 -11.721  19.137  0.00  0.00    +0.069 A 
ATOM     21  C   UNL     1      -9.659 -13.731  20.463  0.00  0.00    +0.023 A 
ATOM     24  C   UNL     1     -10.742 -11.344  19.507  0.00  0.00    +0.122 A 
ATOM     25  C   UNL     1     -10.950 -13.354  20.832  0.00  0.00    +0.005 A 
ATOM     26  C   UNL     1     -11.491 -12.161  20.354  0.00  0.00    +0.046 A 
BRANCH  24   3
ATOM      3  O   UNL     1     -11.271 -10.179  19.041  0.00  0.00    -0.495 OA
ATOM     30  C   UNL     1     -10.461  -9.408  18.156  0.00  0.00    +0.277 C 
ENDBRANCH  24   3
ENDBRANCH   6  18
BRANCH   8  12
ATOM     12  C   UNL     1      -5.379 -10.359  18.026  0.00  0.00    +0.002 C 
ATOM     14  C   UNL     1      -6.047 -10.253  19.381  0.00  0.00    +0.004 C 
ENDBRANCH   8  12
BRANCH   7  13
ATOM     13  C   UNL     1      -3.168 -10.480  15.929  0.00  0.00    +0.099 C 
BRANCH  13  16
ATOM      2  O   UNL     1      -1.196 -11.499  14.967  0.00  0.00    -0.276 OA
ATOM      5  N   UNL     1      -2.595 -10.223  13.619  0.00  0.00    -0.311 N 
ATOM     16  C   UNL     1      -2.199 -10.807  14.814  0.00  0.00    +0.214 C 
ATOM     31  H   UNL     1      -3.453  -9.680  13.593  0.00  0.00    +0.149 HD
BRANCH   5  17
ATOM     17  C   UNL     1      -1.854 -10.366  12.386  0.00  0.00    +0.139 C 
BRANCH  17  19
ATOM     19  C   UNL     1      -2.759 -10.418  11.190  0.00  0.00    -0.030 A 
ATOM     22  C   UNL     1      -3.025  -9.256  10.466  0.00  0.00    +0.005 A 
ATOM     23  C   UNL     1      -3.333 -11.629  10.802  0.00  0.00    +0.005 A 
ATOM     27  C   UNL     1      -3.865  -9.303   9.354  0.00  0.00    +0.000 A 
ATOM     28  C   UNL     1      -4.173 -11.676   9.688  0.00  0.00    +0.000 A 
ATOM     29  C   UNL     1      -4.439 -10.514   8.965  0.00  0.00    +0.000 A 
ENDBRANCH  17  19
ENDBRANCH   5  17
ENDBRANCH  13  16
ENDBRANCH   7  13
TORSDOF 7
ENDMDL
MODEL 4
REMARK VINA RESULT:      -6.5     17.888     20.890
REMARK  Name = 11912176
REMARK  9 active torsions:
REMARK  status: ('A' for Active; 'I' for Inactive)
REMARK    1  A    between atoms: O_3  and  C_24
REMARK    2  A    between atoms: O_3  and  C_30
REMARK    3  A    between atoms: N_5  and  C_17
REMARK    4  A    between atoms: N_6  and  C_18
REMARK    5  A    between atoms: C_7  and  C_13
REMARK    6  A    between atoms: C_8  and  C_12
REMARK    7  A    between atoms: C_12  and  C_14
REMARK    8  A    between atoms: C_13  and  C_16
REMARK    9  A    between atoms: C_17  and  C_19
REMARK                            x       y       z     vdW  Elec       q    Type
REMARK                         _______ _______ _______ _____ _____    ______ ____
ROOT
ATOM      1  O   UNL     1      13.516   7.374   5.242  0.00  0.00    -0.252 OA
ATOM      4  N   UNL     1      13.133   6.941   3.003  0.00  0.00    -0.285 N 
ATOM      6  N   UNL     1      11.332   7.389   4.459  0.00  0.00    -0.269 N 
ATOM      7  C   UNL     1      13.909   5.119   0.893  0.00  0.00    +0.004 C 
ATOM      8  C   UNL     1      12.414   5.404   1.197  0.00  0.00    +0.010 C 
ATOM      9  C   UNL     1      14.800   5.362   2.125  0.00  0.00    +0.023 C 
ATOM     10  C   UNL     1      12.272   6.803   1.819  0.00  0.00    +0.113 C 
ATOM     11  C   UNL     1      14.557   6.745   2.729  0.00  0.00    +0.109 C 
ATOM     15  C   UNL     1      12.712   7.257   4.312  0.00  0.00    +0.306 C 
ATOM     32  H   UNL     1      10.790   7.702   3.662  0.00  0.00    +0.156 HD
ENDROOT
BRANCH   6  18
ATOM     18  C   UNL     1      10.560   7.120   5.616  0.00  0.00    +0.038 A 
ATOM     20  C   UNL     1      10.584   5.847   6.188  0.00  0.00    +0.069 A 
ATOM     21  C   UNL     1       9.777   8.125   6.183  0.00  0.00    +0.023 A 
ATOM     24  C   UNL     1       9.823   5.581   7.327  0.00  0.00    +0.122 A 
ATOM     25  C   UNL     1       9.017   7.858   7.321  0.00  0.00    +0.005 A 
ATOM     26  C   UNL     1       9.040   6.587   7.894  0.00  0.00    +0.046 A 
BRANCH  24   3
ATOM      3  O   UNL     1       9.845   4.340   7.885  0.00  0.00    -0.495 OA
ATOM     30  C   UNL     1       9.415   4.230   9.241  0.00  0.00    +0.277 C 
ENDBRANCH  24   3
ENDBRANCH   6  18
BRANCH   8  12
ATOM     12  C   UNL     1      11.747   4.350   2.089  0.00  0.00    +0.002 C 
ATOM     14  C   UNL     1      10.280   4.660   2.298  0.00  0.00    +0.004 C 
ENDBRANCH   8  12
BRANCH   7  13
ATOM     13  C   UNL     1      14.151   3.723   0.320  0.00  0.00    +0.099 C 
BRANCH  13  16
ATOM      2  O   UNL     1      14.248   4.129  -2.063  0.00  0.00    -0.276 OA
ATOM      5  N   UNL     1      12.527   2.828  -1.195  0.00  0.00    -0.311 N 
ATOM     16  C   UNL     1      13.677   3.602  -1.112  0.00  0.00    +0.214 C 
ATOM     31  H   UNL     1      12.141   2.422  -0.348  0.00  0.00    +0.149 HD
BRANCH   5  17
ATOM     17  C   UNL     1      11.853   2.547  -2.442  0.00  0.00    +0.139 C 
BRANCH  17  19
ATOM     19  C   UNL     1      10.718   3.497  -2.694  0.00  0.00    -0.030 A 
ATOM     22  C   UNL     1      10.433   4.503  -1.771  0.00  0.00    +0.005 A 
ATOM     23  C   UNL     1       9.949   3.373  -3.851  0.00  0.00    +0.005 A 
ATOM     27  C   UNL     1       9.379   5.386  -2.004  0.00  0.00    +0.000 A 
ATOM     28  C   UNL     1       8.895   4.257  -4.085  0.00  0.00    +0.000 A 
ATOM     29  C   UNL     1       8.610   5.262  -3.161  0.00  0.00    +0.000 A 
ENDBRANCH  17  19
ENDBRANCH   5  17
ENDBRANCH  13  16
ENDBRANCH   7  13
TORSDOF 7
ENDMDL
MODEL 5
REMARK VINA RESULT:      -6.5     27.848     30.448
REMARK  Name = 11912176
REMARK  9 active torsions:
REMARK  status: ('A' for Active; 'I' for Inactive)
REMARK    1  A    between atoms: O_3  and  C_24
REMARK    2  A    between atoms: O_3  and  C_30
REMARK    3  A    between atoms: N_5  and  C_17
REMARK    4  A    between atoms: N_6  and  C_18
REMARK    5  A    between atoms: C_7  and  C_13
REMARK    6  A    between atoms: C_8  and  C_12
REMARK    7  A    between atoms: C_12  and  C_14
REMARK    8  A    between atoms: C_13  and  C_16
REMARK    9  A    between atoms: C_17  and  C_19
REMARK                            x       y       z     vdW  Elec       q    Type
REMARK                         _______ _______ _______ _____ _____    ______ ____
ROOT
ATOM      1  O   UNL     1      -2.338 -11.106  15.277  0.00  0.00    -0.252 OA
ATOM      4  N   UNL     1      -4.353 -11.834  16.148  0.00  0.00    -0.285 N 
ATOM      6  N   UNL     1      -4.100 -11.515  13.824  0.00  0.00    -0.269 N 
ATOM      7  C   UNL     1      -6.212 -11.285  18.296  0.00  0.00    +0.004 C 
ATOM      8  C   UNL     1      -6.695 -11.389  16.825  0.00  0.00    +0.010 C 
ATOM      9  C   UNL     1      -4.727 -10.885  18.384  0.00  0.00    +0.023 C 
ATOM     10  C   UNL     1      -5.742 -12.301  16.034  0.00  0.00    +0.113 C 
ATOM     11  C   UNL     1      -3.850 -11.792  17.521  0.00  0.00    +0.109 C 
ATOM     15  C   UNL     1      -3.503 -11.466  15.083  0.00  0.00    +0.306 C 
ATOM     32  H   UNL     1      -4.847 -12.181  13.670  0.00  0.00    +0.156 HD
ENDROOT
BRANCH   6  18
ATOM     18  C   UNL     1      -3.796 -10.713  12.696  0.00  0.00    +0.038 A 
ATOM     20  C   UNL     1      -4.801  -9.966  12.080  0.00  0.00    +0.069 A 
ATOM     21  C   UNL     1      -2.492 -10.671  12.201  0.00  0.00    +0.023 A 
ATOM     24  C   UNL     1      -4.501  -9.178  10.969  0.00  0.00    +0.122 A 
ATOM     25  C   UNL     1      -2.194  -9.883  11.090  0.00  0.00    +0.005 A 
ATOM     26  C   UNL     1      -3.198  -9.136  10.474  0.00  0.00    +0.046 A 
BRANCH  24   3
ATOM      3  O   UNL     1      -5.482  -8.450  10.367  0.00  0.00    -0.495 OA
ATOM     30  C   UNL     1      -6.460  -9.171   9.620  0.00  0.00    +0.277 C 
ENDBRANCH  24   3
ENDBRANCH   6  18
BRANCH   8  12
ATOM     12  C   UNL     1      -6.850 -10.035  16.122  0.00  0.00    +0.002 C 
ATOM     14  C   UNL     1      -7.429 -10.204  14.733  0.00  0.00    +0.004 C 
ENDBRANCH   8  12
BRANCH   7  13
ATOM     13  C   UNL     1      -7.073 -10.351  19.147  0.00  0.00    +0.099 C 
BRANCH  13  16
ATOM      2  O   UNL     1      -8.953 -11.825  19.525  0.00  0.00    -0.276 OA
ATOM      5  N   UNL     1      -9.316  -9.724  18.599  0.00  0.00    -0.311 N 
ATOM     16  C   UNL     1      -8.534 -10.742  19.125  0.00  0.00    +0.214 C 
ATOM     31  H   UNL     1      -8.874  -8.856  18.311  0.00  0.00    +0.149 HD
BRANCH   5  17
ATOM     17  C   UNL     1     -10.751  -9.824  18.456  0.00  0.00    +0.139 C 
BRANCH  17  19
ATOM     19  C   UNL     1     -11.302  -8.760  17.552  0.00  0.00    -0.030 A 
ATOM     22  C   UNL     1     -10.495  -7.691  17.161  0.00  0.00    +0.005 A 
ATOM     23  C   UNL     1     -12.620  -8.840  17.103  0.00  0.00    +0.005 A 
ATOM     27  C   UNL     1     -11.006  -6.702  16.321  0.00  0.00    +0.000 A 
ATOM     28  C   UNL     1     -13.131  -7.850  16.262  0.00  0.00    +0.000 A 
ATOM     29  C   UNL     1     -12.324  -6.782  15.872  0.00  0.00    +0.000 A 
ENDBRANCH  17  19
ENDBRANCH   5  17
ENDBRANCH  13  16
ENDBRANCH   7  13
TORSDOF 7
ENDMDL
MODEL 6
REMARK VINA RESULT:      -6.5      4.222      8.178
REMARK  Name = 11912176
REMARK  9 active torsions:
REMARK  status: ('A' for Active; 'I' for Inactive)
REMARK    1  A    between atoms: O_3  and  C_24
REMARK    2  A    between atoms: O_3  and  C_30
REMARK    3  A    between atoms: N_5  and  C_17
REMARK    4  A    between atoms: N_6  and  C_18
REMARK    5  A    between atoms: C_7  and  C_13
REMARK    6  A    between atoms: C_8  and  C_12
REMARK    7  A    between atoms: C_12  and  C_14
REMARK    8  A    between atoms: C_13  and  C_16
REMARK    9  A    between atoms: C_17  and  C_19
REMARK                            x       y       z     vdW  Elec       q    Type
REMARK                         _______ _______ _______ _____ _____    ______ ____
ROOT
ATOM      1  O   UNL     1      14.182   8.291  15.638  0.00  0.00    -0.252 OA
ATOM      4  N   UNL     1      12.654   8.678  17.330  0.00  0.00    -0.285 N 
ATOM      6  N   UNL     1      13.322  10.430  15.898  0.00  0.00    -0.269 N 
ATOM      7  C   UNL     1      12.206   8.122  20.134  0.00  0.00    +0.004 C 
ATOM      8  C   UNL     1      12.107   9.568  19.578  0.00  0.00    +0.010 C 
ATOM      9  C   UNL     1      13.118   7.236  19.266  0.00  0.00    +0.023 C 
ATOM     10  C   UNL     1      11.719   9.520  18.090  0.00  0.00    +0.113 C 
ATOM     11  C   UNL     1      12.716   7.291  17.793  0.00  0.00    +0.109 C 
ATOM     15  C   UNL     1      13.439   9.080  16.228  0.00  0.00    +0.306 C 
ATOM     32  H   UNL     1      12.448  10.901  16.099  0.00  0.00    +0.156 HD
ENDROOT
BRANCH   6  18
ATOM     18  C   UNL     1      14.309  11.260  15.311  0.00  0.00    +0.038 A 
ATOM     20  C   UNL     1      14.065  11.867  14.079  0.00  0.00    +0.069 A 
ATOM     21  C   UNL     1      15.523  11.470  15.965  0.00  0.00    +0.023 A 
ATOM     24  C   UNL     1      15.037  12.684  13.500  0.00  0.00    +0.122 A 
ATOM     25  C   UNL     1      16.494  12.287  15.386  0.00  0.00    +0.005 A 
ATOM     26  C   UNL     1      16.252  12.894  14.154  0.00  0.00    +0.046 A 
BRANCH  24   3
ATOM      3  O   UNL     1      14.800  13.276  12.298  0.00  0.00    -0.495 OA
ATOM     30  C   UNL     1      15.790  14.183  11.815  0.00  0.00    +0.277 C 
ENDBRANCH  24   3
ENDBRANCH   6  18
BRANCH   8  12
ATOM     12  C   UNL     1      13.378  10.402  19.775  0.00  0.00    +0.002 C 
ATOM     14  C   UNL     1      13.233  11.775  19.156  0.00  0.00    +0.004 C 
ENDBRANCH   8  12
BRANCH   7  13
ATOM     13  C   UNL     1      12.641   8.071  21.599  0.00  0.00    +0.099 C 
BRANCH  13  16
ATOM      2  O   UNL     1      10.500   8.127  22.723  0.00  0.00    -0.276 OA
ATOM      5  N   UNL     1      12.038   9.826  23.111  0.00  0.00    -0.311 N 
ATOM     16  C   UNL     1      11.594   8.648  22.527  0.00  0.00    +0.214 C 
ATOM     31  H   UNL     1      12.970  10.166  22.895  0.00  0.00    +0.149 HD
BRANCH   5  17
ATOM     17  C   UNL     1      11.242  10.595  24.041  0.00  0.00    +0.139 C 
BRANCH  17  19
ATOM     19  C   UNL     1      10.884  11.945  23.491  0.00  0.00    -0.030 A 
ATOM     22  C   UNL     1      10.320  12.910  24.325  0.00  0.00    +0.005 A 
ATOM     23  C   UNL     1      11.115  12.235  22.146  0.00  0.00    +0.005 A 
ATOM     27  C   UNL     1       9.988  14.165  23.816  0.00  0.00    +0.000 A 
ATOM     28  C   UNL     1      10.783  13.490  21.636  0.00  0.00    +0.000 A 
ATOM     29  C   UNL     1      10.219  14.455  22.471  0.00  0.00    +0.000 A 
ENDBRANCH  17  19
ENDBRANCH   5  17
ENDBRANCH  13  16
ENDBRANCH   7  13
TORSDOF 7
ENDMDL
MODEL 7
REMARK VINA RESULT:      -6.5     28.230     29.605
REMARK  Name = 11912176
REMARK  9 active torsions:
REMARK  status: ('A' for Active; 'I' for Inactive)
REMARK    1  A    between atoms: O_3  and  C_24
REMARK    2  A    between atoms: O_3  and  C_30
REMARK    3  A    between atoms: N_5  and  C_17
REMARK    4  A    between atoms: N_6  and  C_18
REMARK    5  A    between atoms: C_7  and  C_13
REMARK    6  A    between atoms: C_8  and  C_12
REMARK    7  A    between atoms: C_12  and  C_14
REMARK    8  A    between atoms: C_13  and  C_16
REMARK    9  A    between atoms: C_17  and  C_19
REMARK                            x       y       z     vdW  Elec       q    Type
REMARK                         _______ _______ _______ _____ _____    ______ ____
ROOT
ATOM      1  O   UNL     1      -8.369 -11.564  19.128  0.00  0.00    -0.252 OA
ATOM      4  N   UNL     1      -6.335 -11.113  18.124  0.00  0.00    -0.285 N 
ATOM      6  N   UNL     1      -8.065  -9.508  18.097  0.00  0.00    -0.269 N 
ATOM      7  C   UNL     1      -4.366 -12.315  16.378  0.00  0.00    +0.004 C 
ATOM      8  C   UNL     1      -4.936 -10.901  16.090  0.00  0.00    +0.010 C 
ATOM      9  C   UNL     1      -5.342 -13.167  17.210  0.00  0.00    +0.023 C 
ATOM     10  C   UNL     1      -5.386 -10.249  17.408  0.00  0.00    +0.113 C 
ATOM     11  C   UNL     1      -5.798 -12.430  18.468  0.00  0.00    +0.109 C 
ATOM     15  C   UNL     1      -7.651 -10.775  18.507  0.00  0.00    +0.306 C 
ATOM     32  H   UNL     1      -7.365  -8.784  17.991  0.00  0.00    +0.156 HD
ENDROOT
BRANCH   6  18
ATOM     18  C   UNL     1      -9.383  -9.093  17.784  0.00  0.00    +0.038 A 
ATOM     20  C   UNL     1      -9.588  -7.983  16.964  0.00  0.00    +0.069 A 
ATOM     21  C   UNL     1     -10.475  -9.793  18.297  0.00  0.00    +0.023 A 
ATOM     24  C   UNL     1     -10.886  -7.574  16.657  0.00  0.00    +0.122 A 
ATOM     25  C   UNL     1     -11.772  -9.383  17.990  0.00  0.00    +0.005 A 
ATOM     26  C   UNL     1     -11.978  -8.274  17.170  0.00  0.00    +0.046 A 
BRANCH  24   3
ATOM      3  O   UNL     1     -11.086  -6.490  15.858  0.00  0.00    -0.495 OA
ATOM     30  C   UNL     1     -12.438  -6.117  15.598  0.00  0.00    +0.277 C 
ENDBRANCH  24   3
ENDBRANCH   6  18
BRANCH   8  12
ATOM     12  C   UNL     1      -6.077 -10.884  15.066  0.00  0.00    +0.002 C 
ATOM     14  C   UNL     1      -5.757  -9.969  13.903  0.00  0.00    +0.004 C 
ENDBRANCH   8  12
BRANCH   7  13
ATOM     13  C   UNL     1      -3.942 -13.061  15.113  0.00  0.00    +0.099 C 
BRANCH  13  16
ATOM      2  O   UNL     1      -1.806 -11.948  14.892  0.00  0.00    -0.276 OA
ATOM      5  N   UNL     1      -3.169 -12.186  13.024  0.00  0.00    -0.311 N 
ATOM     16  C   UNL     1      -2.843 -12.340  14.364  0.00  0.00    +0.214 C 
ATOM     31  H   UNL     1      -4.048 -12.562  12.681  0.00  0.00    +0.149 HD
BRANCH   5  17
ATOM     17  C   UNL     1      -2.303 -11.529  12.071  0.00  0.00    +0.139 C 
BRANCH  17  19
ATOM     19  C   UNL     1      -3.072 -10.951  10.918  0.00  0.00    -0.030 A 
ATOM     22  C   UNL     1      -3.873 -11.777  10.130  0.00  0.00    +0.005 A 
ATOM     23  C   UNL     1      -2.986  -9.587  10.637  0.00  0.00    +0.005 A 
ATOM     27  C   UNL     1      -4.587 -11.240   9.059  0.00  0.00    +0.000 A 
ATOM     28  C   UNL     1      -3.701  -9.050   9.566  0.00  0.00    +0.000 A 
ATOM     29  C   UNL     1      -4.501  -9.877   8.778  0.00  0.00    +0.000 A 
ENDBRANCH  17  19
ENDBRANCH   5  17
ENDBRANCH  13  16
ENDBRANCH   7  13
TORSDOF 7
ENDMDL
MODEL 8
REMARK VINA RESULT:      -6.5     27.518     30.190
REMARK  Name = 11912176
REMARK  9 active torsions:
REMARK  status: ('A' for Active; 'I' for Inactive)
REMARK    1  A    between atoms: O_3  and  C_24
REMARK    2  A    between atoms: O_3  and  C_30
REMARK    3  A    between atoms: N_5  and  C_17
REMARK    4  A    between atoms: N_6  and  C_18
REMARK    5  A    between atoms: C_7  and  C_13
REMARK    6  A    between atoms: C_8  and  C_12
REMARK    7  A    between atoms: C_12  and  C_14
REMARK    8  A    between atoms: C_13  and  C_16
REMARK    9  A    between atoms: C_17  and  C_19
REMARK                            x       y       z     vdW  Elec       q    Type
REMARK                         _______ _______ _______ _____ _____    ______ ____
ROOT
ATOM      1  O   UNL     1      -2.172 -10.295  13.361  0.00  0.00    -0.252 OA
ATOM      4  N   UNL     1      -3.578 -11.459  14.780  0.00  0.00    -0.285 N 
ATOM      6  N   UNL     1      -4.218 -11.029  12.550  0.00  0.00    -0.269 N 
ATOM      7  C   UNL     1      -4.639 -11.377  17.471  0.00  0.00    +0.004 C 
ATOM      8  C   UNL     1      -5.576 -11.541  16.245  0.00  0.00    +0.010 C 
ATOM      9  C   UNL     1      -3.322 -10.673  17.095  0.00  0.00    +0.023 C 
ATOM     10  C   UNL     1      -4.804 -12.208  15.093  0.00  0.00    +0.113 C 
ATOM     11  C   UNL     1      -2.646 -11.348  15.902  0.00  0.00    +0.109 C 
ATOM     15  C   UNL     1      -3.240 -10.889  13.534  0.00  0.00    +0.306 C 
ATOM     32  H   UNL     1      -4.830 -11.835  12.590  0.00  0.00    +0.156 HD
ENDROOT
BRANCH   6  18
ATOM     18  C   UNL     1      -4.484 -10.151  11.471  0.00  0.00    +0.038 A 
ATOM     20  C   UNL     1      -5.788  -9.713  11.234  0.00  0.00    +0.069 A 
ATOM     21  C   UNL     1      -3.444  -9.725  10.644  0.00  0.00    +0.023 A 
ATOM     24  C   UNL     1      -6.050  -8.849  10.171  0.00  0.00    +0.122 A 
ATOM     25  C   UNL     1      -3.707  -8.861   9.582  0.00  0.00    +0.005 A 
ATOM     26  C   UNL     1      -5.010  -8.423   9.345  0.00  0.00    +0.046 A 
BRANCH  24   3
ATOM      3  O   UNL     1      -7.322  -8.421   9.940  0.00  0.00    -0.495 OA
ATOM     30  C   UNL     1      -7.565  -7.747   8.707  0.00  0.00    +0.277 C 
ENDBRANCH  24   3
ENDBRANCH   6  18
BRANCH   8  12
ATOM     12  C   UNL     1      -6.221 -10.233  15.772  0.00  0.00    +0.002 C 
ATOM     14  C   UNL     1      -7.430 -10.502  14.902  0.00  0.00    +0.004 C 
ENDBRANCH   8  12
BRANCH   7  13
ATOM     13  C   UNL     1      -5.310 -10.671  18.649  0.00  0.00    +0.099 C 
BRANCH  13  16
ATOM      2  O   UNL     1      -6.780 -12.486  19.281  0.00  0.00    -0.276 OA
ATOM      5  N   UNL     1      -7.658 -10.353  18.986  0.00  0.00    -0.311 N 
ATOM     16  C   UNL     1      -6.640 -11.296  19.009  0.00  0.00    +0.214 C 
ATOM     31  H   UNL     1      -7.435  -9.388  18.764  0.00  0.00    +0.149 HD
BRANCH   5  17
ATOM     17  C   UNL     1      -9.036 -10.672  19.287  0.00  0.00    +0.139 C 
BRANCH  17  19
ATOM     19  C   UNL     1      -9.993  -9.859  18.464  0.00  0.00    -0.030 A 
ATOM     22  C   UNL     1     -11.368 -10.032  18.621  0.00  0.00    +0.005 A 
ATOM     23  C   UNL     1      -9.507  -8.930  17.544  0.00  0.00    +0.005 A 
ATOM     27  C   UNL     1     -12.258  -9.277  17.857  0.00  0.00    +0.000 A 
ATOM     28  C   UNL     1     -10.398  -8.174  16.780  0.00  0.00    +0.000 A 
ATOM     29  C   UNL     1     -11.772  -8.348  16.937  0.00  0.00    +0.000 A 
ENDBRANCH  17  19
ENDBRANCH   5  17
ENDBRANCH  13  16
ENDBRANCH   7  13
TORSDOF 7
ENDMDL
MODEL 9
REMARK VINA RESULT:      -6.5      3.040      4.970
REMARK  Name = 11912176
REMARK  9 active torsions:
REMARK  status: ('A' for Active; 'I' for Inactive)
REMARK    1  A    between atoms: O_3  and  C_24
REMARK    2  A    between atoms: O_3  and  C_30
REMARK    3  A    between atoms: N_5  and  C_17
REMARK    4  A    between atoms: N_6  and  C_18
REMARK    5  A    between atoms: C_7  and  C_13
REMARK    6  A    between atoms: C_8  and  C_12
REMARK    7  A    between atoms: C_12  and  C_14
REMARK    8  A    between atoms: C_13  and  C_16
REMARK    9  A    between atoms: C_17  and  C_19
REMARK                            x       y       z     vdW  Elec       q    Type
REMARK                         _______ _______ _______ _____ _____    ______ ____
ROOT
ATOM      1  O   UNL     1      10.357   8.668  22.339  0.00  0.00    -0.252 OA
ATOM      4  N   UNL     1      12.550   8.066  21.921  0.00  0.00    -0.285 N 
ATOM      6  N   UNL     1      12.060  10.026  23.139  0.00  0.00    -0.269 N 
ATOM      7  C   UNL     1      14.262   7.121  19.788  0.00  0.00    +0.004 C 
ATOM      8  C   UNL     1      14.659   8.350  20.650  0.00  0.00    +0.010 C 
ATOM      9  C   UNL     1      12.737   6.911  19.760  0.00  0.00    +0.023 C 
ATOM     10  C   UNL     1      14.006   8.236  22.038  0.00  0.00    +0.113 C 
ATOM     11  C   UNL     1      12.149   6.876  21.170  0.00  0.00    +0.109 C 
ATOM     15  C   UNL     1      11.561   8.908  22.473  0.00  0.00    +0.306 C 
ATOM     32  H   UNL     1      12.972   9.960  23.575  0.00  0.00    +0.156 HD
ENDROOT
BRANCH   6  18
ATOM     18  C   UNL     1      11.441  11.293  23.276  0.00  0.00    +0.038 A 
ATOM     20  C   UNL     1      11.283  12.116  22.160  0.00  0.00    +0.069 A 
ATOM     21  C   UNL     1      10.990  11.718  24.526  0.00  0.00    +0.023 A 
ATOM     24  C   UNL     1      10.674  13.364  22.295  0.00  0.00    +0.122 A 
ATOM     25  C   UNL     1      10.381  12.965  24.660  0.00  0.00    +0.005 A 
ATOM     26  C   UNL     1      10.223  13.788  23.545  0.00  0.00    +0.046 A 
BRANCH  24   3
ATOM      3  O   UNL     1      10.520  14.167  21.207  0.00  0.00    -0.495 OA
ATOM     30  C   UNL     1      11.588  14.189  20.261  0.00  0.00    +0.277 C 
ENDBRANCH  24   3
ENDBRANCH   6  18
BRANCH   8  12
ATOM     12  C   UNL     1      14.320   9.700  20.006  0.00  0.00    +0.002 C 
ATOM     14  C   UNL     1      15.301  10.771  20.434  0.00  0.00    +0.004 C 
ENDBRANCH   8  12
BRANCH   7  13
ATOM     13  C   UNL     1      14.825   7.177  18.368  0.00  0.00    +0.099 C 
BRANCH  13  16
ATOM      2  O   UNL     1      12.755   7.226  17.118  0.00  0.00    -0.276 OA
ATOM      5  N   UNL     1      14.306   8.933  16.827  0.00  0.00    -0.311 N 
ATOM     16  C   UNL     1      13.833   7.752  17.381  0.00  0.00    +0.214 C 
ATOM     31  H   UNL     1      15.207   9.295  17.125  0.00  0.00    +0.149 HD
BRANCH   5  17
ATOM     17  C   UNL     1      13.566   9.698  15.849  0.00  0.00    +0.139 C 
BRANCH  17  19
ATOM     19  C   UNL     1      14.101  11.093  15.706  0.00  0.00    -0.030 A 
ATOM     22  C   UNL     1      14.872  11.653  16.724  0.00  0.00    +0.005 A 
ATOM     23  C   UNL     1      13.827  11.830  14.553  0.00  0.00    +0.005 A 
ATOM     27  C   UNL     1      15.370  12.949  16.591  0.00  0.00    +0.000 A 
ATOM     28  C   UNL     1      14.325  13.126  14.420  0.00  0.00    +0.000 A 
ATOM     29  C   UNL     1      15.096  13.685  15.438  0.00  0.00    +0.000 A 
ENDBRANCH  17  19
ENDBRANCH   5  17
ENDBRANCH  13  16
ENDBRANCH   7  13
TORSDOF 7
ENDMDL
MODEL 10
REMARK VINA RESULT:      -6.5     27.670     30.489
REMARK  Name = 11912176
REMARK  9 active torsions:
REMARK  status: ('A' for Active; 'I' for Inactive)
REMARK    1  A    between atoms: O_3  and  C_24
REMARK    2  A    between atoms: O_3  and  C_30
REMARK    3  A    between atoms: N_5  and  C_17
REMARK    4  A    between atoms: N_6  and  C_18
REMARK    5  A    between atoms: C_7  and  C_13
REMARK    6  A    between atoms: C_8  and  C_12
REMARK    7  A    between atoms: C_12  and  C_14
REMARK    8  A    between atoms: C_13  and  C_16
REMARK    9  A    between atoms: C_17  and  C_19
REMARK                            x       y       z     vdW  Elec       q    Type
REMARK                         _______ _______ _______ _____ _____    ______ ____
ROOT
ATOM      1  O   UNL     1      -7.867  -8.015   9.207  0.00  0.00    -0.252 OA
ATOM      4  N   UNL     1      -5.636  -8.477   9.599  0.00  0.00    -0.285 N 
ATOM      6  N   UNL     1      -6.530  -8.658   7.423  0.00  0.00    -0.269 N 
ATOM      7  C   UNL     1      -3.917  -9.900  11.442  0.00  0.00    +0.004 C 
ATOM      8  C   UNL     1      -3.794 -10.106   9.909  0.00  0.00    +0.010 C 
ATOM      9  C   UNL     1      -5.327  -9.429  11.844  0.00  0.00    +0.023 C 
ATOM     10  C   UNL     1      -4.274  -8.841   9.179  0.00  0.00    +0.113 C 
ATOM     11  C   UNL     1      -5.764  -8.211  11.032  0.00  0.00    +0.109 C 
ATOM     15  C   UNL     1      -6.765  -8.349   8.762  0.00  0.00    +0.306 C 
ATOM     32  H   UNL     1      -5.600  -8.507   7.050  0.00  0.00    +0.156 HD
ENDROOT
BRANCH   6  18
ATOM     18  C   UNL     1      -7.452  -9.191   6.489  0.00  0.00    +0.038 A 
ATOM     20  C   UNL     1      -7.743  -8.488   5.320  0.00  0.00    +0.069 A 
ATOM     21  C   UNL     1      -8.069 -10.417   6.738  0.00  0.00    +0.023 A 
ATOM     24  C   UNL     1      -8.652  -9.011   4.400  0.00  0.00    +0.122 A 
ATOM     25  C   UNL     1      -8.977 -10.940   5.818  0.00  0.00    +0.005 A 
ATOM     26  C   UNL     1      -9.269 -10.237   4.649  0.00  0.00    +0.046 A 
BRANCH  24   3
ATOM      3  O   UNL     1      -8.938  -8.325   3.259  0.00  0.00    -0.495 OA
ATOM     30  C   UNL     1      -7.833  -7.810   2.518  0.00  0.00    +0.277 C 
ENDBRANCH  24   3
ENDBRANCH   6  18
BRANCH   8  12
ATOM     12  C   UNL     1      -4.533 -11.342   9.383  0.00  0.00    +0.002 C 
ATOM     14  C   UNL     1      -4.454 -11.427   7.874  0.00  0.00    +0.004 C 
ENDBRANCH   8  12
BRANCH   7  13
ATOM     13  C   UNL     1      -3.510 -11.133  12.249  0.00  0.00    +0.099 C 
BRANCH  13  16
ATOM      2  O   UNL     1      -1.707 -10.301  13.631  0.00  0.00    -0.276 OA
ATOM      5  N   UNL     1      -3.674 -11.027  14.634  0.00  0.00    -0.311 N 
ATOM     16  C   UNL     1      -2.841 -10.766  13.555  0.00  0.00    +0.214 C 
ATOM     31  H   UNL     1      -4.604 -11.397  14.465  0.00  0.00    +0.149 HD
BRANCH   5  17
ATOM     17  C   UNL     1      -3.292 -10.775  16.006  0.00  0.00    +0.139 C 
BRANCH  17  19
ATOM     19  C   UNL     1      -4.486 -10.608  16.900  0.00  0.00    -0.030 A 
ATOM     22  C   UNL     1      -4.472 -11.143  18.188  0.00  0.00    +0.005 A 
ATOM     23  C   UNL     1      -5.608  -9.917  16.443  0.00  0.00    +0.005 A 
ATOM     27  C   UNL     1      -5.581 -10.987  19.020  0.00  0.00    +0.000 A 
ATOM     28  C   UNL     1      -6.717  -9.761  17.275  0.00  0.00    +0.000 A 
ATOM     29  C   UNL     1      -6.703 -10.296  18.563  0.00  0.00    +0.000 A 
ENDBRANCH  17  19
ENDBRANCH   5  17
ENDBRANCH  13  16
ENDBRANCH   7  13
TORSDOF 7
ENDMDL
