MODEL 1
REMARK VINA RESULT:      -6.6      0.000      0.000
REMARK  Name = 7164959
REMARK  9 active torsions:
REMARK  status: ('A' for Active; 'I' for Inactive)
REMARK    1  A    between atoms: N_6  and  C_18
REMARK    2  A    between atoms: N_10  and  C_28
REMARK    3  A    between atoms: C_11  and  C_14
REMARK    4  A    between atoms: C_14  and  C_18
REMARK    5  A    between atoms: C_18  and  C_24
REMARK    6  A    between atoms: C_19  and  C_21
REMARK    7  A    between atoms: C_25  and  C_27
REMARK    8  A    between atoms: C_28  and  C_30
REMARK    9  A    between atoms: C_28  and  C_31
REMARK                            x       y       z     vdW  Elec       q    Type
REMARK                         _______ _______ _______ _____ _____    ______ ____
ROOT
ATOM      4  O   UNL     1      -6.293  -8.778  10.946  0.00  0.00    -0.269 OA
ATOM      5  O   UNL     1      -1.316 -12.489  14.078  0.00  0.00    -0.253 OA
ATOM      7  N   UNL     1      -4.692 -10.454  10.896  0.00  0.00    -0.283 N 
ATOM      8  N   UNL     1      -2.741 -12.124  12.278  0.00  0.00    -0.282 N 
ATOM     10  N   UNL     1      -1.873 -14.270  12.732  0.00  0.00    -0.297 N 
ATOM     19  C   UNL     1      -4.264 -10.157  12.265  0.00  0.00    +0.179 C 
ATOM     20  C   UNL     1      -2.871 -10.697  12.581  0.00  0.00    +0.141 C 
ATOM     22  C   UNL     1      -3.956 -11.508  10.185  0.00  0.00    +0.128 C 
ATOM     23  C   UNL     1      -3.480 -12.622  11.112  0.00  0.00    +0.128 C 
ATOM     25  C   UNL     1      -5.700  -9.654  10.312  0.00  0.00    +0.254 C 
ATOM     26  C   UNL     1      -1.928 -12.929  13.100  0.00  0.00    +0.303 C 
ATOM     37  H   UNL     1      -2.494 -14.627  12.016  0.00  0.00    +0.150 HD
ENDROOT
BRANCH  25  27
ATOM      1  S   UNL     1      -7.419 -10.840   8.543  0.00  0.00    -0.092 S 
ATOM     27  C   UNL     1      -6.032  -9.906   8.913  0.00  0.00    +0.074 A 
ATOM     29  C   UNL     1      -5.372  -9.487   7.779  0.00  0.00    +0.021 A 
ATOM     32  C   UNL     1      -6.014  -9.941   6.590  0.00  0.00    +0.008 A 
ATOM     33  C   UNL     1      -7.138 -10.688   6.861  0.00  0.00    +0.046 A 
ENDBRANCH  25  27
BRANCH  19  21
ATOM      2  O   UNL     1      -5.461 -11.962  13.275  0.00  0.00    -0.274 OA
ATOM      6  N   UNL     1      -5.967  -9.781  13.911  0.00  0.00    -0.302 N 
ATOM     21  C   UNL     1      -5.280 -10.750  13.199  0.00  0.00    +0.236 C 
ATOM     34  H   UNL     1      -5.778  -8.800  13.721  0.00  0.00    +0.150 HD
BRANCH   6  18
ATOM     18  C   UNL     1      -7.013 -10.089  14.859  0.00  0.00    +0.159 C 
BRANCH  18  24
ATOM      3  O   UNL     1      -8.734  -9.715  13.186  0.00  0.00    -0.274 OA
ATOM      9  N   UNL     1      -9.004  -8.777  15.265  0.00  0.00    -0.328 N 
ATOM     24  C   UNL     1      -8.328  -9.534  14.332  0.00  0.00    +0.231 C 
ATOM     35  H   UNL     1      -9.892  -8.342  15.037  0.00  0.00    +0.145 HD
ATOM     36  H   UNL     1      -8.648  -8.617  16.202  0.00  0.00    +0.145 HD
ENDBRANCH  18  24
BRANCH  18  14
ATOM     14  C   UNL     1      -6.680  -9.591  16.270  0.00  0.00    +0.035 C 
BRANCH  14  11
ATOM     11  C   UNL     1      -6.167 -10.678  17.213  0.00  0.00    -0.009 C 
ATOM     12  C   UNL     1      -6.693 -10.451  18.637  0.00  0.00    +0.003 C 
ATOM     13  C   UNL     1      -4.634 -10.727  17.199  0.00  0.00    +0.003 C 
ATOM     15  C   UNL     1      -6.150 -11.495  19.611  0.00  0.00    +0.000 C 
ATOM     16  C   UNL     1      -4.095 -11.771  18.174  0.00  0.00    +0.000 C 
ATOM     17  C   UNL     1      -4.626 -11.548  19.587  0.00  0.00    +0.000 C 
ENDBRANCH  14  11
ENDBRANCH  18  14
ENDBRANCH   6  18
ENDBRANCH  19  21
BRANCH  10  28
ATOM     28  C   UNL     1      -1.094 -15.242  13.467  0.00  0.00    +0.068 C 
ATOM     30  C   UNL     1      -1.929 -15.869  14.576  0.00  0.00    +0.027 C 
ATOM     31  C   UNL     1      -0.543 -16.303  12.522  0.00  0.00    +0.027 C 
ENDBRANCH  10  28
TORSDOF 7
ENDMDL
MODEL 2
REMARK VINA RESULT:      -6.6     28.930     30.298
REMARK  Name = 7164959
REMARK  9 active torsions:
REMARK  status: ('A' for Active; 'I' for Inactive)
REMARK    1  A    between atoms: N_6  and  C_18
REMARK    2  A    between atoms: N_10  and  C_28
REMARK    3  A    between atoms: C_11  and  C_14
REMARK    4  A    between atoms: C_14  and  C_18
REMARK    5  A    between atoms: C_18  and  C_24
REMARK    6  A    between atoms: C_19  and  C_21
REMARK    7  A    between atoms: C_25  and  C_27
REMARK    8  A    between atoms: C_28  and  C_30
REMARK    9  A    between atoms: C_28  and  C_31
REMARK                            x       y       z     vdW  Elec       q    Type
REMARK                         _______ _______ _______ _____ _____    ______ ____
ROOT
ATOM      4  O   UNL     1      12.888  11.090  14.235  0.00  0.00    -0.269 OA
ATOM      5  O   UNL     1      15.448  12.095  20.622  0.00  0.00    -0.253 OA
ATOM      7  N   UNL     1      14.456  12.039  15.654  0.00  0.00    -0.283 N 
ATOM      8  N   UNL     1      15.627  12.298  18.313  0.00  0.00    -0.282 N 
ATOM     10  N   UNL     1      17.542  12.304  19.691  0.00  0.00    -0.297 N 
ATOM     19  C   UNL     1      13.791  11.492  16.839  0.00  0.00    +0.179 C 
ATOM     20  C   UNL     1      14.176  12.221  18.125  0.00  0.00    +0.141 C 
ATOM     22  C   UNL     1      15.633  12.888  15.887  0.00  0.00    +0.128 C 
ATOM     23  C   UNL     1      16.443  12.452  17.103  0.00  0.00    +0.128 C 
ATOM     25  C   UNL     1      13.878  11.810  14.386  0.00  0.00    +0.254 C 
ATOM     26  C   UNL     1      16.154  12.226  19.617  0.00  0.00    +0.303 C 
ATOM     37  H   UNL     1      18.098  12.268  18.845  0.00  0.00    +0.150 HD
ENDROOT
BRANCH  25  27
ATOM      1  S   UNL     1      13.903  13.967  12.700  0.00  0.00    -0.092 S 
ATOM     27  C   UNL     1      14.503  12.454  13.235  0.00  0.00    +0.074 A 
ATOM     29  C   UNL     1      15.559  12.015  12.467  0.00  0.00    +0.021 A 
ATOM     32  C   UNL     1      15.879  12.934  11.425  0.00  0.00    +0.008 A 
ATOM     33  C   UNL     1      15.056  14.038  11.436  0.00  0.00    +0.046 A 
ENDBRANCH  25  27
BRANCH  19  21
ATOM      2  O   UNL     1      14.791   9.469  16.051  0.00  0.00    -0.274 OA
ATOM      6  N   UNL     1      13.670   9.451  18.091  0.00  0.00    -0.302 N 
ATOM     21  C   UNL     1      14.154  10.037  16.934  0.00  0.00    +0.236 C 
ATOM     34  H   UNL     1      13.098  10.004  18.724  0.00  0.00    +0.150 HD
BRANCH   6  18
ATOM     18  C   UNL     1      13.863   8.055  18.410  0.00  0.00    +0.159 C 
BRANCH  18  24
ATOM      3  O   UNL     1      11.736   7.571  17.339  0.00  0.00    -0.274 OA
ATOM      9  N   UNL     1      12.309   6.387  19.222  0.00  0.00    -0.328 N 
ATOM     24  C   UNL     1      12.537   7.328  18.240  0.00  0.00    +0.231 C 
ATOM     35  H   UNL     1      11.456   5.838  19.229  0.00  0.00    +0.145 HD
ATOM     36  H   UNL     1      12.969   6.210  19.973  0.00  0.00    +0.145 HD
ENDBRANCH  18  24
BRANCH  18  14
ATOM     14  C   UNL     1      14.474   7.858  19.802  0.00  0.00    +0.035 C 
BRANCH  14  11
ATOM     11  C   UNL     1      15.976   7.577  19.792  0.00  0.00    -0.009 C 
ATOM     12  C   UNL     1      16.272   6.241  19.097  0.00  0.00    +0.003 C 
ATOM     13  C   UNL     1      16.537   7.586  21.221  0.00  0.00    +0.003 C 
ATOM     15  C   UNL     1      17.763   5.913  19.123  0.00  0.00    +0.000 C 
ATOM     16  C   UNL     1      18.027   7.255  21.242  0.00  0.00    +0.000 C 
ATOM     17  C   UNL     1      18.320   5.931  20.543  0.00  0.00    +0.000 C 
ENDBRANCH  14  11
ENDBRANCH  18  14
ENDBRANCH   6  18
ENDBRANCH  19  21
BRANCH  10  28
ATOM     28  C   UNL     1      18.255  12.239  20.947  0.00  0.00    +0.068 C 
ATOM     30  C   UNL     1      18.666  10.806  21.255  0.00  0.00    +0.027 C 
ATOM     31  C   UNL     1      19.462  13.168  20.919  0.00  0.00    +0.027 C 
ENDBRANCH  10  28
TORSDOF 7
ENDMDL
MODEL 3
REMARK VINA RESULT:      -6.5     28.803     30.615
REMARK  Name = 7164959
REMARK  9 active torsions:
REMARK  status: ('A' for Active; 'I' for Inactive)
REMARK    1  A    between atoms: N_6  and  C_18
REMARK    2  A    between atoms: N_10  and  C_28
REMARK    3  A    between atoms: C_11  and  C_14
REMARK    4  A    between atoms: C_14  and  C_18
REMARK    5  A    between atoms: C_18  and  C_24
REMARK    6  A    between atoms: C_19  and  C_21
REMARK    7  A    between atoms: C_25  and  C_27
REMARK    8  A    between atoms: C_28  and  C_30
REMARK    9  A    between atoms: C_28  and  C_31
REMARK                            x       y       z     vdW  Elec       q    Type
REMARK                         _______ _______ _______ _____ _____    ______ ____
ROOT
ATOM      4  O   UNL     1      14.716   8.670  22.864  0.00  0.00    -0.269 OA
ATOM      5  O   UNL     1      16.482  13.118  17.820  0.00  0.00    -0.253 OA
ATOM      7  N   UNL     1      14.293   9.670  20.817  0.00  0.00    -0.283 N 
ATOM      8  N   UNL     1      15.143  11.399  18.626  0.00  0.00    -0.282 N 
ATOM     10  N   UNL     1      15.429  11.739  16.309  0.00  0.00    -0.297 N 
ATOM     19  C   UNL     1      15.471  10.532  20.935  0.00  0.00    +0.179 C 
ATOM     20  C   UNL     1      15.406  11.755  20.022  0.00  0.00    +0.141 C 
ATOM     22  C   UNL     1      13.451   9.858  19.626  0.00  0.00    +0.128 C 
ATOM     23  C   UNL     1      14.255  10.254  18.393  0.00  0.00    +0.128 C 
ATOM     25  C   UNL     1      13.981   8.797  21.882  0.00  0.00    +0.254 C 
ATOM     26  C   UNL     1      15.737  12.158  17.600  0.00  0.00    +0.303 C 
ATOM     37  H   UNL     1      14.934  10.868  16.163  0.00  0.00    +0.150 HD
ENDROOT
BRANCH  25  27
ATOM      1  S   UNL     1      11.287   8.717  22.358  0.00  0.00    -0.092 S 
ATOM     27  C   UNL     1      12.745   8.028  21.782  0.00  0.00    +0.074 A 
ATOM     29  C   UNL     1      12.553   6.764  21.269  0.00  0.00    +0.021 A 
ATOM     32  C   UNL     1      11.189   6.356  21.350  0.00  0.00    +0.008 A 
ATOM     33  C   UNL     1      10.393   7.323  21.922  0.00  0.00    +0.046 A 
ENDBRANCH  25  27
BRANCH  19  21
ATOM      2  O   UNL     1      17.791  10.200  20.467  0.00  0.00    -0.274 OA
ATOM      6  N   UNL     1      16.370   8.357  20.480  0.00  0.00    -0.302 N 
ATOM     21  C   UNL     1      16.679   9.700  20.610  0.00  0.00    +0.236 C 
ATOM     34  H   UNL     1      15.400   8.062  20.558  0.00  0.00    +0.150 HD
BRANCH   6  18
ATOM     18  C   UNL     1      17.350   7.349  20.147  0.00  0.00    +0.159 C 
BRANCH  18  24
ATOM      3  O   UNL     1      15.476   6.168  19.149  0.00  0.00    -0.274 OA
ATOM      9  N   UNL     1      17.606   5.497  18.611  0.00  0.00    -0.328 N 
ATOM     24  C   UNL     1      16.693   6.303  19.258  0.00  0.00    +0.231 C 
ATOM     35  H   UNL     1      17.297   4.753  17.994  0.00  0.00    +0.145 HD
ATOM     36  H   UNL     1      18.609   5.604  18.727  0.00  0.00    +0.145 HD
ENDBRANCH  18  24
BRANCH  18  14
ATOM     14  C   UNL     1      18.003   6.742  21.394  0.00  0.00    +0.035 C 
BRANCH  14  11
ATOM     11  C   UNL     1      19.525   6.877  21.433  0.00  0.00    -0.009 C 
ATOM     12  C   UNL     1      20.190   5.720  20.675  0.00  0.00    +0.003 C 
ATOM     13  C   UNL     1      20.025   6.941  22.882  0.00  0.00    +0.003 C 
ATOM     15  C   UNL     1      21.713   5.803  20.746  0.00  0.00    +0.000 C 
ATOM     16  C   UNL     1      21.549   7.022  22.949  0.00  0.00    +0.000 C 
ATOM     17  C   UNL     1      22.207   5.875  22.187  0.00  0.00    +0.000 C 
ENDBRANCH  14  11
ENDBRANCH  18  14
ENDBRANCH   6  18
ENDBRANCH  19  21
BRANCH  10  28
ATOM     28  C   UNL     1      15.957  12.398  15.135  0.00  0.00    +0.068 C 
ATOM     30  C   UNL     1      16.107  11.407  13.988  0.00  0.00    +0.027 C 
ATOM     31  C   UNL     1      15.067  13.570  14.741  0.00  0.00    +0.027 C 
ENDBRANCH  10  28
TORSDOF 7
ENDMDL
MODEL 4
REMARK VINA RESULT:      -6.5     28.865     30.562
REMARK  Name = 7164959
REMARK  9 active torsions:
REMARK  status: ('A' for Active; 'I' for Inactive)
REMARK    1  A    between atoms: N_6  and  C_18
REMARK    2  A    between atoms: N_10  and  C_28
REMARK    3  A    between atoms: C_11  and  C_14
REMARK    4  A    between atoms: C_14  and  C_18
REMARK    5  A    between atoms: C_18  and  C_24
REMARK    6  A    between atoms: C_19  and  C_21
REMARK    7  A    between atoms: C_25  and  C_27
REMARK    8  A    between atoms: C_28  and  C_30
REMARK    9  A    between atoms: C_28  and  C_31
REMARK                            x       y       z     vdW  Elec       q    Type
REMARK                         _______ _______ _______ _____ _____    ______ ____
ROOT
ATOM      4  O   UNL     1      13.590   6.916  18.619  0.00  0.00    -0.269 OA
ATOM      5  O   UNL     1      14.743  11.123  24.034  0.00  0.00    -0.253 OA
ATOM      7  N   UNL     1      13.351   8.971  19.664  0.00  0.00    -0.283 N 
ATOM      8  N   UNL     1      14.003  10.779  21.858  0.00  0.00    -0.282 N 
ATOM     10  N   UNL     1      14.715  12.908  22.583  0.00  0.00    -0.297 N 
ATOM     19  C   UNL     1      14.039   8.497  20.867  0.00  0.00    +0.179 C 
ATOM     20  C   UNL     1      13.747   9.357  22.095  0.00  0.00    +0.141 C 
ATOM     22  C   UNL     1      12.833  10.346  19.695  0.00  0.00    +0.128 C 
ATOM     23  C   UNL     1      13.710  11.288  20.512  0.00  0.00    +0.128 C 
ATOM     25  C   UNL     1      13.136   8.062  18.604  0.00  0.00    +0.254 C 
ATOM     26  C   UNL     1      14.502  11.572  22.909  0.00  0.00    +0.303 C 
ATOM     37  H   UNL     1      14.644  13.213  21.620  0.00  0.00    +0.150 HD
ENDROOT
BRANCH  25  27
ATOM      1  S   UNL     1      13.156   9.354  16.190  0.00  0.00    -0.092 S 
ATOM     27  C   UNL     1      12.356   8.532  17.463  0.00  0.00    +0.074 A 
ATOM     29  C   UNL     1      11.004   8.413  17.233  0.00  0.00    +0.021 A 
ATOM     32  C   UNL     1      10.619   9.004  15.994  0.00  0.00    +0.008 A 
ATOM     33  C   UNL     1      11.691   9.553  15.327  0.00  0.00    +0.046 A 
ENDBRANCH  25  27
BRANCH  19  21
ATOM      2  O   UNL     1      16.149   9.525  20.413  0.00  0.00    -0.274 OA
ATOM      6  N   UNL     1      16.022   7.202  20.492  0.00  0.00    -0.302 N 
ATOM     21  C   UNL     1      15.513   8.487  20.574  0.00  0.00    +0.236 C 
ATOM     34  H   UNL     1      15.388   6.412  20.580  0.00  0.00    +0.150 HD
BRANCH   6  18
ATOM     18  C   UNL     1      17.408   6.918  20.197  0.00  0.00    +0.159 C 
BRANCH  18  24
ATOM      3  O   UNL     1      16.560   5.605  18.337  0.00  0.00    -0.274 OA
ATOM      9  N   UNL     1      18.637   5.100  19.178  0.00  0.00    -0.328 N 
ATOM     24  C   UNL     1      17.469   5.831  19.134  0.00  0.00    +0.231 C 
ATOM     35  H   UNL     1      18.799   4.339  18.527  0.00  0.00    +0.145 HD
ATOM     36  H   UNL     1      19.371   5.283  19.855  0.00  0.00    +0.145 HD
ENDBRANCH  18  24
BRANCH  18  14
ATOM     14  C   UNL     1      18.207   6.563  21.456  0.00  0.00    +0.035 C 
BRANCH  14  11
ATOM     11  C   UNL     1      19.526   7.320  21.595  0.00  0.00    -0.009 C 
ATOM     12  C   UNL     1      20.197   6.997  22.938  0.00  0.00    +0.003 C 
ATOM     13  C   UNL     1      19.302   8.831  21.446  0.00  0.00    +0.003 C 
ATOM     15  C   UNL     1      21.492   7.783  23.123  0.00  0.00    +0.000 C 
ATOM     16  C   UNL     1      20.599   9.614  21.634  0.00  0.00    +0.000 C 
ATOM     17  C   UNL     1      21.268   9.284  22.965  0.00  0.00    +0.000 C 
ENDBRANCH  14  11
ENDBRANCH  18  14
ENDBRANCH   6  18
ENDBRANCH  19  21
BRANCH  10  28
ATOM     28  C   UNL     1      15.232  13.864  23.537  0.00  0.00    +0.068 C 
ATOM     30  C   UNL     1      16.742  14.001  23.393  0.00  0.00    +0.027 C 
ATOM     31  C   UNL     1      14.535  15.209  23.368  0.00  0.00    +0.027 C 
ENDBRANCH  10  28
TORSDOF 7
ENDMDL
MODEL 5
REMARK VINA RESULT:      -6.4      3.128      6.939
REMARK  Name = 7164959
REMARK  9 active torsions:
REMARK  status: ('A' for Active; 'I' for Inactive)
REMARK    1  A    between atoms: N_6  and  C_18
REMARK    2  A    between atoms: N_10  and  C_28
REMARK    3  A    between atoms: C_11  and  C_14
REMARK    4  A    between atoms: C_14  and  C_18
REMARK    5  A    between atoms: C_18  and  C_24
REMARK    6  A    between atoms: C_19  and  C_21
REMARK    7  A    between atoms: C_25  and  C_27
REMARK    8  A    between atoms: C_28  and  C_30
REMARK    9  A    between atoms: C_28  and  C_31
REMARK                            x       y       z     vdW  Elec       q    Type
REMARK                         _______ _______ _______ _____ _____    ______ ____
ROOT
ATOM      4  O   UNL     1      -2.817 -10.892  14.230  0.00  0.00    -0.269 OA
ATOM      5  O   UNL     1      -6.459 -11.457  20.127  0.00  0.00    -0.253 OA
ATOM      7  N   UNL     1      -4.032 -12.167  15.737  0.00  0.00    -0.283 N 
ATOM      8  N   UNL     1      -5.713 -12.347  18.114  0.00  0.00    -0.282 N 
ATOM     10  N   UNL     1      -7.678 -13.145  19.148  0.00  0.00    -0.297 N 
ATOM     19  C   UNL     1      -4.195 -11.031  16.646  0.00  0.00    +0.179 C 
ATOM     20  C   UNL     1      -4.552 -11.456  18.069  0.00  0.00    +0.141 C 
ATOM     22  C   UNL     1      -4.592 -13.453  16.175  0.00  0.00    +0.128 C 
ATOM     23  C   UNL     1      -5.865 -13.291  16.999  0.00  0.00    +0.128 C 
ATOM     25  C   UNL     1      -3.269 -11.990  14.561  0.00  0.00    +0.254 C 
ATOM     26  C   UNL     1      -6.605 -12.260  19.200  0.00  0.00    +0.303 C 
ATOM     37  H   UNL     1      -7.848 -13.689  18.310  0.00  0.00    +0.150 HD
ENDROOT
BRANCH  25  27
ATOM      1  S   UNL     1      -1.490 -13.903  13.743  0.00  0.00    -0.092 S 
ATOM     27  C   UNL     1      -3.036 -13.165  13.727  0.00  0.00    +0.074 A 
ATOM     29  C   UNL     1      -3.909 -13.813  12.882  0.00  0.00    +0.021 A 
ATOM     32  C   UNL     1      -3.301 -14.930  12.239  0.00  0.00    +0.008 A 
ATOM     33  C   UNL     1      -1.987 -15.092  12.616  0.00  0.00    +0.046 A 
ENDBRANCH  25  27
BRANCH  19  21
ATOM      2  O   UNL     1      -5.729  -9.198  16.713  0.00  0.00    -0.274 OA
ATOM      6  N   UNL     1      -5.661 -10.541  14.813  0.00  0.00    -0.302 N 
ATOM     21  C   UNL     1      -5.269 -10.144  16.080  0.00  0.00    +0.236 C 
ATOM     34  H   UNL     1      -5.255 -11.381  14.409  0.00  0.00    +0.150 HD
BRANCH   6  18
ATOM     18  C   UNL     1      -6.694  -9.869  14.059  0.00  0.00    +0.159 C 
BRANCH  18  24
ATOM      3  O   UNL     1      -8.582 -11.254  14.708  0.00  0.00    -0.274 OA
ATOM      9  N   UNL     1      -8.603  -9.032  15.288  0.00  0.00    -0.328 N 
ATOM     24  C   UNL     1      -8.039 -10.151  14.714  0.00  0.00    +0.231 C 
ATOM     35  H   UNL     1      -9.505  -9.082  15.750  0.00  0.00    +0.145 HD
ATOM     36  H   UNL     1      -8.154  -8.122  15.267  0.00  0.00    +0.145 HD
ENDBRANCH  18  24
BRANCH  18  14
ATOM     14  C   UNL     1      -6.666 -10.247  12.574  0.00  0.00    +0.035 C 
BRANCH  14  11
ATOM     11  C   UNL     1      -5.643  -9.468  11.749  0.00  0.00    -0.009 C 
ATOM     12  C   UNL     1      -6.305  -8.851  10.509  0.00  0.00    +0.003 C 
ATOM     13  C   UNL     1      -4.470 -10.372  11.348  0.00  0.00    +0.003 C 
ATOM     15  C   UNL     1      -5.292  -8.111   9.639  0.00  0.00    +0.000 C 
ATOM     16  C   UNL     1      -3.459  -9.630  10.477  0.00  0.00    +0.000 C 
ATOM     17  C   UNL     1      -4.122  -9.010   9.250  0.00  0.00    +0.000 C 
ENDBRANCH  14  11
ENDBRANCH  18  14
ENDBRANCH   6  18
ENDBRANCH  19  21
BRANCH  10  28
ATOM     28  C   UNL     1      -8.695 -13.189  20.175  0.00  0.00    +0.068 C 
ATOM     30  C   UNL     1      -9.822 -12.216  19.853  0.00  0.00    +0.027 C 
ATOM     31  C   UNL     1      -9.220 -14.610  20.340  0.00  0.00    +0.027 C 
ENDBRANCH  10  28
TORSDOF 7
ENDMDL
MODEL 6
REMARK VINA RESULT:      -6.4     29.288     30.910
REMARK  Name = 7164959
REMARK  9 active torsions:
REMARK  status: ('A' for Active; 'I' for Inactive)
REMARK    1  A    between atoms: N_6  and  C_18
REMARK    2  A    between atoms: N_10  and  C_28
REMARK    3  A    between atoms: C_11  and  C_14
REMARK    4  A    between atoms: C_14  and  C_18
REMARK    5  A    between atoms: C_18  and  C_24
REMARK    6  A    between atoms: C_19  and  C_21
REMARK    7  A    between atoms: C_25  and  C_27
REMARK    8  A    between atoms: C_28  and  C_30
REMARK    9  A    between atoms: C_28  and  C_31
REMARK                            x       y       z     vdW  Elec       q    Type
REMARK                         _______ _______ _______ _____ _____    ______ ____
ROOT
ATOM      4  O   UNL     1      15.510  11.782  16.472  0.00  0.00    -0.269 OA
ATOM      5  O   UNL     1      12.045  11.468  22.493  0.00  0.00    -0.253 OA
ATOM      7  N   UNL     1      15.175  12.508  18.648  0.00  0.00    -0.283 N 
ATOM      8  N   UNL     1      13.836  12.233  21.225  0.00  0.00    -0.282 N 
ATOM     10  N   UNL     1      13.978  12.090  23.575  0.00  0.00    -0.297 N 
ATOM     19  C   UNL     1      14.012  11.634  18.816  0.00  0.00    +0.179 C 
ATOM     20  C   UNL     1      13.105  12.067  19.966  0.00  0.00    +0.141 C 
ATOM     22  C   UNL     1      15.515  13.384  19.778  0.00  0.00    +0.128 C 
ATOM     23  C   UNL     1      15.207  12.748  21.130  0.00  0.00    +0.128 C 
ATOM     25  C   UNL     1      15.828  12.535  17.395  0.00  0.00    +0.254 C 
ATOM     26  C   UNL     1      13.200  11.901  22.436  0.00  0.00    +0.303 C 
ATOM     37  H   UNL     1      14.963  12.309  23.487  0.00  0.00    +0.150 HD
ENDROOT
BRANCH  25  27
ATOM      1  S   UNL     1      16.562  15.060  16.632  0.00  0.00    -0.092 S 
ATOM     27  C   UNL     1      16.917  13.492  17.224  0.00  0.00    +0.074 A 
ATOM     29  C   UNL     1      18.260  13.326  17.478  0.00  0.00    +0.021 A 
ATOM     32  C   UNL     1      19.009  14.503  17.182  0.00  0.00    +0.008 A 
ATOM     33  C   UNL     1      18.209  15.521  16.714  0.00  0.00    +0.046 A 
ENDBRANCH  25  27
BRANCH  19  21
ATOM      2  O   UNL     1      15.687  10.019  19.363  0.00  0.00    -0.274 OA
ATOM      6  N   UNL     1      13.541   9.283  18.842  0.00  0.00    -0.302 N 
ATOM     21  C   UNL     1      14.521  10.239  19.048  0.00  0.00    +0.236 C 
ATOM     34  H   UNL     1      12.623   9.577  18.520  0.00  0.00    +0.150 HD
BRANCH   6  18
ATOM     18  C   UNL     1      13.780   7.864  18.978  0.00  0.00    +0.159 C 
BRANCH  18  24
ATOM      3  O   UNL     1      11.970   7.320  17.452  0.00  0.00    -0.274 OA
ATOM      9  N   UNL     1      12.090   6.199  19.452  0.00  0.00    -0.328 N 
ATOM     24  C   UNL     1      12.537   7.114  18.523  0.00  0.00    +0.231 C 
ATOM     35  H   UNL     1      11.264   5.638  19.275  0.00  0.00    +0.145 HD
ATOM     36  H   UNL     1      12.556   6.053  20.343  0.00  0.00    +0.145 HD
ENDBRANCH  18  24
BRANCH  18  14
ATOM     14  C   UNL     1      14.218   7.484  20.396  0.00  0.00    +0.035 C 
BRANCH  14  11
ATOM     11  C   UNL     1      15.507   6.666  20.456  0.00  0.00    -0.009 C 
ATOM     12  C   UNL     1      16.541   7.350  21.361  0.00  0.00    +0.003 C 
ATOM     13  C   UNL     1      16.074   6.447  19.047  0.00  0.00    +0.003 C 
ATOM     15  C   UNL     1      17.857   6.578  21.394  0.00  0.00    +0.000 C 
ATOM     16  C   UNL     1      17.392   5.676  19.084  0.00  0.00    +0.000 C 
ATOM     17  C   UNL     1      18.414   6.354  19.992  0.00  0.00    +0.000 C 
ENDBRANCH  14  11
ENDBRANCH  18  14
ENDBRANCH   6  18
ENDBRANCH  19  21
BRANCH  10  28
ATOM     28  C   UNL     1      13.489  11.794  24.904  0.00  0.00    +0.068 C 
ATOM     30  C   UNL     1      14.647  11.491  25.844  0.00  0.00    +0.027 C 
ATOM     31  C   UNL     1      12.641  12.948  25.424  0.00  0.00    +0.027 C 
ENDBRANCH  10  28
TORSDOF 7
ENDMDL
MODEL 7
REMARK VINA RESULT:      -6.3      3.255      7.860
REMARK  Name = 7164959
REMARK  9 active torsions:
REMARK  status: ('A' for Active; 'I' for Inactive)
REMARK    1  A    between atoms: N_6  and  C_18
REMARK    2  A    between atoms: N_10  and  C_28
REMARK    3  A    between atoms: C_11  and  C_14
REMARK    4  A    between atoms: C_14  and  C_18
REMARK    5  A    between atoms: C_18  and  C_24
REMARK    6  A    between atoms: C_19  and  C_21
REMARK    7  A    between atoms: C_25  and  C_27
REMARK    8  A    between atoms: C_28  and  C_30
REMARK    9  A    between atoms: C_28  and  C_31
REMARK                            x       y       z     vdW  Elec       q    Type
REMARK                         _______ _______ _______ _____ _____    ______ ____
ROOT
ATOM      4  O   UNL     1      -5.757 -10.313  18.004  0.00  0.00    -0.269 OA
ATOM      5  O   UNL     1      -6.950 -10.420  11.154  0.00  0.00    -0.253 OA
ATOM      7  N   UNL     1      -7.038 -10.975  16.189  0.00  0.00    -0.283 N 
ATOM      8  N   UNL     1      -7.420 -11.169  13.303  0.00  0.00    -0.282 N 
ATOM     10  N   UNL     1      -7.936 -12.482  11.413  0.00  0.00    -0.297 N 
ATOM     19  C   UNL     1      -6.190 -10.233  15.253  0.00  0.00    +0.179 C 
ATOM     20  C   UNL     1      -6.880  -9.955  13.919  0.00  0.00    +0.141 C 
ATOM     22  C   UNL     1      -8.206 -11.664  15.622  0.00  0.00    +0.128 C 
ATOM     23  C   UNL     1      -7.953 -12.190  14.213  0.00  0.00    +0.128 C 
ATOM     25  C   UNL     1      -6.750 -10.902  17.570  0.00  0.00    +0.254 C 
ATOM     26  C   UNL     1      -7.405 -11.292  11.901  0.00  0.00    +0.303 C 
ATOM     37  H   UNL     1      -8.169 -13.234  12.051  0.00  0.00    +0.150 HD
ENDROOT
BRANCH  25  27
ATOM      1  S   UNL     1      -9.077 -10.731  19.001  0.00  0.00    -0.092 S 
ATOM     27  C   UNL     1      -7.672 -11.565  18.486  0.00  0.00    +0.074 A 
ATOM     29  C   UNL     1      -7.590 -12.826  19.033  0.00  0.00    +0.021 A 
ATOM     32  C   UNL     1      -8.695 -13.112  19.887  0.00  0.00    +0.008 A 
ATOM     33  C   UNL     1      -9.578 -12.058  19.960  0.00  0.00    +0.046 A 
ENDBRANCH  25  27
BRANCH  19  21
ATOM      2  O   UNL     1      -4.848 -12.206  15.401  0.00  0.00    -0.274 OA
ATOM      6  N   UNL     1      -3.942 -10.298  14.422  0.00  0.00    -0.302 N 
ATOM     21  C   UNL     1      -4.938 -11.036  15.038  0.00  0.00    +0.236 C 
ATOM     34  H   UNL     1      -4.106  -9.315  14.222  0.00  0.00    +0.150 HD
BRANCH   6  18
ATOM     18  C   UNL     1      -2.633 -10.832  14.123  0.00  0.00    +0.159 C 
BRANCH  18  24
ATOM      3  O   UNL     1      -1.560 -10.886  16.302  0.00  0.00    -0.274 OA
ATOM      9  N   UNL     1      -0.916  -9.269  14.804  0.00  0.00    -0.328 N 
ATOM     24  C   UNL     1      -1.658 -10.364  15.194  0.00  0.00    +0.231 C 
ATOM     35  H   UNL     1      -0.235  -8.852  15.430  0.00  0.00    +0.145 HD
ATOM     36  H   UNL     1      -1.021  -8.833  13.893  0.00  0.00    +0.145 HD
ENDBRANCH  18  24
BRANCH  18  14
ATOM     14  C   UNL     1      -2.172 -10.477  12.705  0.00  0.00    +0.035 C 
BRANCH  14  11
ATOM     11  C   UNL     1      -3.263 -10.605  11.642  0.00  0.00    -0.009 C 
ATOM     12  C   UNL     1      -3.283 -12.024  11.055  0.00  0.00    +0.003 C 
ATOM     13  C   UNL     1      -3.065  -9.560  10.536  0.00  0.00    +0.003 C 
ATOM     15  C   UNL     1      -4.329 -12.161   9.952  0.00  0.00    +0.000 C 
ATOM     16  C   UNL     1      -4.112  -9.702   9.434  0.00  0.00    +0.000 C 
ATOM     17  C   UNL     1      -4.136 -11.115   8.859  0.00  0.00    +0.000 C 
ENDBRANCH  14  11
ENDBRANCH  18  14
ENDBRANCH   6  18
ENDBRANCH  19  21
BRANCH  10  28
ATOM     28  C   UNL     1      -7.995 -12.781   9.999  0.00  0.00    +0.068 C 
ATOM     30  C   UNL     1      -7.512 -14.201   9.733  0.00  0.00    +0.027 C 
ATOM     31  C   UNL     1      -9.409 -12.569   9.472  0.00  0.00    +0.027 C 
ENDBRANCH  10  28
TORSDOF 7
ENDMDL
MODEL 8
REMARK VINA RESULT:      -6.3     25.406     27.651
REMARK  Name = 7164959
REMARK  9 active torsions:
REMARK  status: ('A' for Active; 'I' for Inactive)
REMARK    1  A    between atoms: N_6  and  C_18
REMARK    2  A    between atoms: N_10  and  C_28
REMARK    3  A    between atoms: C_11  and  C_14
REMARK    4  A    between atoms: C_14  and  C_18
REMARK    5  A    between atoms: C_18  and  C_24
REMARK    6  A    between atoms: C_19  and  C_21
REMARK    7  A    between atoms: C_25  and  C_27
REMARK    8  A    between atoms: C_28  and  C_30
REMARK    9  A    between atoms: C_28  and  C_31
REMARK                            x       y       z     vdW  Elec       q    Type
REMARK                         _______ _______ _______ _____ _____    ______ ____
ROOT
ATOM      4  O   UNL     1       9.692   4.722  -0.672  0.00  0.00    -0.269 OA
ATOM      5  O   UNL     1      11.395   6.145   5.918  0.00  0.00    -0.253 OA
ATOM      7  N   UNL     1      10.463   6.200   0.939  0.00  0.00    -0.283 N 
ATOM      8  N   UNL     1      11.350   6.724   3.668  0.00  0.00    -0.282 N 
ATOM     10  N   UNL     1      12.950   7.649   5.135  0.00  0.00    -0.297 N 
ATOM     19  C   UNL     1      10.276   5.215   2.007  0.00  0.00    +0.179 C 
ATOM     20  C   UNL     1      10.207   5.849   3.394  0.00  0.00    +0.141 C 
ATOM     22  C   UNL     1      10.937   7.532   1.341  0.00  0.00    +0.128 C 
ATOM     23  C   UNL     1      11.887   7.484   2.533  0.00  0.00    +0.128 C 
ATOM     25  C   UNL     1      10.085   5.853  -0.377  0.00  0.00    +0.254 C 
ATOM     26  C   UNL     1      11.863   6.794   4.977  0.00  0.00    +0.303 C 
ATOM     37  H   UNL     1      13.397   8.056   4.322  0.00  0.00    +0.150 HD
ENDROOT
BRANCH  25  27
ATOM      1  S   UNL     1       8.795   7.814  -1.787  0.00  0.00    -0.092 S 
ATOM     27  C   UNL     1      10.184   6.889  -1.401  0.00  0.00    +0.074 A 
ATOM     29  C   UNL     1      11.279   7.264  -2.148  0.00  0.00    +0.021 A 
ATOM     32  C   UNL     1      10.973   8.324  -3.050  0.00  0.00    +0.008 A 
ATOM     33  C   UNL     1       9.657   8.719  -2.957  0.00  0.00    +0.046 A 
ENDBRANCH  25  27
BRANCH  19  21
ATOM      2  O   UNL     1      11.455   3.232   2.632  0.00  0.00    -0.274 OA
ATOM      6  N   UNL     1      12.384   4.634   1.022  0.00  0.00    -0.302 N 
ATOM     21  C   UNL     1      11.417   4.240   1.932  0.00  0.00    +0.236 C 
ATOM     34  H   UNL     1      12.278   5.524   0.542  0.00  0.00    +0.150 HD
BRANCH   6  18
ATOM     18  C   UNL     1      13.593   3.882   0.780  0.00  0.00    +0.159 C 
BRANCH  18  24
ATOM      3  O   UNL     1      14.796   5.513   2.120  0.00  0.00    -0.274 OA
ATOM      9  N   UNL     1      15.487   3.324   2.179  0.00  0.00    -0.328 N 
ATOM     24  C   UNL     1      14.662   4.345   1.760  0.00  0.00    +0.231 C 
ATOM     35  H   UNL     1      16.246   3.501   2.828  0.00  0.00    +0.145 HD
ATOM     36  H   UNL     1      15.379   2.367   1.857  0.00  0.00    +0.145 HD
ENDBRANCH  18  24
BRANCH  18  14
ATOM     14  C   UNL     1      14.049   3.973  -0.681  0.00  0.00    +0.035 C 
BRANCH  14  11
ATOM     11  C   UNL     1      12.909   3.911  -1.697  0.00  0.00    -0.009 C 
ATOM     12  C   UNL     1      12.340   2.489  -1.786  0.00  0.00    +0.003 C 
ATOM     13  C   UNL     1      13.385   4.396  -3.073  0.00  0.00    +0.003 C 
ATOM     15  C   UNL     1      11.235   2.390  -2.835  0.00  0.00    +0.000 C 
ATOM     16  C   UNL     1      12.278   4.293  -4.120  0.00  0.00    +0.000 C 
ATOM     17  C   UNL     1      11.708   2.880  -4.199  0.00  0.00    +0.000 C 
ENDBRANCH  14  11
ENDBRANCH  18  14
ENDBRANCH   6  18
ENDBRANCH  19  21
BRANCH  10  28
ATOM     28  C   UNL     1      13.607   7.838   6.409  0.00  0.00    +0.068 C 
ATOM     30  C   UNL     1      15.119   7.751   6.248  0.00  0.00    +0.027 C 
ATOM     31  C   UNL     1      13.192   9.168   7.026  0.00  0.00    +0.027 C 
ENDBRANCH  10  28
TORSDOF 7
ENDMDL
MODEL 9
REMARK VINA RESULT:      -6.2      3.016      6.727
REMARK  Name = 7164959
REMARK  9 active torsions:
REMARK  status: ('A' for Active; 'I' for Inactive)
REMARK    1  A    between atoms: N_6  and  C_18
REMARK    2  A    between atoms: N_10  and  C_28
REMARK    3  A    between atoms: C_11  and  C_14
REMARK    4  A    between atoms: C_14  and  C_18
REMARK    5  A    between atoms: C_18  and  C_24
REMARK    6  A    between atoms: C_19  and  C_21
REMARK    7  A    between atoms: C_25  and  C_27
REMARK    8  A    between atoms: C_28  and  C_30
REMARK    9  A    between atoms: C_28  and  C_31
REMARK                            x       y       z     vdW  Elec       q    Type
REMARK                         _______ _______ _______ _____ _____    ______ ____
ROOT
ATOM      4  O   UNL     1      -4.222 -12.362  13.987  0.00  0.00    -0.269 OA
ATOM      5  O   UNL     1     -10.507 -10.427  16.247  0.00  0.00    -0.253 OA
ATOM      7  N   UNL     1      -6.193 -11.177  13.699  0.00  0.00    -0.283 N 
ATOM      8  N   UNL     1      -8.745 -10.226  14.746  0.00  0.00    -0.282 N 
ATOM     10  N   UNL     1     -10.244  -8.442  15.115  0.00  0.00    -0.297 N 
ATOM     19  C   UNL     1      -6.754 -11.706  14.944  0.00  0.00    +0.179 C 
ATOM     20  C   UNL     1      -8.276 -11.589  15.006  0.00  0.00    +0.141 C 
ATOM     22  C   UNL     1      -7.059 -10.294  12.905  0.00  0.00    +0.128 C 
ATOM     23  C   UNL     1      -7.982  -9.441  13.768  0.00  0.00    +0.128 C 
ATOM     25  C   UNL     1      -4.917 -11.620  13.288  0.00  0.00    +0.254 C 
ATOM     26  C   UNL     1      -9.880  -9.749  15.428  0.00  0.00    +0.303 C 
ATOM     37  H   UNL     1      -9.631  -7.866  14.550  0.00  0.00    +0.150 HD
ENDROOT
BRANCH  25  27
ATOM      1  S   UNL     1      -4.820 -12.053  10.587  0.00  0.00    -0.092 S 
ATOM     27  C   UNL     1      -4.428 -11.157  11.993  0.00  0.00    +0.074 A 
ATOM     29  C   UNL     1      -3.659 -10.051  11.704  0.00  0.00    +0.021 A 
ATOM     32  C   UNL     1      -3.388  -9.939  10.309  0.00  0.00    +0.008 A 
ATOM     33  C   UNL     1      -3.959 -10.963   9.587  0.00  0.00    +0.046 A 
ENDBRANCH  25  27
BRANCH  19  21
ATOM      2  O   UNL     1      -5.740  -9.796  15.960  0.00  0.00    -0.274 OA
ATOM      6  N   UNL     1      -6.024 -11.727  17.228  0.00  0.00    -0.302 N 
ATOM     21  C   UNL     1      -6.124 -10.955  16.083  0.00  0.00    +0.236 C 
ATOM     34  H   UNL     1      -6.319 -12.700  17.196  0.00  0.00    +0.150 HD
BRANCH   6  18
ATOM     18  C   UNL     1      -5.434 -11.247  18.456  0.00  0.00    +0.159 C 
BRANCH  18  24
ATOM      3  O   UNL     1      -3.579 -12.037  19.811  0.00  0.00    -0.274 OA
ATOM      9  N   UNL     1      -4.512 -13.477  18.285  0.00  0.00    -0.328 N 
ATOM     24  C   UNL     1      -4.418 -12.270  18.943  0.00  0.00    +0.231 C 
ATOM     35  H   UNL     1      -3.885 -14.243  18.510  0.00  0.00    +0.145 HD
ATOM     36  H   UNL     1      -5.196 -13.650  17.555  0.00  0.00    +0.145 HD
ENDBRANCH  18  24
BRANCH  18  14
ATOM     14  C   UNL     1      -6.492 -10.911  19.513  0.00  0.00    +0.035 C 
BRANCH  14  11
ATOM     11  C   UNL     1      -7.829 -11.619  19.309  0.00  0.00    -0.009 C 
ATOM     12  C   UNL     1      -8.996 -10.689  19.669  0.00  0.00    +0.003 C 
ATOM     13  C   UNL     1      -7.888 -12.913  20.132  0.00  0.00    +0.003 C 
ATOM     15  C   UNL     1     -10.343 -11.393  19.524  0.00  0.00    +0.000 C 
ATOM     16  C   UNL     1      -9.237 -13.613  19.986  0.00  0.00    +0.000 C 
ATOM     17  C   UNL     1     -10.395 -12.683  20.337  0.00  0.00    +0.000 C 
ENDBRANCH  14  11
ENDBRANCH  18  14
ENDBRANCH   6  18
ENDBRANCH  19  21
BRANCH  10  28
ATOM     28  C   UNL     1     -11.379  -7.787  15.725  0.00  0.00    +0.068 C 
ATOM     30  C   UNL     1     -11.065  -6.324  16.006  0.00  0.00    +0.027 C 
ATOM     31  C   UNL     1     -12.611  -7.929  14.839  0.00  0.00    +0.027 C 
ENDBRANCH  10  28
TORSDOF 7
ENDMDL
MODEL 10
REMARK VINA RESULT:      -6.1     29.172     30.754
REMARK  Name = 7164959
REMARK  9 active torsions:
REMARK  status: ('A' for Active; 'I' for Inactive)
REMARK    1  A    between atoms: N_6  and  C_18
REMARK    2  A    between atoms: N_10  and  C_28
REMARK    3  A    between atoms: C_11  and  C_14
REMARK    4  A    between atoms: C_14  and  C_18
REMARK    5  A    between atoms: C_18  and  C_24
REMARK    6  A    between atoms: C_19  and  C_21
REMARK    7  A    between atoms: C_25  and  C_27
REMARK    8  A    between atoms: C_28  and  C_30
REMARK    9  A    between atoms: C_28  and  C_31
REMARK                            x       y       z     vdW  Elec       q    Type
REMARK                         _______ _______ _______ _____ _____    ______ ____
ROOT
ATOM      4  O   UNL     1      16.232  12.310  16.285  0.00  0.00    -0.269 OA
ATOM      5  O   UNL     1      11.288  12.725  21.157  0.00  0.00    -0.253 OA
ATOM      7  N   UNL     1      15.554  12.875  18.428  0.00  0.00    -0.283 N 
ATOM      8  N   UNL     1      13.517  12.868  20.517  0.00  0.00    -0.282 N 
ATOM     10  N   UNL     1      12.916  12.434  22.756  0.00  0.00    -0.297 N 
ATOM     19  C   UNL     1      14.165  12.505  18.142  0.00  0.00    +0.179 C 
ATOM     20  C   UNL     1      13.171  13.131  19.118  0.00  0.00    +0.141 C 
ATOM     22  C   UNL     1      15.831  13.427  19.761  0.00  0.00    +0.128 C 
ATOM     23  C   UNL     1      14.947  12.820  20.846  0.00  0.00    +0.128 C 
ATOM     25  C   UNL     1      16.508  12.780  17.391  0.00  0.00    +0.254 C 
ATOM     26  C   UNL     1      12.485  12.682  21.456  0.00  0.00    +0.303 C 
ATOM     37  H   UNL     1      13.897  12.264  22.943  0.00  0.00    +0.150 HD
ENDROOT
BRANCH  25  27
ATOM      1  S   UNL     1      18.367  14.755  17.025  0.00  0.00    -0.092 S 
ATOM     27  C   UNL     1      17.859  13.254  17.674  0.00  0.00    +0.074 A 
ATOM     29  C   UNL     1      18.846  12.653  18.423  0.00  0.00    +0.021 A 
ATOM     32  C   UNL     1      20.037  13.436  18.464  0.00  0.00    +0.008 A 
ATOM     33  C   UNL     1      19.913  14.604  17.745  0.00  0.00    +0.046 A 
ENDBRANCH  25  27
BRANCH  19  21
ATOM      2  O   UNL     1      15.034  10.308  18.506  0.00  0.00    -0.274 OA
ATOM      6  N   UNL     1      12.821  10.545  17.827  0.00  0.00    -0.302 N 
ATOM     21  C   UNL     1      14.074  11.006  18.191  0.00  0.00    +0.236 C 
ATOM     34  H   UNL     1      12.117  11.213  17.522  0.00  0.00    +0.150 HD
BRANCH   6  18
ATOM     18  C   UNL     1      12.480   9.142  17.770  0.00  0.00    +0.159 C 
BRANCH  18  24
ATOM      3  O   UNL     1      12.063   9.077  15.378  0.00  0.00    -0.274 OA
ATOM      9  N   UNL     1      10.369   8.464  16.802  0.00  0.00    -0.328 N 
ATOM     24  C   UNL     1      11.649   8.891  16.520  0.00  0.00    +0.231 C 
ATOM     35  H   UNL     1       9.709   8.269  16.056  0.00  0.00    +0.145 HD
ATOM     36  H   UNL     1      10.032   8.335  17.751  0.00  0.00    +0.145 HD
ENDBRANCH  18  24
BRANCH  18  14
ATOM     14  C   UNL     1      11.787   8.662  19.050  0.00  0.00    +0.035 C 
BRANCH  14  11
ATOM     11  C   UNL     1      12.708   7.931  20.025  0.00  0.00    -0.009 C 
ATOM     12  C   UNL     1      13.264   8.901  21.076  0.00  0.00    +0.003 C 
ATOM     13  C   UNL     1      13.847   7.231  19.271  0.00  0.00    +0.003 C 
ATOM     15  C   UNL     1      14.231   8.204  22.030  0.00  0.00    +0.000 C 
ATOM     16  C   UNL     1      14.813   6.537  20.228  0.00  0.00    +0.000 C 
ATOM     17  C   UNL     1      15.356   7.502  21.278  0.00  0.00    +0.000 C 
ENDBRANCH  14  11
ENDBRANCH  18  14
ENDBRANCH   6  18
ENDBRANCH  19  21
BRANCH  10  28
ATOM     28  C   UNL     1      11.993  12.212  23.848  0.00  0.00    +0.068 C 
ATOM     30  C   UNL     1      11.382  10.820  23.755  0.00  0.00    +0.027 C 
ATOM     31  C   UNL     1      12.694  12.421  25.184  0.00  0.00    +0.027 C 
ENDBRANCH  10  28
TORSDOF 7
ENDMDL
