MODEL 1
REMARK VINA RESULT:      -8.4      0.000      0.000
REMARK  Name = 26761859
REMARK  3 active torsions:
REMARK  status: ('A' for Active; 'I' for Inactive)
REMARK    1  A    between atoms: N_8  and  C_19
REMARK    2  A    between atoms: C_10  and  C_15
REMARK    3  A    between atoms: C_18  and  C_20
REMARK                            x       y       z     vdW  Elec       q    Type
REMARK                         _______ _______ _______ _____ _____    ______ ____
ROOT
ATOM      3  O   UNL     1      16.280   5.893  18.748  0.00  0.00    -0.252 OA
ATOM      4  N   UNL     1      14.848   7.387  19.804  0.00  0.00    -0.267 N 
ATOM      5  N   UNL     1      12.706   9.117  22.338  0.00  0.00    -0.347 N 
ATOM      6  N   UNL     1      11.111   7.725  21.627  0.00  0.00    -0.240 NA
ATOM      8  N   UNL     1      17.158   7.372  20.311  0.00  0.00    -0.269 N 
ATOM     10  C   UNL     1      13.689   6.955  18.948  0.00  0.00    +0.172 C 
ATOM     11  C   UNL     1      12.443   6.578  19.805  0.00  0.00    +0.089 C 
ATOM     12  C   UNL     1      14.626   8.487  20.787  0.00  0.00    +0.165 C 
ATOM     13  C   UNL     1      12.257   7.545  20.908  0.00  0.00    +0.066 A 
ATOM     14  C   UNL     1      13.256   8.387  21.327  0.00  0.00    +0.056 A 
ATOM     16  C   UNL     1      16.122   6.802  19.566  0.00  0.00    +0.307 C 
ATOM     17  C   UNL     1      11.413   8.681  22.482  0.00  0.00    +0.197 A 
ATOM     31  H   UNL     1      13.159   9.840  22.880  0.00  0.00    +0.167 HD
ATOM     32  H   UNL     1      17.059   8.342  20.593  0.00  0.00    +0.156 HD
ENDROOT
BRANCH   8  19
ATOM      1 CL   UNL     1      22.090   4.710  22.239  0.00  0.00    -0.084 Cl
ATOM     19  C   UNL     1      18.336   6.736  20.772  0.00  0.00    +0.035 A 
ATOM     21  C   UNL     1      18.902   5.697  20.033  0.00  0.00    +0.025 A 
ATOM     22  C   UNL     1      18.931   7.149  21.964  0.00  0.00    +0.025 A 
ATOM     25  C   UNL     1      20.064   5.070  20.487  0.00  0.00    +0.022 A 
ATOM     26  C   UNL     1      20.092   6.522  22.418  0.00  0.00    +0.022 A 
ATOM     29  C   UNL     1      20.658   5.483  21.680  0.00  0.00    +0.041 A 
ENDBRANCH   8  19
BRANCH  10  15
ATOM      2  O   UNL     1      12.308   7.816  17.110  0.00  0.00    -0.336 OA
ATOM      7  N   UNL     1      14.217   8.945  17.418  0.00  0.00    -0.190 NA
ATOM      9  N   UNL     1      12.321   8.828  16.143  0.00  0.00    -0.056 NA
ATOM     15  C   UNL     1      13.459   7.955  17.818  0.00  0.00    +0.249 A 
ATOM     18  C   UNL     1      13.477   9.451  16.389  0.00  0.00    +0.202 A 
BRANCH  18  20
ATOM     20  C   UNL     1      13.922  10.581  15.626  0.00  0.00    +0.022 A 
ATOM     23  C   UNL     1      15.164  11.159  15.893  0.00  0.00    +0.012 A 
ATOM     24  C   UNL     1      13.113  11.105  14.617  0.00  0.00    +0.012 A 
ATOM     27  C   UNL     1      15.596  12.258  15.153  0.00  0.00    +0.001 A 
ATOM     28  C   UNL     1      13.546  12.204  13.876  0.00  0.00    +0.001 A 
ATOM     30  C   UNL     1      14.787  12.782  14.143  0.00  0.00    +0.000 A 
ENDBRANCH  18  20
ENDBRANCH  10  15
TORSDOF 3
ENDMDL
MODEL 2
REMARK VINA RESULT:      -7.9      3.284      5.647
REMARK  Name = 26761859
REMARK  3 active torsions:
REMARK  status: ('A' for Active; 'I' for Inactive)
REMARK    1  A    between atoms: N_8  and  C_19
REMARK    2  A    between atoms: C_10  and  C_15
REMARK    3  A    between atoms: C_18  and  C_20
REMARK                            x       y       z     vdW  Elec       q    Type
REMARK                         _______ _______ _______ _____ _____    ______ ____
ROOT
ATOM      3  O   UNL     1      18.140   9.232  20.842  0.00  0.00    -0.252 OA
ATOM      4  N   UNL     1      16.019   8.334  21.141  0.00  0.00    -0.267 N 
ATOM      5  N   UNL     1      12.953   6.207  20.854  0.00  0.00    -0.347 N 
ATOM      6  N   UNL     1      12.383   7.622  19.223  0.00  0.00    -0.240 NA
ATOM      8  N   UNL     1      17.928   7.207  21.962  0.00  0.00    -0.269 N 
ATOM     10  C   UNL     1      15.367   9.556  20.553  0.00  0.00    +0.172 C 
ATOM     11  C   UNL     1      14.360   9.190  19.421  0.00  0.00    +0.089 C 
ATOM     12  C   UNL     1      15.138   7.245  21.654  0.00  0.00    +0.165 C 
ATOM     13  C   UNL     1      13.559   8.007  19.799  0.00  0.00    +0.066 A 
ATOM     14  C   UNL     1      13.935   7.151  20.804  0.00  0.00    +0.056 A 
ATOM     16  C   UNL     1      17.434   8.319  21.276  0.00  0.00    +0.307 C 
ATOM     17  C   UNL     1      12.041   6.533  19.882  0.00  0.00    +0.197 A 
ATOM     31  H   UNL     1      12.902   5.418  21.484  0.00  0.00    +0.167 HD
ATOM     32  H   UNL     1      17.321   6.765  22.645  0.00  0.00    +0.156 HD
ENDROOT
BRANCH   8  19
ATOM      1 CL   UNL     1      23.184   4.567  21.231  0.00  0.00    -0.084 Cl
ATOM     19  C   UNL     1      19.183   6.576  21.787  0.00  0.00    +0.035 A 
ATOM     21  C   UNL     1      20.169   6.701  22.767  0.00  0.00    +0.025 A 
ATOM     22  C   UNL     1      19.435   5.829  20.636  0.00  0.00    +0.025 A 
ATOM     25  C   UNL     1      21.407   6.079  22.595  0.00  0.00    +0.022 A 
ATOM     26  C   UNL     1      20.672   5.208  20.464  0.00  0.00    +0.022 A 
ATOM     29  C   UNL     1      21.657   5.333  21.443  0.00  0.00    +0.041 A 
ENDBRANCH   8  19
BRANCH  10  15
ATOM      2  O   UNL     1      15.772  11.020  22.483  0.00  0.00    -0.336 OA
ATOM      7  N   UNL     1      13.608  10.798  21.949  0.00  0.00    -0.190 NA
ATOM      9  N   UNL     1      15.062  11.799  23.404  0.00  0.00    -0.056 NA
ATOM     15  C   UNL     1      14.841  10.465  21.662  0.00  0.00    +0.249 A 
ATOM     18  C   UNL     1      13.794  11.617  23.025  0.00  0.00    +0.202 A 
BRANCH  18  20
ATOM     20  C   UNL     1      12.690  12.239  23.698  0.00  0.00    +0.022 A 
ATOM     23  C   UNL     1      11.993  11.542  24.685  0.00  0.00    +0.012 A 
ATOM     24  C   UNL     1      12.313  13.540  23.366  0.00  0.00    +0.012 A 
ATOM     27  C   UNL     1      10.919  12.146  25.338  0.00  0.00    +0.001 A 
ATOM     28  C   UNL     1      11.240  14.144  24.019  0.00  0.00    +0.001 A 
ATOM     30  C   UNL     1      10.542  13.447  25.006  0.00  0.00    +0.000 A 
ENDBRANCH  18  20
ENDBRANCH  10  15
TORSDOF 3
ENDMDL
MODEL 3
REMARK VINA RESULT:      -7.8      3.602      7.562
REMARK  Name = 26761859
REMARK  3 active torsions:
REMARK  status: ('A' for Active; 'I' for Inactive)
REMARK    1  A    between atoms: N_8  and  C_19
REMARK    2  A    between atoms: C_10  and  C_15
REMARK    3  A    between atoms: C_18  and  C_20
REMARK                            x       y       z     vdW  Elec       q    Type
REMARK                         _______ _______ _______ _____ _____    ______ ____
ROOT
ATOM      3  O   UNL     1      12.373   9.778  16.919  0.00  0.00    -0.252 OA
ATOM      4  N   UNL     1      13.823   9.316  18.674  0.00  0.00    -0.267 N 
ATOM      5  N   UNL     1      16.741   8.135  20.698  0.00  0.00    -0.347 N 
ATOM      6  N   UNL     1      15.609   6.213  20.816  0.00  0.00    -0.240 NA
ATOM      8  N   UNL     1      14.331  11.015  17.111  0.00  0.00    -0.269 N 
ATOM     10  C   UNL     1      12.859   8.328  19.273  0.00  0.00    +0.172 C 
ATOM     11  C   UNL     1      13.538   6.956  19.563  0.00  0.00    +0.089 C 
ATOM     12  C   UNL     1      15.097   9.587  19.403  0.00  0.00    +0.165 C 
ATOM     13  C   UNL     1      14.885   7.153  20.140  0.00  0.00    +0.066 A 
ATOM     14  C   UNL     1      15.560   8.344  20.050  0.00  0.00    +0.056 A 
ATOM     16  C   UNL     1      13.431  10.021  17.503  0.00  0.00    +0.307 C 
ATOM     17  C   UNL     1      16.724   6.836  21.140  0.00  0.00    +0.197 A 
ATOM     31  H   UNL     1      17.487   8.804  20.830  0.00  0.00    +0.167 HD
ATOM     32  H   UNL     1      14.900  11.449  17.831  0.00  0.00    +0.156 HD
ENDROOT
BRANCH   8  19
ATOM      1 CL   UNL     1      15.406  12.928  11.604  0.00  0.00    -0.084 Cl
ATOM     19  C   UNL     1      14.587  11.473  15.795  0.00  0.00    +0.035 A 
ATOM     21  C   UNL     1      15.410  10.730  14.947  0.00  0.00    +0.025 A 
ATOM     22  C   UNL     1      14.017  12.664  15.347  0.00  0.00    +0.025 A 
ATOM     25  C   UNL     1      15.663  11.181  13.650  0.00  0.00    +0.022 A 
ATOM     26  C   UNL     1      14.271  13.115  14.051  0.00  0.00    +0.022 A 
ATOM     29  C   UNL     1      15.093  12.373  13.204  0.00  0.00    +0.041 A 
ENDBRANCH   8  19
BRANCH  10  15
ATOM      2  O   UNL     1      11.091   8.226  20.974  0.00  0.00    -0.336 OA
ATOM      7  N   UNL     1      12.259  10.137  20.991  0.00  0.00    -0.190 NA
ATOM      9  N   UNL     1      10.545   9.006  22.000  0.00  0.00    -0.056 NA
ATOM     15  C   UNL     1      12.094   8.965  20.432  0.00  0.00    +0.249 A 
ATOM     18  C   UNL     1      11.286  10.117  21.948  0.00  0.00    +0.202 A 
BRANCH  18  20
ATOM     20  C   UNL     1      11.081  11.224  22.838  0.00  0.00    +0.022 A 
ATOM     23  C   UNL     1      11.077  11.018  24.218  0.00  0.00    +0.012 A 
ATOM     24  C   UNL     1      10.885  12.506  22.324  0.00  0.00    +0.012 A 
ATOM     27  C   UNL     1      10.877  12.093  25.083  0.00  0.00    +0.001 A 
ATOM     28  C   UNL     1      10.685  13.581  23.189  0.00  0.00    +0.001 A 
ATOM     30  C   UNL     1      10.681  13.375  24.569  0.00  0.00    +0.000 A 
ENDBRANCH  18  20
ENDBRANCH  10  15
TORSDOF 3
ENDMDL
MODEL 4
REMARK VINA RESULT:      -7.6     28.846     31.039
REMARK  Name = 26761859
REMARK  3 active torsions:
REMARK  status: ('A' for Active; 'I' for Inactive)
REMARK    1  A    between atoms: N_8  and  C_19
REMARK    2  A    between atoms: C_10  and  C_15
REMARK    3  A    between atoms: C_18  and  C_20
REMARK                            x       y       z     vdW  Elec       q    Type
REMARK                         _______ _______ _______ _____ _____    ______ ____
ROOT
ATOM      3  O   UNL     1      -7.984  -9.536   8.084  0.00  0.00    -0.252 OA
ATOM      4  N   UNL     1      -8.673  -7.319   8.002  0.00  0.00    -0.267 N 
ATOM      5  N   UNL     1      -9.788  -3.875   8.949  0.00  0.00    -0.347 N 
ATOM      6  N   UNL     1     -11.839  -4.759   8.916  0.00  0.00    -0.240 NA
ATOM      8  N   UNL     1      -6.483  -7.873   8.700  0.00  0.00    -0.269 N 
ATOM     10  C   UNL     1      -9.990  -7.701   7.384  0.00  0.00    +0.172 C 
ATOM     11  C   UNL     1     -11.196  -7.089   8.159  0.00  0.00    +0.089 C 
ATOM     12  C   UNL     1      -8.387  -5.870   8.209  0.00  0.00    +0.165 C 
ATOM     13  C   UNL     1     -10.911  -5.689   8.542  0.00  0.00    +0.066 A 
ATOM     14  C   UNL     1      -9.641  -5.172   8.557  0.00  0.00    +0.056 A 
ATOM     16  C   UNL     1      -7.723  -8.344   8.263  0.00  0.00    +0.307 C 
ATOM     17  C   UNL     1     -11.131  -3.674   9.154  0.00  0.00    +0.197 A 
ATOM     31  H   UNL     1      -9.055  -3.189   9.066  0.00  0.00    +0.167 HD
ATOM     32  H   UNL     1      -6.200  -6.943   8.405  0.00  0.00    +0.156 HD
ENDROOT
BRANCH   8  19
ATOM      1 CL   UNL     1      -2.660 -10.608  12.310  0.00  0.00    -0.084 Cl
ATOM     19  C   UNL     1      -5.569  -8.527   9.562  0.00  0.00    +0.035 A 
ATOM     21  C   UNL     1      -5.968  -8.900  10.846  0.00  0.00    +0.025 A 
ATOM     22  C   UNL     1      -4.272  -8.797   9.128  0.00  0.00    +0.025 A 
ATOM     25  C   UNL     1      -5.068  -9.545  11.696  0.00  0.00    +0.022 A 
ATOM     26  C   UNL     1      -3.372  -9.440   9.978  0.00  0.00    +0.022 A 
ATOM     29  C   UNL     1      -3.770  -9.814  11.261  0.00  0.00    +0.041 A 
ENDBRANCH   8  19
BRANCH  10  15
ATOM      2  O   UNL     1      -8.809  -7.794   5.233  0.00  0.00    -0.336 OA
ATOM      7  N   UNL     1     -10.891  -6.979   5.093  0.00  0.00    -0.190 NA
ATOM      9  N   UNL     1      -9.018  -7.490   3.882  0.00  0.00    -0.056 NA
ATOM     15  C   UNL     1      -9.960  -7.463   5.876  0.00  0.00    +0.249 A 
ATOM     18  C   UNL     1     -10.267  -7.015   3.880  0.00  0.00    +0.202 A 
BRANCH  18  20
ATOM     20  C   UNL     1     -10.920  -6.569   2.683  0.00  0.00    +0.022 A 
ATOM     23  C   UNL     1     -10.267  -5.692   1.817  0.00  0.00    +0.012 A 
ATOM     24  C   UNL     1     -12.209  -7.012   2.384  0.00  0.00    +0.012 A 
ATOM     27  C   UNL     1     -10.901  -5.257   0.654  0.00  0.00    +0.001 A 
ATOM     28  C   UNL     1     -12.843  -6.577   1.221  0.00  0.00    +0.001 A 
ATOM     30  C   UNL     1     -12.190  -5.700   0.355  0.00  0.00    +0.000 A 
ENDBRANCH  18  20
ENDBRANCH  10  15
TORSDOF 3
ENDMDL
MODEL 5
REMARK VINA RESULT:      -7.6      4.734     10.206
REMARK  Name = 26761859
REMARK  3 active torsions:
REMARK  status: ('A' for Active; 'I' for Inactive)
REMARK    1  A    between atoms: N_8  and  C_19
REMARK    2  A    between atoms: C_10  and  C_15
REMARK    3  A    between atoms: C_18  and  C_20
REMARK                            x       y       z     vdW  Elec       q    Type
REMARK                         _______ _______ _______ _____ _____    ______ ____
ROOT
ATOM      3  O   UNL     1      18.055   6.243  19.513  0.00  0.00    -0.252 OA
ATOM      4  N   UNL     1      19.417   6.785  21.315  0.00  0.00    -0.267 N 
ATOM      5  N   UNL     1      21.191   8.644  24.035  0.00  0.00    -0.347 N 
ATOM      6  N   UNL     1      22.707   9.084  22.455  0.00  0.00    -0.240 NA
ATOM      8  N   UNL     1      17.070   6.659  21.576  0.00  0.00    -0.269 N 
ATOM     10  C   UNL     1      20.663   6.545  20.507  0.00  0.00    +0.172 C 
ATOM     11  C   UNL     1      21.645   7.752  20.581  0.00  0.00    +0.089 C 
ATOM     12  C   UNL     1      19.570   7.156  22.752  0.00  0.00    +0.165 C 
ATOM     13  C   UNL     1      21.721   8.279  21.960  0.00  0.00    +0.066 A 
ATOM     14  C   UNL     1      20.774   7.995  22.912  0.00  0.00    +0.056 A 
ATOM     16  C   UNL     1      18.155   6.547  20.703  0.00  0.00    +0.307 C 
ATOM     17  C   UNL     1      22.360   9.286  23.709  0.00  0.00    +0.197 A 
ATOM     31  H   UNL     1      20.733   8.653  24.936  0.00  0.00    +0.167 HD
ATOM     32  H   UNL     1      17.233   6.466  22.559  0.00  0.00    +0.156 HD
ENDROOT
BRANCH   8  19
ATOM      1 CL   UNL     1      11.544   8.346  20.256  0.00  0.00    -0.084 Cl
ATOM     19  C   UNL     1      15.750   7.062  21.260  0.00  0.00    +0.035 A 
ATOM     21  C   UNL     1      15.089   7.982  22.074  0.00  0.00    +0.025 A 
ATOM     22  C   UNL     1      15.111   6.539  20.136  0.00  0.00    +0.025 A 
ATOM     25  C   UNL     1      13.787   8.380  21.763  0.00  0.00    +0.022 A 
ATOM     26  C   UNL     1      13.810   6.935  19.825  0.00  0.00    +0.022 A 
ATOM     29  C   UNL     1      13.148   7.855  20.639  0.00  0.00    +0.041 A 
ENDBRANCH   8  19
BRANCH  10  15
ATOM      2  O   UNL     1      20.473   4.097  20.527  0.00  0.00    -0.336 OA
ATOM      7  N   UNL     1      22.405   4.865  21.358  0.00  0.00    -0.190 NA
ATOM      9  N   UNL     1      21.210   2.968  20.905  0.00  0.00    -0.056 NA
ATOM     15  C   UNL     1      21.249   5.172  20.827  0.00  0.00    +0.249 A 
ATOM     18  C   UNL     1      22.336   3.503  21.386  0.00  0.00    +0.202 A 
BRANCH  18  20
ATOM     20  C   UNL     1      23.411   2.704  21.900  0.00  0.00    +0.022 A 
ATOM     23  C   UNL     1      23.986   1.712  21.104  0.00  0.00    +0.012 A 
ATOM     24  C   UNL     1      23.882   2.917  23.195  0.00  0.00    +0.012 A 
ATOM     27  C   UNL     1      25.030   0.935  21.604  0.00  0.00    +0.001 A 
ATOM     28  C   UNL     1      24.927   2.140  23.695  0.00  0.00    +0.001 A 
ATOM     30  C   UNL     1      25.501   1.148  22.899  0.00  0.00    +0.000 A 
ENDBRANCH  18  20
ENDBRANCH  10  15
TORSDOF 3
ENDMDL
MODEL 6
REMARK VINA RESULT:      -7.4     28.440     30.896
REMARK  Name = 26761859
REMARK  3 active torsions:
REMARK  status: ('A' for Active; 'I' for Inactive)
REMARK    1  A    between atoms: N_8  and  C_19
REMARK    2  A    between atoms: C_10  and  C_15
REMARK    3  A    between atoms: C_18  and  C_20
REMARK                            x       y       z     vdW  Elec       q    Type
REMARK                         _______ _______ _______ _____ _____    ______ ____
ROOT
ATOM      3  O   UNL     1      -8.504  -9.767  15.536  0.00  0.00    -0.252 OA
ATOM      4  N   UNL     1     -10.459  -9.342  16.716  0.00  0.00    -0.267 N 
ATOM      5  N   UNL     1     -13.440  -9.675  18.953  0.00  0.00    -0.347 N 
ATOM      6  N   UNL     1     -14.437 -10.524  17.144  0.00  0.00    -0.240 NA
ATOM      8  N   UNL     1      -8.375  -9.425  17.830  0.00  0.00    -0.269 N 
ATOM     10  C   UNL     1     -11.269  -9.294  15.449  0.00  0.00    +0.172 C 
ATOM     11  C   UNL     1     -12.516 -10.227  15.521  0.00  0.00    +0.089 C 
ATOM     12  C   UNL     1     -11.154  -9.068  18.007  0.00  0.00    +0.165 C 
ATOM     13  C   UNL     1     -13.165 -10.127  16.846  0.00  0.00    +0.066 A 
ATOM     14  C   UNL     1     -12.528  -9.604  17.942  0.00  0.00    +0.056 A 
ATOM     16  C   UNL     1      -9.055  -9.541  16.615  0.00  0.00    +0.307 C 
ATOM     17  C   UNL     1     -14.574 -10.237  18.422  0.00  0.00    +0.197 A 
ATOM     31  H   UNL     1     -13.311  -9.373  19.909  0.00  0.00    +0.167 HD
ATOM     32  H   UNL     1      -8.781  -8.827  18.543  0.00  0.00    +0.156 HD
ENDROOT
BRANCH   8  19
ATOM      1 CL   UNL     1      -3.398 -12.205  19.451  0.00  0.00    -0.084 Cl
ATOM     19  C   UNL     1      -7.186 -10.089  18.218  0.00  0.00    +0.035 A 
ATOM     21  C   UNL     1      -6.059 -10.035  17.398  0.00  0.00    +0.025 A 
ATOM     22  C   UNL     1      -7.142 -10.797  19.419  0.00  0.00    +0.025 A 
ATOM     25  C   UNL     1      -4.886 -10.689  17.780  0.00  0.00    +0.022 A 
ATOM     26  C   UNL     1      -5.971 -11.452  19.800  0.00  0.00    +0.022 A 
ATOM     29  C   UNL     1      -4.844 -11.398  18.981  0.00  0.00    +0.041 A 
ENDBRANCH   8  19
BRANCH  10  15
ATOM      2  O   UNL     1     -10.785  -6.896  15.661  0.00  0.00    -0.336 OA
ATOM      7  N   UNL     1     -12.370  -7.373  14.153  0.00  0.00    -0.190 NA
ATOM      9  N   UNL     1     -11.193  -5.669  15.125  0.00  0.00    -0.056 NA
ATOM     15  C   UNL     1     -11.527  -7.847  15.035  0.00  0.00    +0.249 A 
ATOM     18  C   UNL     1     -12.129  -6.033  14.243  0.00  0.00    +0.202 A 
BRANCH  18  20
ATOM     20  C   UNL     1     -12.840  -5.083  13.437  0.00  0.00    +0.022 A 
ATOM     23  C   UNL     1     -14.226  -4.970  13.552  0.00  0.00    +0.012 A 
ATOM     24  C   UNL     1     -12.147  -4.273  12.538  0.00  0.00    +0.012 A 
ATOM     27  C   UNL     1     -14.917  -4.048  12.768  0.00  0.00    +0.001 A 
ATOM     28  C   UNL     1     -12.838  -3.351  11.754  0.00  0.00    +0.001 A 
ATOM     30  C   UNL     1     -14.224  -3.237  11.868  0.00  0.00    +0.000 A 
ENDBRANCH  18  20
ENDBRANCH  10  15
TORSDOF 3
ENDMDL
MODEL 7
REMARK VINA RESULT:      -7.4     28.622     32.006
REMARK  Name = 26761859
REMARK  3 active torsions:
REMARK  status: ('A' for Active; 'I' for Inactive)
REMARK    1  A    between atoms: N_8  and  C_19
REMARK    2  A    between atoms: C_10  and  C_15
REMARK    3  A    between atoms: C_18  and  C_20
REMARK                            x       y       z     vdW  Elec       q    Type
REMARK                         _______ _______ _______ _____ _____    ______ ____
ROOT
ATOM      3  O   UNL     1     -11.370  -6.072  16.386  0.00  0.00    -0.252 OA
ATOM      4  N   UNL     1     -11.634  -8.373  16.217  0.00  0.00    -0.267 N 
ATOM      5  N   UNL     1     -13.108 -11.807  16.016  0.00  0.00    -0.347 N 
ATOM      6  N   UNL     1     -13.023 -11.743  18.247  0.00  0.00    -0.240 NA
ATOM      8  N   UNL     1     -12.164  -6.965  14.393  0.00  0.00    -0.269 N 
ATOM     10  C   UNL     1     -11.016  -8.592  17.571  0.00  0.00    +0.172 C 
ATOM     11  C   UNL     1     -11.915  -9.479  18.484  0.00  0.00    +0.089 C 
ATOM     12  C   UNL     1     -12.038  -9.572  15.426  0.00  0.00    +0.165 C 
ATOM     13  C   UNL     1     -12.485 -10.606  17.716  0.00  0.00    +0.066 A 
ATOM     14  C   UNL     1     -12.528 -10.618  16.345  0.00  0.00    +0.056 A 
ATOM     16  C   UNL     1     -11.709  -7.047  15.712  0.00  0.00    +0.307 C 
ATOM     17  C   UNL     1     -13.389 -12.449  17.197  0.00  0.00    +0.197 A 
ATOM     31  H   UNL     1     -13.296 -12.154  15.086  0.00  0.00    +0.167 HD
ATOM     32  H   UNL     1     -11.996  -7.761  13.785  0.00  0.00    +0.156 HD
ENDROOT
BRANCH   8  19
ATOM      1 CL   UNL     1     -15.199  -2.527  11.898  0.00  0.00    -0.084 Cl
ATOM     19  C   UNL     1     -12.888  -5.904  13.797  0.00  0.00    +0.035 A 
ATOM     21  C   UNL     1     -14.283  -5.910  13.828  0.00  0.00    +0.025 A 
ATOM     22  C   UNL     1     -12.208  -4.855  13.179  0.00  0.00    +0.025 A 
ATOM     25  C   UNL     1     -14.998  -4.865  13.241  0.00  0.00    +0.022 A 
ATOM     26  C   UNL     1     -12.923  -3.811  12.592  0.00  0.00    +0.022 A 
ATOM     29  C   UNL     1     -14.317  -3.816  12.622  0.00  0.00    +0.041 A 
ENDBRANCH   8  19
BRANCH  10  15
ATOM      2  O   UNL     1      -8.913  -8.615  16.303  0.00  0.00    -0.336 OA
ATOM      7  N   UNL     1      -8.820  -9.739  18.238  0.00  0.00    -0.190 NA
ATOM      9  N   UNL     1      -7.612  -9.124  16.395  0.00  0.00    -0.056 NA
ATOM     15  C   UNL     1      -9.558  -9.022  17.428  0.00  0.00    +0.249 A 
ATOM     18  C   UNL     1      -7.635  -9.774  17.562  0.00  0.00    +0.202 A 
BRANCH  18  20
ATOM     20  C   UNL     1      -6.492 -10.468  18.082  0.00  0.00    +0.022 A 
ATOM     23  C   UNL     1      -5.357 -10.634  17.288  0.00  0.00    +0.012 A 
ATOM     24  C   UNL     1      -6.514 -10.977  19.380  0.00  0.00    +0.012 A 
ATOM     27  C   UNL     1      -4.245 -11.309  17.792  0.00  0.00    +0.001 A 
ATOM     28  C   UNL     1      -5.403 -11.652  19.884  0.00  0.00    +0.001 A 
ATOM     30  C   UNL     1      -4.268 -11.818  19.090  0.00  0.00    +0.000 A 
ENDBRANCH  18  20
ENDBRANCH  10  15
TORSDOF 3
ENDMDL
MODEL 8
REMARK VINA RESULT:      -7.2     19.530     22.615
REMARK  Name = 26761859
REMARK  3 active torsions:
REMARK  status: ('A' for Active; 'I' for Inactive)
REMARK    1  A    between atoms: N_8  and  C_19
REMARK    2  A    between atoms: C_10  and  C_15
REMARK    3  A    between atoms: C_18  and  C_20
REMARK                            x       y       z     vdW  Elec       q    Type
REMARK                         _______ _______ _______ _____ _____    ______ ____
ROOT
ATOM      3  O   UNL     1       8.874  -5.932  36.806  0.00  0.00    -0.252 OA
ATOM      4  N   UNL     1       8.110  -6.325  34.648  0.00  0.00    -0.267 N 
ATOM      5  N   UNL     1       6.106  -7.496  31.713  0.00  0.00    -0.347 N 
ATOM      6  N   UNL     1       7.368  -9.333  31.853  0.00  0.00    -0.240 NA
ATOM      8  N   UNL     1       6.988  -4.798  36.062  0.00  0.00    -0.269 N 
ATOM     10  C   UNL     1       9.292  -7.202  34.338  0.00  0.00    +0.172 C 
ATOM     11  C   UNL     1       8.858  -8.582  33.758  0.00  0.00    +0.089 C 
ATOM     12  C   UNL     1       7.120  -6.068  33.562  0.00  0.00    +0.165 C 
ATOM     13  C   UNL     1       7.757  -8.414  32.786  0.00  0.00    +0.066 A 
ATOM     14  C   UNL     1       6.994  -7.275  32.723  0.00  0.00    +0.056 A 
ATOM     16  C   UNL     1       8.044  -5.701  35.924  0.00  0.00    +0.307 C 
ATOM     17  C   UNL     1       6.371  -8.750  31.221  0.00  0.00    +0.197 A 
ATOM     31  H   UNL     1       5.389  -6.863  31.385  0.00  0.00    +0.167 HD
ATOM     32  H   UNL     1       6.647  -4.338  35.223  0.00  0.00    +0.156 HD
ENDROOT
BRANCH   8  19
ATOM      1 CL   UNL     1       4.049  -3.420  41.021  0.00  0.00    -0.084 Cl
ATOM     19  C   UNL     1       6.285  -4.469  37.246  0.00  0.00    +0.035 A 
ATOM     21  C   UNL     1       6.199  -3.139  37.659  0.00  0.00    +0.025 A 
ATOM     22  C   UNL     1       5.680  -5.474  38.001  0.00  0.00    +0.025 A 
ATOM     25  C   UNL     1       5.506  -2.814  38.826  0.00  0.00    +0.022 A 
ATOM     26  C   UNL     1       4.989  -5.150  39.168  0.00  0.00    +0.022 A 
ATOM     29  C   UNL     1       4.902  -3.820  39.581  0.00  0.00    +0.041 A 
ENDBRANCH   8  19
BRANCH  10  15
ATOM      2  O   UNL     1      10.236  -5.071  33.563  0.00  0.00    -0.336 OA
ATOM      7  N   UNL     1      11.327  -6.875  32.810  0.00  0.00    -0.190 NA
ATOM      9  N   UNL     1      11.281  -4.588  32.767  0.00  0.00    -0.056 NA
ATOM     15  C   UNL     1      10.335  -6.426  33.535  0.00  0.00    +0.249 A 
ATOM     18  C   UNL     1      11.879  -5.711  32.359  0.00  0.00    +0.202 A 
BRANCH  18  20
ATOM     20  C   UNL     1      13.029  -5.705  31.502  0.00  0.00    +0.022 A 
ATOM     23  C   UNL     1      14.052  -4.781  31.714  0.00  0.00    +0.012 A 
ATOM     24  C   UNL     1      13.125  -6.621  30.454  0.00  0.00    +0.012 A 
ATOM     27  C   UNL     1      15.170  -4.774  30.881  0.00  0.00    +0.001 A 
ATOM     28  C   UNL     1      14.243  -6.614  29.621  0.00  0.00    +0.001 A 
ATOM     30  C   UNL     1      15.266  -5.690  29.834  0.00  0.00    +0.000 A 
ENDBRANCH  18  20
ENDBRANCH  10  15
TORSDOF 3
ENDMDL
MODEL 9
REMARK VINA RESULT:      -7.2     28.240     31.384
REMARK  Name = 26761859
REMARK  3 active torsions:
REMARK  status: ('A' for Active; 'I' for Inactive)
REMARK    1  A    between atoms: N_8  and  C_19
REMARK    2  A    between atoms: C_10  and  C_15
REMARK    3  A    between atoms: C_18  and  C_20
REMARK                            x       y       z     vdW  Elec       q    Type
REMARK                         _______ _______ _______ _____ _____    ______ ____
ROOT
ATOM      3  O   UNL     1     -11.356  -7.722  10.439  0.00  0.00    -0.252 OA
ATOM      4  N   UNL     1      -9.604  -7.593   8.920  0.00  0.00    -0.267 N 
ATOM      5  N   UNL     1      -7.601  -7.224   5.781  0.00  0.00    -0.347 N 
ATOM      6  N   UNL     1      -7.950  -9.418   5.552  0.00  0.00    -0.240 NA
ATOM      8  N   UNL     1     -10.765  -5.644   9.584  0.00  0.00    -0.269 N 
ATOM     10  C   UNL     1      -9.289  -9.055   9.086  0.00  0.00    +0.172 C 
ATOM     11  C   UNL     1      -9.210  -9.793   7.716  0.00  0.00    +0.089 C 
ATOM     12  C   UNL     1      -8.731  -6.784   8.021  0.00  0.00    +0.165 C 
ATOM     13  C   UNL     1      -8.493  -8.967   6.721  0.00  0.00    +0.066 A 
ATOM     14  C   UNL     1      -8.295  -7.619   6.885  0.00  0.00    +0.056 A 
ATOM     16  C   UNL     1     -10.648  -7.031   9.704  0.00  0.00    +0.307 C 
ATOM     17  C   UNL     1      -7.418  -8.343   5.007  0.00  0.00    +0.197 A 
ATOM     31  H   UNL     1      -7.280  -6.289   5.568  0.00  0.00    +0.167 HD
ATOM     32  H   UNL     1      -9.929  -5.117   9.349  0.00  0.00    +0.156 HD
ENDROOT
BRANCH   8  19
ATOM      1 CL   UNL     1     -15.690  -2.387  10.100  0.00  0.00    -0.084 Cl
ATOM     19  C   UNL     1     -11.942  -4.866   9.706  0.00  0.00    +0.035 A 
ATOM     21  C   UNL     1     -12.135  -4.067  10.834  0.00  0.00    +0.025 A 
ATOM     22  C   UNL     1     -12.908  -4.898   8.701  0.00  0.00    +0.025 A 
ATOM     25  C   UNL     1     -13.294  -3.300  10.956  0.00  0.00    +0.022 A 
ATOM     26  C   UNL     1     -14.067  -4.132   8.823  0.00  0.00    +0.022 A 
ATOM     29  C   UNL     1     -14.260  -3.333   9.950  0.00  0.00    +0.041 A 
ENDBRANCH   8  19
BRANCH  10  15
ATOM      2  O   UNL     1      -8.379  -9.264  11.357  0.00  0.00    -0.336 OA
ATOM      7  N   UNL     1      -6.831  -9.383   9.743  0.00  0.00    -0.190 NA
ATOM      9  N   UNL     1      -7.152  -9.441  12.008  0.00  0.00    -0.056 NA
ATOM     15  C   UNL     1      -8.101  -9.241  10.027  0.00  0.00    +0.249 A 
ATOM     18  C   UNL     1      -6.288  -9.502  10.989  0.00  0.00    +0.202 A 
BRANCH  18  20
ATOM     20  C   UNL     1      -4.879  -9.683  11.183  0.00  0.00    +0.022 A 
ATOM     23  C   UNL     1      -4.412 -10.396  12.288  0.00  0.00    +0.012 A 
ATOM     24  C   UNL     1      -3.973  -9.146  10.268  0.00  0.00    +0.012 A 
ATOM     27  C   UNL     1      -3.042 -10.572  12.478  0.00  0.00    +0.001 A 
ATOM     28  C   UNL     1      -2.603  -9.321  10.458  0.00  0.00    +0.001 A 
ATOM     30  C   UNL     1      -2.136 -10.035  11.563  0.00  0.00    +0.000 A 
ENDBRANCH  18  20
ENDBRANCH  10  15
TORSDOF 3
ENDMDL
MODEL 10
REMARK VINA RESULT:      -7.1      3.336      7.705
REMARK  Name = 26761859
REMARK  3 active torsions:
REMARK  status: ('A' for Active; 'I' for Inactive)
REMARK    1  A    between atoms: N_8  and  C_19
REMARK    2  A    between atoms: C_10  and  C_15
REMARK    3  A    between atoms: C_18  and  C_20
REMARK                            x       y       z     vdW  Elec       q    Type
REMARK                         _______ _______ _______ _____ _____    ______ ____
ROOT
ATOM      3  O   UNL     1      15.724  11.280  19.017  0.00  0.00    -0.252 OA
ATOM      4  N   UNL     1      14.202   9.599  19.521  0.00  0.00    -0.267 N 
ATOM      5  N   UNL     1      11.047   7.705  20.201  0.00  0.00    -0.347 N 
ATOM      6  N   UNL     1      11.335   8.398  22.304  0.00  0.00    -0.240 NA
ATOM      8  N   UNL     1      14.406  10.414  17.311  0.00  0.00    -0.269 N 
ATOM     10  C   UNL     1      14.700   9.506  20.937  0.00  0.00    +0.172 C 
ATOM     11  C   UNL     1      13.537   9.604  21.970  0.00  0.00    +0.089 C 
ATOM     12  C   UNL     1      13.133   8.652  19.087  0.00  0.00    +0.165 C 
ATOM     13  C   UNL     1      12.372   8.813  21.518  0.00  0.00    +0.066 A 
ATOM     14  C   UNL     1      12.218   8.402  20.218  0.00  0.00    +0.056 A 
ATOM     16  C   UNL     1      14.843  10.507  18.634  0.00  0.00    +0.307 C 
ATOM     17  C   UNL     1      10.552   7.732  21.481  0.00  0.00    +0.197 A 
ATOM     31  H   UNL     1      10.622   7.254  19.402  0.00  0.00    +0.167 HD
ATOM     32  H   UNL     1      14.049   9.518  16.993  0.00  0.00    +0.156 HD
ENDROOT
BRANCH   8  19
ATOM      1 CL   UNL     1      14.192  14.748  13.274  0.00  0.00    -0.084 Cl
ATOM     19  C   UNL     1      14.355  11.450  16.347  0.00  0.00    +0.035 A 
ATOM     21  C   UNL     1      14.367  11.138  14.987  0.00  0.00    +0.025 A 
ATOM     22  C   UNL     1      14.292  12.782  16.756  0.00  0.00    +0.025 A 
ATOM     25  C   UNL     1      14.316  12.158  14.036  0.00  0.00    +0.022 A 
ATOM     26  C   UNL     1      14.242  13.802  15.806  0.00  0.00    +0.022 A 
ATOM     29  C   UNL     1      14.254  13.490  14.447  0.00  0.00    +0.041 A 
ENDBRANCH   8  19
BRANCH  10  15
ATOM      2  O   UNL     1      15.086   7.138  21.457  0.00  0.00    -0.336 OA
ATOM      7  N   UNL     1      16.946   8.267  20.927  0.00  0.00    -0.190 NA
ATOM      9  N   UNL     1      16.137   6.215  21.536  0.00  0.00    -0.056 NA
ATOM     15  C   UNL     1      15.649   8.320  21.093  0.00  0.00    +0.249 A 
ATOM     18  C   UNL     1      17.200   6.956  21.210  0.00  0.00    +0.202 A 
BRANCH  18  20
ATOM     20  C   UNL     1      18.528   6.417  21.156  0.00  0.00    +0.022 A 
ATOM     23  C   UNL     1      19.469   6.783  22.120  0.00  0.00    +0.012 A 
ATOM     24  C   UNL     1      18.881   5.528  20.141  0.00  0.00    +0.012 A 
ATOM     27  C   UNL     1      20.760   6.260  22.068  0.00  0.00    +0.001 A 
ATOM     28  C   UNL     1      20.172   5.005  20.089  0.00  0.00    +0.001 A 
ATOM     30  C   UNL     1      21.113   5.371  21.052  0.00  0.00    +0.000 A 
ENDBRANCH  18  20
ENDBRANCH  10  15
TORSDOF 3
ENDMDL
