MODEL 1
REMARK VINA RESULT:      -7.1      0.000      0.000
REMARK  Name = 45783472
REMARK  9 active torsions:
REMARK  status: ('A' for Active; 'I' for Inactive)
REMARK    1  A    between atoms: O_3  and  C_28
REMARK    2  A    between atoms: O_3  and  C_29
REMARK    3  A    between atoms: N_4  and  C_13
REMARK    4  A    between atoms: N_8  and  C_26
REMARK    5  A    between atoms: N_8  and  C_27
REMARK    6  A    between atoms: C_9  and  C_14
REMARK    7  A    between atoms: C_13  and  C_15
REMARK    8  A    between atoms: C_18  and  C_21
REMARK    9  A    between atoms: C_27  and  C_28
REMARK                            x       y       z     vdW  Elec       q    Type
REMARK                         _______ _______ _______ _____ _____    ______ ____
ROOT
ATOM      2  O   UNL     1     -16.723   3.269  22.169  0.00  0.00    -0.336 OA
ATOM      5  N   UNL     1     -16.635   4.401  24.099  0.00  0.00    -0.190 NA
ATOM      6  N   UNL     1     -16.683   2.305  23.184  0.00  0.00    -0.056 NA
ATOM     14  C   UNL     1     -16.691   4.475  22.793  0.00  0.00    +0.245 A 
ATOM     18  C   UNL     1     -16.633   3.051  24.292  0.00  0.00    +0.204 A 
ENDROOT
BRANCH  18  21
ATOM      7  N   UNL     1     -16.757   0.522  27.016  0.00  0.00    -0.240 NA
ATOM     21  C   UNL     1     -16.577   2.478  25.606  0.00  0.00    +0.041 A 
ATOM     23  C   UNL     1     -16.304   3.264  26.720  0.00  0.00    +0.016 A 
ATOM     24  C   UNL     1     -16.795   1.124  25.805  0.00  0.00    +0.124 A 
ATOM     25  C   UNL     1     -16.257   2.680  27.981  0.00  0.00    +0.044 A 
ATOM     26  C   UNL     1     -16.489   1.318  28.075  0.00  0.00    +0.119 A 
BRANCH  26   8
ATOM      8  N   UNL     1     -16.437   0.738  29.367  0.00  0.00    -0.327 N 
ATOM     30  H   UNL     1     -17.147   0.048  29.581  0.00  0.00    +0.148 HD
BRANCH   8  27
ATOM     27  C   UNL     1     -15.448   1.093  30.331  0.00  0.00    +0.131 C 
BRANCH  27  28
ATOM     28  C   UNL     1     -14.091   0.558  29.907  0.00  0.00    +0.178 C 
BRANCH  28   3
ATOM      3  O   UNL     1     -14.231  -0.785  29.459  0.00  0.00    -0.381 OA
ATOM     29  C   UNL     1     -12.967  -1.390  29.226  0.00  0.00    +0.194 C 
ENDBRANCH  28   3
ENDBRANCH  27  28
ENDBRANCH   8  27
ENDBRANCH  26   8
ENDBRANCH  18  21
BRANCH  14   9
ATOM      4  N   UNL     1     -15.402   6.022  21.330  0.00  0.00    -0.287 NA
ATOM      9  C   UNL     1     -16.725   5.698  21.901  0.00  0.00    +0.146 C 
ATOM     10  C   UNL     1     -17.644   5.517  20.679  0.00  0.00    +0.030 C 
ATOM     11  C   UNL     1     -16.766   5.819  19.473  0.00  0.00    +0.017 C 
ATOM     12  C   UNL     1     -15.654   6.674  20.046  0.00  0.00    +0.085 C 
BRANCH   4  13
ATOM     13  C   UNL     1     -14.582   6.845  22.212  0.00  0.00    +0.120 C 
BRANCH  13  15
ATOM      1 CL   UNL     1     -10.074   9.498  19.241  0.00  0.00    -0.084 Cl
ATOM     15  C   UNL     1     -13.454   7.509  21.469  0.00  0.00    -0.033 A 
ATOM     16  C   UNL     1     -12.421   6.739  20.935  0.00  0.00    +0.006 A 
ATOM     17  C   UNL     1     -13.440   8.895  21.315  0.00  0.00    +0.006 A 
ATOM     19  C   UNL     1     -11.376   7.354  20.247  0.00  0.00    +0.020 A 
ATOM     20  C   UNL     1     -12.395   9.511  20.627  0.00  0.00    +0.020 A 
ATOM     22  C   UNL     1     -11.363   8.741  20.093  0.00  0.00    +0.041 A 
ENDBRANCH  13  15
ENDBRANCH   4  13
ENDBRANCH  14   9
TORSDOF 8
ENDMDL
MODEL 2
REMARK VINA RESULT:      -6.9     28.629     31.883
REMARK  Name = 45783472
REMARK  9 active torsions:
REMARK  status: ('A' for Active; 'I' for Inactive)
REMARK    1  A    between atoms: O_3  and  C_28
REMARK    2  A    between atoms: O_3  and  C_29
REMARK    3  A    between atoms: N_4  and  C_13
REMARK    4  A    between atoms: N_8  and  C_26
REMARK    5  A    between atoms: N_8  and  C_27
REMARK    6  A    between atoms: C_9  and  C_14
REMARK    7  A    between atoms: C_13  and  C_15
REMARK    8  A    between atoms: C_18  and  C_21
REMARK    9  A    between atoms: C_27  and  C_28
REMARK                            x       y       z     vdW  Elec       q    Type
REMARK                         _______ _______ _______ _____ _____    ______ ____
ROOT
ATOM      2  O   UNL     1      13.982   6.769  20.196  0.00  0.00    -0.336 OA
ATOM      5  N   UNL     1      15.763   7.365  18.977  0.00  0.00    -0.190 NA
ATOM      6  N   UNL     1      15.101   6.556  21.012  0.00  0.00    -0.056 NA
ATOM     14  C   UNL     1      14.461   7.244  19.017  0.00  0.00    +0.245 A 
ATOM     18  C   UNL     1      16.112   6.931  20.222  0.00  0.00    +0.204 A 
ENDROOT
BRANCH  18  21
ATOM      7  N   UNL     1      19.242   7.768  22.048  0.00  0.00    -0.240 NA
ATOM     21  C   UNL     1      17.481   6.883  20.647  0.00  0.00    +0.041 A 
ATOM     23  C   UNL     1      18.366   5.954  20.110  0.00  0.00    +0.016 A 
ATOM     24  C   UNL     1      17.964   7.761  21.604  0.00  0.00    +0.124 A 
ATOM     25  C   UNL     1      19.688   5.932  20.542  0.00  0.00    +0.044 A 
ATOM     26  C   UNL     1      20.072   6.851  21.504  0.00  0.00    +0.119 A 
BRANCH  26   8
ATOM      8  N   UNL     1      21.422   6.815  21.934  0.00  0.00    -0.327 N 
ATOM     30  H   UNL     1      21.641   7.334  22.776  0.00  0.00    +0.148 HD
BRANCH   8  27
ATOM     27  C   UNL     1      22.435   6.096  21.232  0.00  0.00    +0.131 C 
BRANCH  27  28
ATOM     28  C   UNL     1      23.264   5.280  22.208  0.00  0.00    +0.178 C 
BRANCH  28   3
ATOM      3  O   UNL     1      23.501   3.987  21.664  0.00  0.00    -0.381 OA
ATOM     29  C   UNL     1      22.284   3.330  21.336  0.00  0.00    +0.194 C 
ENDBRANCH  28   3
ENDBRANCH  27  28
ENDBRANCH   8  27
ENDBRANCH  26   8
ENDBRANCH  18  21
BRANCH  14   9
ATOM      4  N   UNL     1      12.547   8.678  18.325  0.00  0.00    -0.287 NA
ATOM      9  C   UNL     1      13.434   7.558  17.949  0.00  0.00    +0.146 C 
ATOM     10  C   UNL     1      14.075   7.996  16.619  0.00  0.00    +0.030 C 
ATOM     11  C   UNL     1      13.442   9.343  16.298  0.00  0.00    +0.017 C 
ATOM     12  C   UNL     1      12.142   9.322  17.077  0.00  0.00    +0.085 C 
BRANCH   4  13
ATOM     13  C   UNL     1      11.402   8.259  19.124  0.00  0.00    +0.120 C 
BRANCH  13  15
ATOM      1 CL   UNL     1      11.185  11.133  24.404  0.00  0.00    -0.084 Cl
ATOM     15  C   UNL     1      11.347   8.979  20.445  0.00  0.00    -0.033 A 
ATOM     16  C   UNL     1      10.657   8.416  21.518  0.00  0.00    +0.006 A 
ATOM     17  C   UNL     1      11.986  10.210  20.596  0.00  0.00    +0.006 A 
ATOM     19  C   UNL     1      10.606   9.082  22.742  0.00  0.00    +0.020 A 
ATOM     20  C   UNL     1      11.936  10.876  21.820  0.00  0.00    +0.020 A 
ATOM     22  C   UNL     1      11.246  10.313  22.893  0.00  0.00    +0.041 A 
ENDBRANCH  13  15
ENDBRANCH   4  13
ENDBRANCH  14   9
TORSDOF 8
ENDMDL
MODEL 3
REMARK VINA RESULT:      -6.7     29.371     32.536
REMARK  Name = 45783472
REMARK  9 active torsions:
REMARK  status: ('A' for Active; 'I' for Inactive)
REMARK    1  A    between atoms: O_3  and  C_28
REMARK    2  A    between atoms: O_3  and  C_29
REMARK    3  A    between atoms: N_4  and  C_13
REMARK    4  A    between atoms: N_8  and  C_26
REMARK    5  A    between atoms: N_8  and  C_27
REMARK    6  A    between atoms: C_9  and  C_14
REMARK    7  A    between atoms: C_13  and  C_15
REMARK    8  A    between atoms: C_18  and  C_21
REMARK    9  A    between atoms: C_27  and  C_28
REMARK                            x       y       z     vdW  Elec       q    Type
REMARK                         _______ _______ _______ _____ _____    ______ ____
ROOT
ATOM      2  O   UNL     1      14.302   6.817  19.612  0.00  0.00    -0.336 OA
ATOM      5  N   UNL     1      15.631   7.493  21.282  0.00  0.00    -0.190 NA
ATOM      6  N   UNL     1      15.560   6.253  19.361  0.00  0.00    -0.056 NA
ATOM     14  C   UNL     1      14.431   7.531  20.759  0.00  0.00    +0.245 A 
ATOM     18  C   UNL     1      16.288   6.698  20.389  0.00  0.00    +0.204 A 
ENDROOT
BRANCH  18  21
ATOM      7  N   UNL     1      19.581   5.057  19.853  0.00  0.00    -0.240 NA
ATOM     21  C   UNL     1      17.674   6.367  20.553  0.00  0.00    +0.041 A 
ATOM     23  C   UNL     1      18.450   6.990  21.524  0.00  0.00    +0.016 A 
ATOM     24  C   UNL     1      18.281   5.414  19.750  0.00  0.00    +0.124 A 
ATOM     25  C   UNL     1      19.791   6.648  21.659  0.00  0.00    +0.044 A 
ATOM     26  C   UNL     1      20.304   5.684  20.806  0.00  0.00    +0.119 A 
BRANCH  26   8
ATOM      8  N   UNL     1      21.673   5.347  20.956  0.00  0.00    -0.327 N 
ATOM     30  H   UNL     1      22.340   5.961  20.505  0.00  0.00    +0.148 HD
BRANCH   8  27
ATOM     27  C   UNL     1      22.109   4.208  21.696  0.00  0.00    +0.131 C 
BRANCH  27  28
ATOM     28  C   UNL     1      23.333   3.597  21.035  0.00  0.00    +0.178 C 
BRANCH  28   3
ATOM      3  O   UNL     1      23.827   4.485  20.040  0.00  0.00    -0.381 OA
ATOM     29  C   UNL     1      25.093   4.065  19.551  0.00  0.00    +0.194 C 
ENDBRANCH  28   3
ENDBRANCH  27  28
ENDBRANCH   8  27
ENDBRANCH  26   8
ENDBRANCH  18  21
BRANCH  14   9
ATOM      4  N   UNL     1      12.476   8.953  20.171  0.00  0.00    -0.287 NA
ATOM      9  C   UNL     1      13.192   8.248  21.252  0.00  0.00    +0.146 C 
ATOM     10  C   UNL     1      12.148   7.287  21.851  0.00  0.00    +0.030 C 
ATOM     11  C   UNL     1      10.864   7.568  21.083  0.00  0.00    +0.017 C 
ATOM     12  C   UNL     1      11.064   8.973  20.553  0.00  0.00    +0.085 C 
BRANCH   4  13
ATOM     13  C   UNL     1      12.994  10.292  19.917  0.00  0.00    +0.120 C 
BRANCH  13  15
ATOM      1 CL   UNL     1      15.548  10.711  14.486  0.00  0.00    -0.084 Cl
ATOM     15  C   UNL     1      13.632  10.398  18.558  0.00  0.00    -0.033 A 
ATOM     16  C   UNL     1      14.561  11.405  18.299  0.00  0.00    +0.006 A 
ATOM     17  C   UNL     1      13.295   9.487  17.556  0.00  0.00    +0.006 A 
ATOM     19  C   UNL     1      15.152  11.502  17.040  0.00  0.00    +0.020 A 
ATOM     20  C   UNL     1      13.887   9.584  16.297  0.00  0.00    +0.020 A 
ATOM     22  C   UNL     1      14.815  10.592  16.038  0.00  0.00    +0.041 A 
ENDBRANCH  13  15
ENDBRANCH   4  13
ENDBRANCH  14   9
TORSDOF 8
ENDMDL
MODEL 4
REMARK VINA RESULT:      -6.6     26.588     30.820
REMARK  Name = 45783472
REMARK  9 active torsions:
REMARK  status: ('A' for Active; 'I' for Inactive)
REMARK    1  A    between atoms: O_3  and  C_28
REMARK    2  A    between atoms: O_3  and  C_29
REMARK    3  A    between atoms: N_4  and  C_13
REMARK    4  A    between atoms: N_8  and  C_26
REMARK    5  A    between atoms: N_8  and  C_27
REMARK    6  A    between atoms: C_9  and  C_14
REMARK    7  A    between atoms: C_13  and  C_15
REMARK    8  A    between atoms: C_18  and  C_21
REMARK    9  A    between atoms: C_27  and  C_28
REMARK                            x       y       z     vdW  Elec       q    Type
REMARK                         _______ _______ _______ _____ _____    ______ ____
ROOT
ATOM      2  O   UNL     1      11.797   7.580  18.678  0.00  0.00    -0.336 OA
ATOM      5  N   UNL     1      13.520   8.963  19.041  0.00  0.00    -0.190 NA
ATOM      6  N   UNL     1      12.242   7.987  17.413  0.00  0.00    -0.056 NA
ATOM     14  C   UNL     1      12.602   8.200  19.579  0.00  0.00    +0.245 A 
ATOM     18  C   UNL     1      13.260   8.801  17.711  0.00  0.00    +0.204 A 
ENDROOT
BRANCH  18  21
ATOM      7  N   UNL     1      15.053   9.418  14.513  0.00  0.00    -0.240 NA
ATOM     21  C   UNL     1      14.035   9.467  16.706  0.00  0.00    +0.041 A 
ATOM     23  C   UNL     1      14.517  10.755  16.908  0.00  0.00    +0.016 A 
ATOM     24  C   UNL     1      14.329   8.847  15.502  0.00  0.00    +0.124 A 
ATOM     25  C   UNL     1      15.266  11.375  15.914  0.00  0.00    +0.044 A 
ATOM     26  C   UNL     1      15.504  10.671  14.746  0.00  0.00    +0.119 A 
BRANCH  26   8
ATOM      8  N   UNL     1      16.268  11.317  13.742  0.00  0.00    -0.327 N 
ATOM     30  H   UNL     1      15.951  11.198  12.787  0.00  0.00    +0.148 HD
BRANCH   8  27
ATOM     27  C   UNL     1      17.427  12.095  14.038  0.00  0.00    +0.131 C 
BRANCH  27  28
ATOM     28  C   UNL     1      18.060  12.593  12.750  0.00  0.00    +0.178 C 
BRANCH  28   3
ATOM      3  O   UNL     1      19.395  12.109  12.661  0.00  0.00    -0.381 OA
ATOM     29  C   UNL     1      19.839  11.577  13.901  0.00  0.00    +0.194 C 
ENDBRANCH  28   3
ENDBRANCH  27  28
ENDBRANCH   8  27
ENDBRANCH  26   8
ENDBRANCH  18  21
BRANCH  14   9
ATOM      4  N   UNL     1      11.599   9.024  21.703  0.00  0.00    -0.287 NA
ATOM      9  C   UNL     1      12.322   7.920  21.040  0.00  0.00    +0.146 C 
ATOM     10  C   UNL     1      11.425   6.685  21.246  0.00  0.00    +0.030 C 
ATOM     11  C   UNL     1      10.256   7.180  22.086  0.00  0.00    +0.017 C 
ATOM     12  C   UNL     1      10.804   8.417  22.769  0.00  0.00    +0.085 C 
BRANCH   4  13
ATOM     13  C   UNL     1      12.483  10.069  22.204  0.00  0.00    +0.120 C 
BRANCH  13  15
ATOM      1 CL   UNL     1       9.449  15.044  23.701  0.00  0.00    -0.084 Cl
ATOM     15  C   UNL     1      11.723  11.313  22.578  0.00  0.00    -0.033 A 
ATOM     16  C   UNL     1      11.363  11.539  23.907  0.00  0.00    +0.006 A 
ATOM     17  C   UNL     1      11.378  12.242  21.596  0.00  0.00    +0.006 A 
ATOM     19  C   UNL     1      10.660  12.691  24.253  0.00  0.00    +0.020 A 
ATOM     20  C   UNL     1      10.675  13.395  21.943  0.00  0.00    +0.020 A 
ATOM     22  C   UNL     1      10.314  13.620  23.271  0.00  0.00    +0.041 A 
ENDBRANCH  13  15
ENDBRANCH   4  13
ENDBRANCH  14   9
TORSDOF 8
ENDMDL
MODEL 5
REMARK VINA RESULT:      -6.4     28.542     32.727
REMARK  Name = 45783472
REMARK  9 active torsions:
REMARK  status: ('A' for Active; 'I' for Inactive)
REMARK    1  A    between atoms: O_3  and  C_28
REMARK    2  A    between atoms: O_3  and  C_29
REMARK    3  A    between atoms: N_4  and  C_13
REMARK    4  A    between atoms: N_8  and  C_26
REMARK    5  A    between atoms: N_8  and  C_27
REMARK    6  A    between atoms: C_9  and  C_14
REMARK    7  A    between atoms: C_13  and  C_15
REMARK    8  A    between atoms: C_18  and  C_21
REMARK    9  A    between atoms: C_27  and  C_28
REMARK                            x       y       z     vdW  Elec       q    Type
REMARK                         _______ _______ _______ _____ _____    ______ ____
ROOT
ATOM      2  O   UNL     1      12.814  10.493  19.198  0.00  0.00    -0.336 OA
ATOM      5  N   UNL     1      13.664   9.164  17.610  0.00  0.00    -0.190 NA
ATOM      6  N   UNL     1      13.542  11.328  18.340  0.00  0.00    -0.056 NA
ATOM     14  C   UNL     1      12.939   9.237  18.698  0.00  0.00    +0.245 A 
ATOM     18  C   UNL     1      14.012  10.470  17.429  0.00  0.00    +0.204 A 
ENDROOT
BRANCH  18  21
ATOM      7  N   UNL     1      15.418  10.674  13.993  0.00  0.00    -0.240 NA
ATOM     21  C   UNL     1      14.833  10.886  16.329  0.00  0.00    +0.041 A 
ATOM     23  C   UNL     1      15.809  11.862  16.492  0.00  0.00    +0.016 A 
ATOM     24  C   UNL     1      14.678  10.327  15.071  0.00  0.00    +0.124 A 
ATOM     25  C   UNL     1      16.590  12.244  15.406  0.00  0.00    +0.044 A 
ATOM     26  C   UNL     1      16.357  11.626  14.189  0.00  0.00    +0.119 A 
BRANCH  26   8
ATOM      8  N   UNL     1      17.160  12.027  13.093  0.00  0.00    -0.327 N 
ATOM     30  H   UNL     1      16.972  11.574  12.207  0.00  0.00    +0.148 HD
BRANCH   8  27
ATOM     27  C   UNL     1      18.186  13.011  13.209  0.00  0.00    +0.131 C 
BRANCH  27  28
ATOM     28  C   UNL     1      19.424  12.563  12.452  0.00  0.00    +0.178 C 
BRANCH  28   3
ATOM      3  O   UNL     1      19.984  11.423  13.093  0.00  0.00    -0.381 OA
ATOM     29  C   UNL     1      20.430  11.731  14.406  0.00  0.00    +0.194 C 
ENDBRANCH  28   3
ENDBRANCH  27  28
ENDBRANCH   8  27
ENDBRANCH  26   8
ENDBRANCH  18  21
BRANCH  14   9
ATOM      4  N   UNL     1      13.037   7.612  20.580  0.00  0.00    -0.287 NA
ATOM      9  C   UNL     1      12.232   8.134  19.457  0.00  0.00    +0.146 C 
ATOM     10  C   UNL     1      10.917   8.607  20.104  0.00  0.00    +0.030 C 
ATOM     11  C   UNL     1      11.051   8.253  21.579  0.00  0.00    +0.017 C 
ATOM     12  C   UNL     1      12.086   7.147  21.589  0.00  0.00    +0.085 C 
BRANCH   4  13
ATOM     13  C   UNL     1      13.969   6.566  20.181  0.00  0.00    +0.120 C 
BRANCH  13  15
ATOM      1 CL   UNL     1      19.682   8.144  21.214  0.00  0.00    -0.084 Cl
ATOM     15  C   UNL     1      15.399   6.960  20.440  0.00  0.00    -0.033 A 
ATOM     16  C   UNL     1      16.440   6.213  19.890  0.00  0.00    +0.006 A 
ATOM     17  C   UNL     1      15.683   8.074  21.231  0.00  0.00    +0.006 A 
ATOM     19  C   UNL     1      17.764   6.579  20.130  0.00  0.00    +0.020 A 
ATOM     20  C   UNL     1      17.007   8.440  21.471  0.00  0.00    +0.020 A 
ATOM     22  C   UNL     1      18.048   7.692  20.921  0.00  0.00    +0.041 A 
ENDBRANCH  13  15
ENDBRANCH   4  13
ENDBRANCH  14   9
TORSDOF 8
ENDMDL
MODEL 6
REMARK VINA RESULT:      -6.4      3.608      5.761
REMARK  Name = 45783472
REMARK  9 active torsions:
REMARK  status: ('A' for Active; 'I' for Inactive)
REMARK    1  A    between atoms: O_3  and  C_28
REMARK    2  A    between atoms: O_3  and  C_29
REMARK    3  A    between atoms: N_4  and  C_13
REMARK    4  A    between atoms: N_8  and  C_26
REMARK    5  A    between atoms: N_8  and  C_27
REMARK    6  A    between atoms: C_9  and  C_14
REMARK    7  A    between atoms: C_13  and  C_15
REMARK    8  A    between atoms: C_18  and  C_21
REMARK    9  A    between atoms: C_27  and  C_28
REMARK                            x       y       z     vdW  Elec       q    Type
REMARK                         _______ _______ _______ _____ _____    ______ ____
ROOT
ATOM      2  O   UNL     1     -11.684   6.836  20.881  0.00  0.00    -0.336 OA
ATOM      5  N   UNL     1     -13.888   7.227  20.885  0.00  0.00    -0.190 NA
ATOM      6  N   UNL     1     -12.258   5.817  21.651  0.00  0.00    -0.056 NA
ATOM     14  C   UNL     1     -12.712   7.622  20.469  0.00  0.00    +0.245 A 
ATOM     18  C   UNL     1     -13.560   6.116  21.606  0.00  0.00    +0.204 A 
ENDROOT
BRANCH  18  21
ATOM      7  N   UNL     1     -16.751   4.314  22.236  0.00  0.00    -0.240 NA
ATOM     21  C   UNL     1     -14.556   5.328  22.271  0.00  0.00    +0.041 A 
ATOM     23  C   UNL     1     -14.335   4.821  23.547  0.00  0.00    +0.016 A 
ATOM     24  C   UNL     1     -15.771   5.050  21.664  0.00  0.00    +0.124 A 
ATOM     25  C   UNL     1     -15.321   4.060  24.167  0.00  0.00    +0.044 A 
ATOM     26  C   UNL     1     -16.500   3.838  23.475  0.00  0.00    +0.119 A 
BRANCH  26   8
ATOM      8  N   UNL     1     -17.493   3.060  24.120  0.00  0.00    -0.327 N 
ATOM     30  H   UNL     1     -17.950   3.484  24.919  0.00  0.00    +0.148 HD
BRANCH   8  27
ATOM     27  C   UNL     1     -17.846   1.748  23.687  0.00  0.00    +0.131 C 
BRANCH  27  28
ATOM     28  C   UNL     1     -17.654   0.756  24.822  0.00  0.00    +0.178 C 
BRANCH  28   3
ATOM      3  O   UNL     1     -17.307  -0.515  24.287  0.00  0.00    -0.381 OA
ATOM     29  C   UNL     1     -18.211  -0.914  23.266  0.00  0.00    +0.194 C 
ENDBRANCH  28   3
ENDBRANCH  27  28
ENDBRANCH   8  27
ENDBRANCH  26   8
ENDBRANCH  18  21
BRANCH  14   9
ATOM      4  N   UNL     1     -11.802   9.937  20.392  0.00  0.00    -0.287 NA
ATOM      9  C   UNL     1     -12.348   8.813  19.606  0.00  0.00    +0.146 C 
ATOM     10  C   UNL     1     -11.252   8.486  18.575  0.00  0.00    +0.030 C 
ATOM     11  C   UNL     1     -10.159   9.518  18.818  0.00  0.00    +0.017 C 
ATOM     12  C   UNL     1     -10.887  10.655  19.505  0.00  0.00    +0.085 C 
BRANCH   4  13
ATOM     13  C   UNL     1     -12.833  10.810  20.939  0.00  0.00    +0.120 C 
BRANCH  13  15
ATOM      1 CL   UNL     1     -13.159  10.404  26.932  0.00  0.00    -0.084 Cl
ATOM     15  C   UNL     1     -12.915  10.709  22.438  0.00  0.00    -0.033 A 
ATOM     16  C   UNL     1     -13.976  10.030  23.035  0.00  0.00    +0.006 A 
ATOM     17  C   UNL     1     -11.929  11.296  23.232  0.00  0.00    +0.006 A 
ATOM     19  C   UNL     1     -14.052   9.936  24.424  0.00  0.00    +0.020 A 
ATOM     20  C   UNL     1     -12.004  11.202  24.621  0.00  0.00    +0.020 A 
ATOM     22  C   UNL     1     -13.066  10.523  25.218  0.00  0.00    +0.041 A 
ENDBRANCH  13  15
ENDBRANCH   4  13
ENDBRANCH  14   9
TORSDOF 8
ENDMDL
MODEL 7
REMARK VINA RESULT:      -6.4      6.989      8.650
REMARK  Name = 45783472
REMARK  9 active torsions:
REMARK  status: ('A' for Active; 'I' for Inactive)
REMARK    1  A    between atoms: O_3  and  C_28
REMARK    2  A    between atoms: O_3  and  C_29
REMARK    3  A    between atoms: N_4  and  C_13
REMARK    4  A    between atoms: N_8  and  C_26
REMARK    5  A    between atoms: N_8  and  C_27
REMARK    6  A    between atoms: C_9  and  C_14
REMARK    7  A    between atoms: C_13  and  C_15
REMARK    8  A    between atoms: C_18  and  C_21
REMARK    9  A    between atoms: C_27  and  C_28
REMARK                            x       y       z     vdW  Elec       q    Type
REMARK                         _______ _______ _______ _____ _____    ______ ____
ROOT
ATOM      2  O   UNL     1     -12.104  11.822  19.150  0.00  0.00    -0.336 OA
ATOM      5  N   UNL     1     -11.249  10.321  20.574  0.00  0.00    -0.190 NA
ATOM      6  N   UNL     1     -12.790  11.998  20.359  0.00  0.00    -0.056 NA
ATOM     14  C   UNL     1     -11.217  10.816  19.363  0.00  0.00    +0.245 A 
ATOM     18  C   UNL     1     -12.229  11.077  21.148  0.00  0.00    +0.204 A 
ENDROOT
BRANCH  18  21
ATOM      7  N   UNL     1     -14.015   9.731  24.119  0.00  0.00    -0.240 NA
ATOM     21  C   UNL     1     -12.625  10.887  22.513  0.00  0.00    +0.041 A 
ATOM     23  C   UNL     1     -12.047  11.629  23.537  0.00  0.00    +0.016 A 
ATOM     24  C   UNL     1     -13.597   9.959  22.853  0.00  0.00    +0.124 A 
ATOM     25  C   UNL     1     -12.452  11.422  24.852  0.00  0.00    +0.044 A 
ATOM     26  C   UNL     1     -13.431  10.470  25.087  0.00  0.00    +0.119 A 
BRANCH  26   8
ATOM      8  N   UNL     1     -13.832  10.271  26.432  0.00  0.00    -0.327 N 
ATOM     30  H   UNL     1     -14.502   9.529  26.597  0.00  0.00    +0.148 HD
BRANCH   8  27
ATOM     27  C   UNL     1     -13.334  11.062  27.510  0.00  0.00    +0.131 C 
BRANCH  27  28
ATOM     28  C   UNL     1     -12.269  10.292  28.271  0.00  0.00    +0.178 C 
BRANCH  28   3
ATOM      3  O   UNL     1     -10.987  10.825  27.961  0.00  0.00    -0.381 OA
ATOM     29  C   UNL     1     -10.231   9.927  27.160  0.00  0.00    +0.194 C 
ENDBRANCH  28   3
ENDBRANCH  27  28
ENDBRANCH   8  27
ENDBRANCH  26   8
ENDBRANCH  18  21
BRANCH  14   9
ATOM      4  N   UNL     1     -11.010   9.491  17.267  0.00  0.00    -0.287 NA
ATOM      9  C   UNL     1     -10.341  10.429  18.190  0.00  0.00    +0.146 C 
ATOM     10  C   UNL     1      -9.956  11.634  17.313  0.00  0.00    +0.030 C 
ATOM     11  C   UNL     1     -10.393  11.255  15.904  0.00  0.00    +0.017 C 
ATOM     12  C   UNL     1     -10.445   9.742  15.941  0.00  0.00    +0.085 C 
BRANCH   4  13
ATOM     13  C   UNL     1     -10.872   8.096  17.666  0.00  0.00    +0.120 C 
BRANCH  13  15
ATOM      1 CL   UNL     1     -14.890   6.561  21.873  0.00  0.00    -0.084 Cl
ATOM     15  C   UNL     1     -11.877   7.713  18.719  0.00  0.00    -0.033 A 
ATOM     16  C   UNL     1     -13.230   7.990  18.526  0.00  0.00    +0.006 A 
ATOM     17  C   UNL     1     -11.456   7.080  19.889  0.00  0.00    +0.006 A 
ATOM     19  C   UNL     1     -14.161   7.635  19.502  0.00  0.00    +0.020 A 
ATOM     20  C   UNL     1     -12.387   6.724  20.864  0.00  0.00    +0.020 A 
ATOM     22  C   UNL     1     -13.740   7.002  20.672  0.00  0.00    +0.041 A 
ENDBRANCH  13  15
ENDBRANCH   4  13
ENDBRANCH  14   9
TORSDOF 8
ENDMDL
MODEL 8
REMARK VINA RESULT:      -6.3     33.086     36.414
REMARK  Name = 45783472
REMARK  9 active torsions:
REMARK  status: ('A' for Active; 'I' for Inactive)
REMARK    1  A    between atoms: O_3  and  C_28
REMARK    2  A    between atoms: O_3  and  C_29
REMARK    3  A    between atoms: N_4  and  C_13
REMARK    4  A    between atoms: N_8  and  C_26
REMARK    5  A    between atoms: N_8  and  C_27
REMARK    6  A    between atoms: C_9  and  C_14
REMARK    7  A    between atoms: C_13  and  C_15
REMARK    8  A    between atoms: C_18  and  C_21
REMARK    9  A    between atoms: C_27  and  C_28
REMARK                            x       y       z     vdW  Elec       q    Type
REMARK                         _______ _______ _______ _____ _____    ______ ____
ROOT
ATOM      2  O   UNL     1      20.945   5.878  23.062  0.00  0.00    -0.336 OA
ATOM      5  N   UNL     1      20.624   5.546  20.872  0.00  0.00    -0.190 NA
ATOM      6  N   UNL     1      19.644   6.320  22.788  0.00  0.00    -0.056 NA
ATOM     14  C   UNL     1      21.451   5.440  21.881  0.00  0.00    +0.245 A 
ATOM     18  C   UNL     1      19.529   6.090  21.476  0.00  0.00    +0.204 A 
ENDROOT
BRANCH  18  21
ATOM      7  N   UNL     1      16.835   5.857  18.924  0.00  0.00    -0.240 NA
ATOM     21  C   UNL     1      18.336   6.395  20.742  0.00  0.00    +0.041 A 
ATOM     23  C   UNL     1      17.535   7.476  21.093  0.00  0.00    +0.016 A 
ATOM     24  C   UNL     1      17.947   5.624  19.658  0.00  0.00    +0.124 A 
ATOM     25  C   UNL     1      16.383   7.747  20.361  0.00  0.00    +0.044 A 
ATOM     26  C   UNL     1      16.081   6.915  19.295  0.00  0.00    +0.119 A 
BRANCH  26   8
ATOM      8  N   UNL     1      14.904   7.204  18.560  0.00  0.00    -0.327 N 
ATOM     30  H   UNL     1      15.022   7.369  17.567  0.00  0.00    +0.148 HD
BRANCH   8  27
ATOM     27  C   UNL     1      13.614   7.268  19.165  0.00  0.00    +0.131 C 
BRANCH  27  28
ATOM     28  C   UNL     1      12.556   7.532  18.107  0.00  0.00    +0.178 C 
BRANCH  28   3
ATOM      3  O   UNL     1      11.337   7.900  18.739  0.00  0.00    -0.381 OA
ATOM     29  C   UNL     1      11.566   8.727  19.871  0.00  0.00    +0.194 C 
ENDBRANCH  28   3
ENDBRANCH  27  28
ENDBRANCH   8  27
ENDBRANCH  26   8
ENDBRANCH  18  21
BRANCH  14   9
ATOM      4  N   UNL     1      23.179   4.060  20.739  0.00  0.00    -0.287 NA
ATOM      9  C   UNL     1      22.867   4.903  21.910  0.00  0.00    +0.146 C 
ATOM     10  C   UNL     1      23.926   6.021  21.882  0.00  0.00    +0.030 C 
ATOM     11  C   UNL     1      24.824   5.687  20.699  0.00  0.00    +0.017 C 
ATOM     12  C   UNL     1      24.616   4.199  20.500  0.00  0.00    +0.085 C 
BRANCH   4  13
ATOM     13  C   UNL     1      22.784   2.668  20.912  0.00  0.00    +0.120 C 
BRANCH  13  15
ATOM      1 CL   UNL     1      26.494  -0.273  24.623  0.00  0.00    -0.084 Cl
ATOM     15  C   UNL     1      23.713   1.933  21.840  0.00  0.00    -0.033 A 
ATOM     16  C   UNL     1      23.576   2.075  23.221  0.00  0.00    +0.006 A 
ATOM     17  C   UNL     1      24.711   1.109  21.320  0.00  0.00    +0.006 A 
ATOM     19  C   UNL     1      24.437   1.393  24.080  0.00  0.00    +0.020 A 
ATOM     20  C   UNL     1      25.571   0.427  22.180  0.00  0.00    +0.020 A 
ATOM     22  C   UNL     1      25.435   0.569  23.560  0.00  0.00    +0.041 A 
ENDBRANCH  13  15
ENDBRANCH   4  13
ENDBRANCH  14   9
TORSDOF 8
ENDMDL
MODEL 9
REMARK VINA RESULT:      -6.3     18.027     19.790
REMARK  Name = 45783472
REMARK  9 active torsions:
REMARK  status: ('A' for Active; 'I' for Inactive)
REMARK    1  A    between atoms: O_3  and  C_28
REMARK    2  A    between atoms: O_3  and  C_29
REMARK    3  A    between atoms: N_4  and  C_13
REMARK    4  A    between atoms: N_8  and  C_26
REMARK    5  A    between atoms: N_8  and  C_27
REMARK    6  A    between atoms: C_9  and  C_14
REMARK    7  A    between atoms: C_13  and  C_15
REMARK    8  A    between atoms: C_18  and  C_21
REMARK    9  A    between atoms: C_27  and  C_28
REMARK                            x       y       z     vdW  Elec       q    Type
REMARK                         _______ _______ _______ _____ _____    ______ ____
ROOT
ATOM      2  O   UNL     1      -5.219 -12.206  16.474  0.00  0.00    -0.336 OA
ATOM      5  N   UNL     1      -5.451 -10.164  15.586  0.00  0.00    -0.190 NA
ATOM      6  N   UNL     1      -6.528 -11.801  16.767  0.00  0.00    -0.056 NA
ATOM     14  C   UNL     1      -4.655 -11.186  15.779  0.00  0.00    +0.245 A 
ATOM     18  C   UNL     1      -6.588 -10.587  16.210  0.00  0.00    +0.204 A 
ENDROOT
BRANCH  18  21
ATOM      7  N   UNL     1      -9.660  -8.805  15.109  0.00  0.00    -0.240 NA
ATOM     21  C   UNL     1      -7.767  -9.773  16.260  0.00  0.00    +0.041 A 
ATOM     23  C   UNL     1      -8.171  -9.169  17.446  0.00  0.00    +0.016 A 
ATOM     24  C   UNL     1      -8.539  -9.560  15.129  0.00  0.00    +0.124 A 
ATOM     25  C   UNL     1      -9.319  -8.385  17.464  0.00  0.00    +0.044 A 
ATOM     26  C   UNL     1     -10.022  -8.235  16.279  0.00  0.00    +0.119 A 
BRANCH  26   8
ATOM      8  N   UNL     1     -11.190  -7.433  16.314  0.00  0.00    -0.327 N 
ATOM     30  H   UNL     1     -12.046  -7.896  16.595  0.00  0.00    +0.148 HD
BRANCH   8  27
ATOM     27  C   UNL     1     -11.183  -6.048  15.974  0.00  0.00    +0.131 C 
BRANCH  27  28
ATOM     28  C   UNL     1     -12.036  -5.812  14.739  0.00  0.00    +0.178 C 
BRANCH  28   3
ATOM      3  O   UNL     1     -13.409  -5.977  15.073  0.00  0.00    -0.381 OA
ATOM     29  C   UNL     1     -14.098  -6.727  14.082  0.00  0.00    +0.194 C 
ENDBRANCH  28   3
ENDBRANCH  27  28
ENDBRANCH   8  27
ENDBRANCH  26   8
ENDBRANCH  18  21
BRANCH  14   9
ATOM      4  N   UNL     1      -2.885 -10.603  14.128  0.00  0.00    -0.287 NA
ATOM      9  C   UNL     1      -3.219 -11.381  15.338  0.00  0.00    +0.146 C 
ATOM     10  C   UNL     1      -2.205 -10.912  16.397  0.00  0.00    +0.030 C 
ATOM     11  C   UNL     1      -1.305  -9.920  15.673  0.00  0.00    +0.017 C 
ATOM     12  C   UNL     1      -1.458 -10.297  14.214  0.00  0.00    +0.085 C 
BRANCH   4  13
ATOM     13  C   UNL     1      -3.225 -11.294  12.890  0.00  0.00    +0.120 C 
BRANCH  13  15
ATOM      1 CL   UNL     1      -6.109  -7.685   9.036  0.00  0.00    -0.084 Cl
ATOM     15  C   UNL     1      -3.947 -10.392  11.925  0.00  0.00    -0.033 A 
ATOM     16  C   UNL     1      -5.250  -9.978  12.198  0.00  0.00    +0.006 A 
ATOM     17  C   UNL     1      -3.312  -9.969  10.757  0.00  0.00    +0.006 A 
ATOM     19  C   UNL     1      -5.919  -9.142  11.305  0.00  0.00    +0.020 A 
ATOM     20  C   UNL     1      -3.980  -9.132   9.864  0.00  0.00    +0.020 A 
ATOM     22  C   UNL     1      -5.284  -8.719  10.136  0.00  0.00    +0.041 A 
ENDBRANCH  13  15
ENDBRANCH   4  13
ENDBRANCH  14   9
TORSDOF 8
ENDMDL
MODEL 10
REMARK VINA RESULT:      -6.3     33.452     36.688
REMARK  Name = 45783472
REMARK  9 active torsions:
REMARK  status: ('A' for Active; 'I' for Inactive)
REMARK    1  A    between atoms: O_3  and  C_28
REMARK    2  A    between atoms: O_3  and  C_29
REMARK    3  A    between atoms: N_4  and  C_13
REMARK    4  A    between atoms: N_8  and  C_26
REMARK    5  A    between atoms: N_8  and  C_27
REMARK    6  A    between atoms: C_9  and  C_14
REMARK    7  A    between atoms: C_13  and  C_15
REMARK    8  A    between atoms: C_18  and  C_21
REMARK    9  A    between atoms: C_27  and  C_28
REMARK                            x       y       z     vdW  Elec       q    Type
REMARK                         _______ _______ _______ _____ _____    ______ ____
ROOT
ATOM      2  O   UNL     1      22.481   5.940  22.512  0.00  0.00    -0.336 OA
ATOM      5  N   UNL     1      21.670   5.054  20.623  0.00  0.00    -0.190 NA
ATOM      6  N   UNL     1      21.155   6.381  22.413  0.00  0.00    -0.056 NA
ATOM     14  C   UNL     1      22.703   5.166  21.419  0.00  0.00    +0.245 A 
ATOM     18  C   UNL     1      20.745   5.816  21.273  0.00  0.00    +0.204 A 
ENDROOT
BRANCH  18  21
ATOM      7  N   UNL     1      17.753   5.426  19.100  0.00  0.00    -0.240 NA
ATOM     21  C   UNL     1      19.419   5.994  20.758  0.00  0.00    +0.041 A 
ATOM     23  C   UNL     1      18.524   6.867  21.367  0.00  0.00    +0.016 A 
ATOM     24  C   UNL     1      18.989   5.303  19.636  0.00  0.00    +0.124 A 
ATOM     25  C   UNL     1      17.245   7.020  20.843  0.00  0.00    +0.044 A 
ATOM     26  C   UNL     1      16.911   6.283  19.719  0.00  0.00    +0.119 A 
BRANCH  26   8
ATOM      8  N   UNL     1      15.604   6.449  19.198  0.00  0.00    -0.327 N 
ATOM     30  H   UNL     1      15.504   6.364  18.193  0.00  0.00    +0.148 HD
BRANCH   8  27
ATOM     27  C   UNL     1      14.475   6.724  20.025  0.00  0.00    +0.131 C 
BRANCH  27  28
ATOM     28  C   UNL     1      13.323   7.238  19.178  0.00  0.00    +0.178 C 
BRANCH  28   3
ATOM      3  O   UNL     1      12.102   6.690  19.659  0.00  0.00    -0.381 OA
ATOM     29  C   UNL     1      12.107   6.569  21.074  0.00  0.00    +0.194 C 
ENDBRANCH  28   3
ENDBRANCH  27  28
ENDBRANCH   8  27
ENDBRANCH  26   8
ENDBRANCH  18  21
BRANCH  14   9
ATOM      4  N   UNL     1      24.171   3.209  21.882  0.00  0.00    -0.287 NA
ATOM      9  C   UNL     1      24.085   4.560  21.290  0.00  0.00    +0.146 C 
ATOM     10  C   UNL     1      24.517   4.373  19.824  0.00  0.00    +0.030 C 
ATOM     11  C   UNL     1      24.885   2.900  19.704  0.00  0.00    +0.017 C 
ATOM     12  C   UNL     1      25.198   2.492  21.129  0.00  0.00    +0.085 C 
BRANCH   4  13
ATOM     13  C   UNL     1      24.450   3.226  23.313  0.00  0.00    +0.120 C 
BRANCH  13  15
ATOM      1 CL   UNL     1      22.112  -1.558  26.112  0.00  0.00    -0.084 Cl
ATOM     15  C   UNL     1      23.865   2.029  24.012  0.00  0.00    -0.033 A 
ATOM     16  C   UNL     1      24.645   0.893  24.223  0.00  0.00    +0.006 A 
ATOM     17  C   UNL     1      22.541   2.055  24.451  0.00  0.00    +0.006 A 
ATOM     19  C   UNL     1      24.103  -0.216  24.871  0.00  0.00    +0.020 A 
ATOM     20  C   UNL     1      21.998   0.947  25.100  0.00  0.00    +0.020 A 
ATOM     22  C   UNL     1      22.779  -0.190  25.310  0.00  0.00    +0.041 A 
ENDBRANCH  13  15
ENDBRANCH   4  13
ENDBRANCH  14   9
TORSDOF 8
ENDMDL
