MODEL 1
REMARK VINA RESULT:      -8.0      0.000      0.000
REMARK  Name = 11887647
REMARK  5 active torsions:
REMARK  status: ('A' for Active; 'I' for Inactive)
REMARK    1  A    between atoms: S_2  and  N_6
REMARK    2  A    between atoms: S_2  and  C_19
REMARK    3  A    between atoms: C_17  and  C_20
REMARK    4  A    between atoms: C_23  and  C_29
REMARK    5  A    between atoms: C_27  and  C_32
REMARK                            x       y       z     vdW  Elec       q    Type
REMARK                         _______ _______ _______ _____ _____    ______ ____
ROOT
ATOM      5  O   UNL     1      10.704   9.991  22.013  0.00  0.00    -0.267 OA
ATOM      6  N   UNL     1      14.194   7.747  19.251  0.00  0.00    -0.176 NA
ATOM      7  N   UNL     1      12.024   9.884  20.094  0.00  0.00    -0.311 N 
ATOM      8  C   UNL     1      11.853   7.963  18.408  0.00  0.00    +0.025 C 
ATOM      9  C   UNL     1      13.458   9.782  18.026  0.00  0.00    +0.052 C 
ATOM     10  C   UNL     1      12.309   9.001  17.392  0.00  0.00    +0.017 C 
ATOM     11  C   UNL     1      13.003   7.001  18.753  0.00  0.00    +0.114 C 
ATOM     12  C   UNL     1      14.631   8.827  18.317  0.00  0.00    +0.119 C 
ATOM     13  C   UNL     1      11.303   8.685  19.645  0.00  0.00    +0.130 C 
ATOM     14  C   UNL     1      13.010  10.473  19.301  0.00  0.00    +0.026 A 
ATOM     15  C   UNL     1      13.573  11.632  19.677  0.00  0.00    +0.022 A 
ATOM     16  C   UNL     1      11.595  10.462  21.305  0.00  0.00    +0.259 A 
ATOM     17  C   UNL     1      12.270  11.742  21.718  0.00  0.00    +0.047 A 
ATOM     18  C   UNL     1      13.199  12.269  20.907  0.00  0.00    +0.015 A 
ENDROOT
BRANCH  17  20
ATOM     20  C   UNL     1      11.933  12.408  22.989  0.00  0.00    -0.010 A 
ATOM     23  C   UNL     1      11.024  13.467  23.040  0.00  0.00    -0.040 A 
ATOM     24  C   UNL     1      12.545  11.962  24.163  0.00  0.00    +0.009 A 
ATOM     27  C   UNL     1      10.728  14.077  24.260  0.00  0.00    -0.047 A 
ATOM     29  C   UNL     1      10.361  13.957  21.790  0.00  0.00    +0.044 C 
ATOM     30  C   UNL     1      12.248  12.572  25.382  0.00  0.00    +0.001 A 
ATOM     31  C   UNL     1      11.339  13.630  25.430  0.00  0.00    +0.003 A 
ATOM     32  C   UNL     1       9.759  15.212  24.339  0.00  0.00    +0.044 C 
ENDBRANCH  17  20
BRANCH   6   2
ATOM      2  S   UNL     1      15.448   6.786  19.908  0.00  0.00    +0.061 S 
ATOM      3  O   UNL     1      16.164   6.155  18.819  0.00  0.00    -0.153 OA
ATOM      4  O   UNL     1      14.927   6.025  21.026  0.00  0.00    -0.153 OA
BRANCH   2  19
ATOM      1 CL   UNL     1      19.609  10.653  22.529  0.00  0.00    -0.084 Cl
ATOM     19  C   UNL     1      16.638   7.892  20.658  0.00  0.00    +0.106 A 
ATOM     21  C   UNL     1      16.207   9.127  21.078  0.00  0.00    +0.030 A 
ATOM     22  C   UNL     1      17.937   7.465  20.784  0.00  0.00    +0.030 A 
ATOM     25  C   UNL     1      17.136   9.989  21.663  0.00  0.00    +0.022 A 
ATOM     26  C   UNL     1      18.865   8.328  21.369  0.00  0.00    +0.022 A 
ATOM     28  C   UNL     1      18.464   9.590  21.808  0.00  0.00    +0.041 A 
ENDBRANCH   2  19
ENDBRANCH   6   2
TORSDOF 3
ENDMDL
MODEL 2
REMARK VINA RESULT:      -7.9      3.149      4.617
REMARK  Name = 11887647
REMARK  5 active torsions:
REMARK  status: ('A' for Active; 'I' for Inactive)
REMARK    1  A    between atoms: S_2  and  N_6
REMARK    2  A    between atoms: S_2  and  C_19
REMARK    3  A    between atoms: C_17  and  C_20
REMARK    4  A    between atoms: C_23  and  C_29
REMARK    5  A    between atoms: C_27  and  C_32
REMARK                            x       y       z     vdW  Elec       q    Type
REMARK                         _______ _______ _______ _____ _____    ______ ____
ROOT
ATOM      5  O   UNL     1      15.141   9.963  22.693  0.00  0.00    -0.267 OA
ATOM      6  N   UNL     1      12.279   8.132  19.045  0.00  0.00    -0.176 NA
ATOM      7  N   UNL     1      13.072   9.243  21.895  0.00  0.00    -0.311 N 
ATOM      8  C   UNL     1      12.646   6.831  21.145  0.00  0.00    +0.025 C 
ATOM      9  C   UNL     1      10.831   8.482  21.035  0.00  0.00    +0.052 C 
ATOM     10  C   UNL     1      11.208   7.103  21.569  0.00  0.00    +0.017 C 
ATOM     11  C   UNL     1      12.768   6.843  19.612  0.00  0.00    +0.114 C 
ATOM     12  C   UNL     1      10.898   8.475  19.497  0.00  0.00    +0.119 C 
ATOM     13  C   UNL     1      13.564   7.862  21.814  0.00  0.00    +0.130 C 
ATOM     14  C   UNL     1      11.743   9.555  21.599  0.00  0.00    +0.026 A 
ATOM     15  C   UNL     1      11.285  10.802  21.792  0.00  0.00    +0.022 A 
ATOM     16  C   UNL     1      13.973  10.208  22.387  0.00  0.00    +0.259 A 
ATOM     17  C   UNL     1      13.441  11.605  22.558  0.00  0.00    +0.047 A 
ATOM     18  C   UNL     1      12.151  11.840  22.272  0.00  0.00    +0.015 A 
ENDROOT
BRANCH  17  20
ATOM     20  C   UNL     1      14.308  12.702  23.021  0.00  0.00    -0.010 A 
ATOM     23  C   UNL     1      14.468  12.985  24.379  0.00  0.00    -0.040 A 
ATOM     24  C   UNL     1      14.980  13.473  22.069  0.00  0.00    +0.009 A 
ATOM     27  C   UNL     1      15.297  14.032  24.784  0.00  0.00    -0.047 A 
ATOM     29  C   UNL     1      13.754  12.168  25.411  0.00  0.00    +0.044 C 
ATOM     30  C   UNL     1      15.809  14.519  22.474  0.00  0.00    +0.001 A 
ATOM     31  C   UNL     1      15.967  14.799  23.832  0.00  0.00    +0.003 A 
ATOM     32  C   UNL     1      15.483  14.353  26.231  0.00  0.00    +0.044 C 
ENDBRANCH  17  20
BRANCH   6   2
ATOM      2  S   UNL     1      12.596   8.376  17.381  0.00  0.00    +0.061 S 
ATOM      3  O   UNL     1      11.332   8.440  16.677  0.00  0.00    -0.153 OA
ATOM      4  O   UNL     1      13.661   7.488  16.965  0.00  0.00    -0.153 OA
BRANCH   2  19
ATOM      1 CL   UNL     1      15.065  14.090  16.755  0.00  0.00    -0.084 Cl
ATOM     19  C   UNL     1      13.302  10.011  17.202  0.00  0.00    +0.106 A 
ATOM     21  C   UNL     1      13.733  10.403  15.958  0.00  0.00    +0.030 A 
ATOM     22  C   UNL     1      13.388  10.811  18.315  0.00  0.00    +0.030 A 
ATOM     25  C   UNL     1      14.283  11.678  15.819  0.00  0.00    +0.022 A 
ATOM     26  C   UNL     1      13.939  12.085  18.175  0.00  0.00    +0.022 A 
ATOM     28  C   UNL     1      14.386  12.518  16.928  0.00  0.00    +0.041 A 
ENDBRANCH   2  19
ENDBRANCH   6   2
TORSDOF 3
ENDMDL
MODEL 3
REMARK VINA RESULT:      -7.7     15.754     19.614
REMARK  Name = 11887647
REMARK  5 active torsions:
REMARK  status: ('A' for Active; 'I' for Inactive)
REMARK    1  A    between atoms: S_2  and  N_6
REMARK    2  A    between atoms: S_2  and  C_19
REMARK    3  A    between atoms: C_17  and  C_20
REMARK    4  A    between atoms: C_23  and  C_29
REMARK    5  A    between atoms: C_27  and  C_32
REMARK                            x       y       z     vdW  Elec       q    Type
REMARK                         _______ _______ _______ _____ _____    ______ ____
ROOT
ATOM      5  O   UNL     1      10.981   6.835   0.938  0.00  0.00    -0.267 OA
ATOM      6  N   UNL     1      11.235   7.100   5.909  0.00  0.00    -0.176 NA
ATOM      7  N   UNL     1      10.292   6.134   3.053  0.00  0.00    -0.311 N 
ATOM      8  C   UNL     1       9.127   7.699   4.712  0.00  0.00    +0.025 C 
ATOM      9  C   UNL     1       9.553   5.362   5.334  0.00  0.00    +0.052 C 
ATOM     10  C   UNL     1       8.466   6.428   5.230  0.00  0.00    +0.017 C 
ATOM     11  C   UNL     1      10.224   8.172   5.681  0.00  0.00    +0.114 C 
ATOM     12  C   UNL     1      10.622   5.811   6.348  0.00  0.00    +0.119 C 
ATOM     13  C   UNL     1       9.665   7.440   3.300  0.00  0.00    +0.130 C 
ATOM     14  C   UNL     1      10.187   5.096   3.981  0.00  0.00    +0.026 A 
ATOM     15  C   UNL     1      10.666   3.878   3.685  0.00  0.00    +0.022 A 
ATOM     16  C   UNL     1      10.902   5.954   1.796  0.00  0.00    +0.259 A 
ATOM     17  C   UNL     1      11.462   4.587   1.507  0.00  0.00    +0.047 A 
ATOM     18  C   UNL     1      11.318   3.625   2.431  0.00  0.00    +0.015 A 
ENDROOT
BRANCH  17  20
ATOM     20  C   UNL     1      12.163   4.300   0.244  0.00  0.00    -0.010 A 
ATOM     23  C   UNL     1      13.549   4.426   0.131  0.00  0.00    -0.040 A 
ATOM     24  C   UNL     1      11.412   3.894  -0.863  0.00  0.00    +0.009 A 
ATOM     27  C   UNL     1      14.182   4.146  -1.081  0.00  0.00    -0.047 A 
ATOM     29  C   UNL     1      14.368   4.860   1.307  0.00  0.00    +0.044 C 
ATOM     30  C   UNL     1      12.046   3.615  -2.074  0.00  0.00    +0.001 A 
ATOM     31  C   UNL     1      13.431   3.741  -2.183  0.00  0.00    +0.003 A 
ATOM     32  C   UNL     1      15.664   4.275  -1.225  0.00  0.00    +0.044 C 
ENDBRANCH  17  20
BRANCH   6   2
ATOM      2  S   UNL     1      12.640   7.578   6.761  0.00  0.00    +0.061 S 
ATOM      3  O   UNL     1      13.065   6.478   7.602  0.00  0.00    -0.153 OA
ATOM      4  O   UNL     1      12.447   8.914   7.286  0.00  0.00    -0.153 OA
BRANCH   2  19
ATOM      1 CL   UNL     1      17.240   8.257   2.575  0.00  0.00    -0.084 Cl
ATOM     19  C   UNL     1      13.956   7.772   5.563  0.00  0.00    +0.106 A 
ATOM     21  C   UNL     1      13.646   7.666   4.229  0.00  0.00    +0.030 A 
ATOM     22  C   UNL     1      15.226   8.020   6.023  0.00  0.00    +0.030 A 
ATOM     25  C   UNL     1      14.672   7.817   3.296  0.00  0.00    +0.022 A 
ATOM     26  C   UNL     1      16.252   8.171   5.089  0.00  0.00    +0.022 A 
ATOM     28  C   UNL     1      15.975   8.070   3.726  0.00  0.00    +0.041 A 
ENDBRANCH   2  19
ENDBRANCH   6   2
TORSDOF 3
ENDMDL
MODEL 4
REMARK VINA RESULT:      -7.6     17.432     20.882
REMARK  Name = 11887647
REMARK  5 active torsions:
REMARK  status: ('A' for Active; 'I' for Inactive)
REMARK    1  A    between atoms: S_2  and  N_6
REMARK    2  A    between atoms: S_2  and  C_19
REMARK    3  A    between atoms: C_17  and  C_20
REMARK    4  A    between atoms: C_23  and  C_29
REMARK    5  A    between atoms: C_27  and  C_32
REMARK                            x       y       z     vdW  Elec       q    Type
REMARK                         _______ _______ _______ _____ _____    ______ ____
ROOT
ATOM      5  O   UNL     1      12.353   7.557   3.179  0.00  0.00    -0.267 OA
ATOM      6  N   UNL     1      13.131   4.609  -0.764  0.00  0.00    -0.176 NA
ATOM      7  N   UNL     1      12.827   5.466   2.262  0.00  0.00    -0.311 N 
ATOM      8  C   UNL     1      14.949   5.005   0.903  0.00  0.00    +0.025 C 
ATOM      9  C   UNL     1      13.324   3.202   1.277  0.00  0.00    +0.052 C 
ATOM     10  C   UNL     1      14.797   3.579   1.415  0.00  0.00    +0.017 C 
ATOM     11  C   UNL     1      14.527   5.097  -0.573  0.00  0.00    +0.114 C 
ATOM     12  C   UNL     1      12.919   3.239  -0.208  0.00  0.00    +0.119 C 
ATOM     13  C   UNL     1      14.138   5.946   1.804  0.00  0.00    +0.130 C 
ATOM     14  C   UNL     1      12.444   4.135   2.089  0.00  0.00    +0.026 A 
ATOM     15  C   UNL     1      11.293   3.691   2.618  0.00  0.00    +0.022 A 
ATOM     16  C   UNL     1      12.032   6.385   2.975  0.00  0.00    +0.259 A 
ATOM     17  C   UNL     1      10.731   5.868   3.525  0.00  0.00    +0.047 A 
ATOM     18  C   UNL     1      10.423   4.575   3.341  0.00  0.00    +0.015 A 
ENDROOT
BRANCH  17  20
ATOM     20  C   UNL     1       9.800   6.754   4.247  0.00  0.00    -0.010 A 
ATOM     23  C   UNL     1       9.877   6.924   5.631  0.00  0.00    -0.040 A 
ATOM     24  C   UNL     1       8.819   7.433   3.519  0.00  0.00    +0.009 A 
ATOM     27  C   UNL     1       8.980   7.770   6.283  0.00  0.00    -0.047 A 
ATOM     29  C   UNL     1      10.922   6.203   6.425  0.00  0.00    +0.044 C 
ATOM     30  C   UNL     1       7.923   8.278   4.172  0.00  0.00    +0.001 A 
ATOM     31  C   UNL     1       8.002   8.447   5.554  0.00  0.00    +0.003 A 
ATOM     32  C   UNL     1       9.043   7.968   7.763  0.00  0.00    +0.044 C 
ENDBRANCH  17  20
BRANCH   6   2
ATOM      2  S   UNL     1      12.452   4.894  -2.308  0.00  0.00    +0.061 S 
ATOM      3  O   UNL     1      11.886   3.654  -2.799  0.00  0.00    -0.153 OA
ATOM      4  O   UNL     1      13.378   5.680  -3.097  0.00  0.00    -0.153 OA
BRANCH   2  19
ATOM      1 CL   UNL     1       7.541   8.691  -1.526  0.00  0.00    -0.084 Cl
ATOM     19  C   UNL     1      11.047   5.980  -2.085  0.00  0.00    +0.106 A 
ATOM     21  C   UNL     1      10.345   6.377  -3.196  0.00  0.00    +0.030 A 
ATOM     22  C   UNL     1      10.724   6.377  -0.809  0.00  0.00    +0.030 A 
ATOM     25  C   UNL     1       9.249   7.224  -3.021  0.00  0.00    +0.022 A 
ATOM     26  C   UNL     1       9.629   7.223  -0.636  0.00  0.00    +0.022 A 
ATOM     28  C   UNL     1       8.892   7.647  -1.741  0.00  0.00    +0.041 A 
ENDBRANCH   2  19
ENDBRANCH   6   2
TORSDOF 3
ENDMDL
MODEL 5
REMARK VINA RESULT:      -7.4     18.330     21.623
REMARK  Name = 11887647
REMARK  5 active torsions:
REMARK  status: ('A' for Active; 'I' for Inactive)
REMARK    1  A    between atoms: S_2  and  N_6
REMARK    2  A    between atoms: S_2  and  C_19
REMARK    3  A    between atoms: C_17  and  C_20
REMARK    4  A    between atoms: C_23  and  C_29
REMARK    5  A    between atoms: C_27  and  C_32
REMARK                            x       y       z     vdW  Elec       q    Type
REMARK                         _______ _______ _______ _____ _____    ______ ____
ROOT
ATOM      5  O   UNL     1      12.219   7.737   2.722  0.00  0.00    -0.267 OA
ATOM      6  N   UNL     1      13.590   4.506  -0.817  0.00  0.00    -0.176 NA
ATOM      7  N   UNL     1      12.769   5.576   2.040  0.00  0.00    -0.311 N 
ATOM      8  C   UNL     1      15.084   4.964   1.131  0.00  0.00    +0.025 C 
ATOM      9  C   UNL     1      13.347   3.237   1.307  0.00  0.00    +0.052 C 
ATOM     10  C   UNL     1      14.783   3.580   1.692  0.00  0.00    +0.017 C 
ATOM     11  C   UNL     1      14.945   4.967  -0.401  0.00  0.00    +0.114 C 
ATOM     12  C   UNL     1      13.224   3.184  -0.227  0.00  0.00    +0.119 C 
ATOM     13  C   UNL     1      14.160   5.986   1.805  0.00  0.00    +0.130 C 
ATOM     14  C   UNL     1      12.371   4.247   1.881  0.00  0.00    +0.026 A 
ATOM     15  C   UNL     1      11.125   3.873   2.213  0.00  0.00    +0.022 A 
ATOM     16  C   UNL     1      11.895   6.563   2.535  0.00  0.00    +0.259 A 
ATOM     17  C   UNL     1      10.494   6.122   2.864  0.00  0.00    +0.047 A 
ATOM     18  C   UNL     1      10.174   4.828   2.706  0.00  0.00    +0.015 A 
ENDROOT
BRANCH  17  20
ATOM     20  C   UNL     1       9.483   7.080   3.343  0.00  0.00    -0.010 A 
ATOM     23  C   UNL     1       8.869   7.989   2.479  0.00  0.00    -0.040 A 
ATOM     24  C   UNL     1       9.140   7.071   4.698  0.00  0.00    +0.009 A 
ATOM     27  C   UNL     1       7.916   8.884   2.966  0.00  0.00    -0.047 A 
ATOM     29  C   UNL     1       9.227   8.011   1.025  0.00  0.00    +0.044 C 
ATOM     30  C   UNL     1       8.186   7.966   5.184  0.00  0.00    +0.001 A 
ATOM     31  C   UNL     1       7.574   8.872   4.318  0.00  0.00    +0.003 A 
ATOM     32  C   UNL     1       7.246   9.866   2.061  0.00  0.00    +0.044 C 
ENDBRANCH  17  20
BRANCH   6   2
ATOM      2  S   UNL     1      13.218   4.704  -2.476  0.00  0.00    +0.061 S 
ATOM      3  O   UNL     1      13.277   3.408  -3.120  0.00  0.00    -0.153 OA
ATOM      4  O   UNL     1      13.939   5.850  -2.991  0.00  0.00    -0.153 OA
BRANCH   2  19
ATOM      1 CL   UNL     1       7.211   6.409  -2.865  0.00  0.00    -0.084 Cl
ATOM     19  C   UNL     1      11.499   5.192  -2.587  0.00  0.00    +0.106 A 
ATOM     21  C   UNL     1      10.752   5.218  -1.435  0.00  0.00    +0.030 A 
ATOM     22  C   UNL     1      10.992   5.521  -3.820  0.00  0.00    +0.030 A 
ATOM     25  C   UNL     1       9.412   5.598  -1.522  0.00  0.00    +0.022 A 
ATOM     26  C   UNL     1       9.653   5.901  -3.907  0.00  0.00    +0.022 A 
ATOM     28  C   UNL     1       8.863   5.940  -2.758  0.00  0.00    +0.041 A 
ENDBRANCH   2  19
ENDBRANCH   6   2
TORSDOF 3
ENDMDL
MODEL 6
REMARK VINA RESULT:      -7.3      3.313      5.482
REMARK  Name = 11887647
REMARK  5 active torsions:
REMARK  status: ('A' for Active; 'I' for Inactive)
REMARK    1  A    between atoms: S_2  and  N_6
REMARK    2  A    between atoms: S_2  and  C_19
REMARK    3  A    between atoms: C_17  and  C_20
REMARK    4  A    between atoms: C_23  and  C_29
REMARK    5  A    between atoms: C_27  and  C_32
REMARK                            x       y       z     vdW  Elec       q    Type
REMARK                         _______ _______ _______ _____ _____    ______ ____
ROOT
ATOM      5  O   UNL     1      16.169   9.123  22.117  0.00  0.00    -0.267 OA
ATOM      6  N   UNL     1      12.263   8.088  19.199  0.00  0.00    -0.176 NA
ATOM      7  N   UNL     1      13.869   9.059  21.740  0.00  0.00    -0.311 N 
ATOM      8  C   UNL     1      12.594   6.871  21.355  0.00  0.00    +0.025 C 
ATOM      9  C   UNL     1      11.384   9.008  21.334  0.00  0.00    +0.052 C 
ATOM     10  C   UNL     1      11.413   7.617  21.962  0.00  0.00    +0.017 C 
ATOM     11  C   UNL     1      12.429   6.747  19.831  0.00  0.00    +0.114 C 
ATOM     12  C   UNL     1      11.161   8.884  19.816  0.00  0.00    +0.119 C 
ATOM     13  C   UNL     1      13.891   7.590  21.747  0.00  0.00    +0.130 C 
ATOM     14  C   UNL     1      12.669   9.763  21.620  0.00  0.00    +0.026 A 
ATOM     15  C   UNL     1      12.658  11.101  21.733  0.00  0.00    +0.022 A 
ATOM     16  C   UNL     1      15.097   9.711  21.970  0.00  0.00    +0.259 A 
ATOM     17  C   UNL     1      15.058  11.213  22.056  0.00  0.00    +0.047 A 
ATOM     18  C   UNL     1      13.874  11.833  21.948  0.00  0.00    +0.015 A 
ENDROOT
BRANCH  17  20
ATOM     20  C   UNL     1      16.290  11.999  22.246  0.00  0.00    -0.010 A 
ATOM     23  C   UNL     1      17.146  12.287  21.181  0.00  0.00    -0.040 A 
ATOM     24  C   UNL     1      16.599  12.462  23.528  0.00  0.00    +0.009 A 
ATOM     27  C   UNL     1      18.305  13.034  21.396  0.00  0.00    -0.047 A 
ATOM     29  C   UNL     1      16.829  11.798  19.802  0.00  0.00    +0.044 C 
ATOM     30  C   UNL     1      17.757  13.209  23.742  0.00  0.00    +0.001 A 
ATOM     31  C   UNL     1      18.610  13.495  22.676  0.00  0.00    +0.003 A 
ATOM     32  C   UNL     1      19.236  13.353  20.272  0.00  0.00    +0.044 C 
ENDBRANCH  17  20
BRANCH   6   2
ATOM      2  S   UNL     1      12.326   8.112  17.489  0.00  0.00    +0.061 S 
ATOM      3  O   UNL     1      10.973   8.195  16.979  0.00  0.00    -0.153 OA
ATOM      4  O   UNL     1      13.257   7.100  17.033  0.00  0.00    -0.153 OA
BRANCH   2  19
ATOM      1 CL   UNL     1      15.009  13.501  15.786  0.00  0.00    -0.084 Cl
ATOM     19  C   UNL     1      13.094   9.654  17.001  0.00  0.00    +0.106 A 
ATOM     21  C   UNL     1      13.359   9.859  15.670  0.00  0.00    +0.030 A 
ATOM     22  C   UNL     1      13.390  10.574  17.978  0.00  0.00    +0.030 A 
ATOM     25  C   UNL     1      13.957  11.062  15.290  0.00  0.00    +0.022 A 
ATOM     26  C   UNL     1      13.988  11.775  17.598  0.00  0.00    +0.022 A 
ATOM     28  C   UNL     1      14.272  12.019  16.254  0.00  0.00    +0.041 A 
ENDBRANCH   2  19
ENDBRANCH   6   2
TORSDOF 3
ENDMDL
MODEL 7
REMARK VINA RESULT:      -7.2     22.974     24.855
REMARK  Name = 11887647
REMARK  5 active torsions:
REMARK  status: ('A' for Active; 'I' for Inactive)
REMARK    1  A    between atoms: S_2  and  N_6
REMARK    2  A    between atoms: S_2  and  C_19
REMARK    3  A    between atoms: C_17  and  C_20
REMARK    4  A    between atoms: C_23  and  C_29
REMARK    5  A    between atoms: C_27  and  C_32
REMARK                            x       y       z     vdW  Elec       q    Type
REMARK                         _______ _______ _______ _____ _____    ______ ____
ROOT
ATOM      5  O   UNL     1       9.405  -9.498  32.861  0.00  0.00    -0.267 OA
ATOM      6  N   UNL     1       8.288  -6.051  36.285  0.00  0.00    -0.176 NA
ATOM      7  N   UNL     1       8.695  -7.352  33.434  0.00  0.00    -0.311 N 
ATOM      8  C   UNL     1      10.186  -5.698  34.700  0.00  0.00    +0.025 C 
ATOM      9  C   UNL     1       7.913  -5.037  34.046  0.00  0.00    +0.052 C 
ATOM     10  C   UNL     1       9.382  -4.631  33.968  0.00  0.00    +0.017 C 
ATOM     11  C   UNL     1       9.751  -5.787  36.172  0.00  0.00    +0.114 C 
ATOM     12  C   UNL     1       7.464  -5.069  35.518  0.00  0.00    +0.119 C 
ATOM     13  C   UNL     1      10.029  -7.033  33.961  0.00  0.00    +0.130 C 
ATOM     14  C   UNL     1       7.685  -6.388  33.394  0.00  0.00    +0.026 A 
ATOM     15  C   UNL     1       6.512  -6.666  32.802  0.00  0.00    +0.022 A 
ATOM     16  C   UNL     1       8.526  -8.635  32.876  0.00  0.00    +0.259 A 
ATOM     17  C   UNL     1       7.188  -8.929  32.253  0.00  0.00    +0.047 A 
ATOM     18  C   UNL     1       6.262  -7.959  32.230  0.00  0.00    +0.015 A 
ENDROOT
BRANCH  17  20
ATOM     20  C   UNL     1       6.886 -10.253  31.682  0.00  0.00    -0.010 A 
ATOM     23  C   UNL     1       6.365 -11.286  32.466  0.00  0.00    -0.040 A 
ATOM     24  C   UNL     1       7.131 -10.471  30.324  0.00  0.00    +0.009 A 
ATOM     27  C   UNL     1       6.090 -12.528  31.894  0.00  0.00    -0.047 A 
ATOM     29  C   UNL     1       6.097 -11.069  33.923  0.00  0.00    +0.044 C 
ATOM     30  C   UNL     1       6.856 -11.713  29.753  0.00  0.00    +0.001 A 
ATOM     31  C   UNL     1       6.336 -12.742  30.538  0.00  0.00    +0.003 A 
ATOM     32  C   UNL     1       5.534 -13.648  32.712  0.00  0.00    +0.044 C 
ENDBRANCH  17  20
BRANCH   6   2
ATOM      2  S   UNL     1       7.722  -6.426  37.855  0.00  0.00    +0.061 S 
ATOM      3  O   UNL     1       7.387  -5.190  38.531  0.00  0.00    -0.153 OA
ATOM      4  O   UNL     1       8.596  -7.414  38.453  0.00  0.00    -0.153 OA
BRANCH   2  19
ATOM      1 CL   UNL     1       2.269  -9.428  37.223  0.00  0.00    -0.084 Cl
ATOM     19  C   UNL     1       6.162  -7.285  37.674  0.00  0.00    +0.106 A 
ATOM     21  C   UNL     1       6.041  -8.215  36.671  0.00  0.00    +0.030 A 
ATOM     22  C   UNL     1       5.144  -6.981  38.545  0.00  0.00    +0.030 A 
ATOM     25  C   UNL     1       4.825  -8.885  36.530  0.00  0.00    +0.022 A 
ATOM     26  C   UNL     1       3.929  -7.650  38.404  0.00  0.00    +0.022 A 
ATOM     28  C   UNL     1       3.769  -8.602  37.397  0.00  0.00    +0.041 A 
ENDBRANCH   2  19
ENDBRANCH   6   2
TORSDOF 3
ENDMDL
MODEL 8
REMARK VINA RESULT:      -7.2     23.770     25.949
REMARK  Name = 11887647
REMARK  5 active torsions:
REMARK  status: ('A' for Active; 'I' for Inactive)
REMARK    1  A    between atoms: S_2  and  N_6
REMARK    2  A    between atoms: S_2  and  C_19
REMARK    3  A    between atoms: C_17  and  C_20
REMARK    4  A    between atoms: C_23  and  C_29
REMARK    5  A    between atoms: C_27  and  C_32
REMARK                            x       y       z     vdW  Elec       q    Type
REMARK                         _______ _______ _______ _____ _____    ______ ____
ROOT
ATOM      5  O   UNL     1       9.340 -11.630  31.732  0.00  0.00    -0.267 OA
ATOM      6  N   UNL     1       7.170  -8.700  35.130  0.00  0.00    -0.176 NA
ATOM      7  N   UNL     1       8.533  -9.550  32.409  0.00  0.00    -0.311 N 
ATOM      8  C   UNL     1       9.518  -8.269  34.397  0.00  0.00    +0.025 C 
ATOM      9  C   UNL     1       7.649  -7.304  33.129  0.00  0.00    +0.052 C 
ATOM     10  C   UNL     1       9.059  -7.028  33.642  0.00  0.00    +0.017 C 
ATOM     11  C   UNL     1       8.583  -8.556  35.583  0.00  0.00    +0.114 C 
ATOM     12  C   UNL     1       6.702  -7.535  34.322  0.00  0.00    +0.119 C 
ATOM     13  C   UNL     1       9.598  -9.445  33.416  0.00  0.00    +0.130 C 
ATOM     14  C   UNL     1       7.631  -8.504  32.201  0.00  0.00    +0.026 A 
ATOM     15  C   UNL     1       6.741  -8.574  31.199  0.00  0.00    +0.022 A 
ATOM     16  C   UNL     1       8.539 -10.704  31.601  0.00  0.00    +0.259 A 
ATOM     17  C   UNL     1       7.505 -10.769  30.510  0.00  0.00    +0.047 A 
ATOM     18  C   UNL     1       6.676  -9.727  30.347  0.00  0.00    +0.015 A 
ENDROOT
BRANCH  17  20
ATOM     20  C   UNL     1       7.390 -11.949  29.635  0.00  0.00    -0.010 A 
ATOM     23  C   UNL     1       6.475 -12.970  29.902  0.00  0.00    -0.040 A 
ATOM     24  C   UNL     1       8.221 -12.039  28.516  0.00  0.00    +0.009 A 
ATOM     27  C   UNL     1       6.392 -14.075  29.053  0.00  0.00    -0.047 A 
ATOM     29  C   UNL     1       5.577 -12.889  31.097  0.00  0.00    +0.044 C 
ATOM     30  C   UNL     1       8.137 -13.143  27.669  0.00  0.00    +0.001 A 
ATOM     31  C   UNL     1       7.223 -14.162  27.937  0.00  0.00    +0.003 A 
ATOM     32  C   UNL     1       5.422 -15.180  29.319  0.00  0.00    +0.044 C 
ENDBRANCH  17  20
BRANCH   6   2
ATOM      2  S   UNL     1       6.069  -9.272  36.309  0.00  0.00    +0.061 S 
ATOM      3  O   UNL     1       5.159  -8.197  36.650  0.00  0.00    -0.153 OA
ATOM      4  O   UNL     1       6.797 -10.010  37.320  0.00  0.00    -0.153 OA
BRANCH   2  19
ATOM      1 CL   UNL     1       2.473 -13.604  33.580  0.00  0.00    -0.084 Cl
ATOM     19  C   UNL     1       5.041 -10.511  35.528  0.00  0.00    +0.106 A 
ATOM     21  C   UNL     1       5.654 -11.527  34.837  0.00  0.00    +0.030 A 
ATOM     22  C   UNL     1       3.677 -10.399  35.649  0.00  0.00    +0.030 A 
ATOM     25  C   UNL     1       4.851 -12.494  34.228  0.00  0.00    +0.022 A 
ATOM     26  C   UNL     1       2.876 -11.365  35.041  0.00  0.00    +0.022 A 
ATOM     28  C   UNL     1       3.462 -12.412  34.330  0.00  0.00    +0.041 A 
ENDBRANCH   2  19
ENDBRANCH   6   2
TORSDOF 3
ENDMDL
MODEL 9
REMARK VINA RESULT:      -7.1     28.043     30.253
REMARK  Name = 11887647
REMARK  5 active torsions:
REMARK  status: ('A' for Active; 'I' for Inactive)
REMARK    1  A    between atoms: S_2  and  N_6
REMARK    2  A    between atoms: S_2  and  C_19
REMARK    3  A    between atoms: C_17  and  C_20
REMARK    4  A    between atoms: C_23  and  C_29
REMARK    5  A    between atoms: C_27  and  C_32
REMARK                            x       y       z     vdW  Elec       q    Type
REMARK                         _______ _______ _______ _____ _____    ______ ____
ROOT
ATOM      5  O   UNL     1      -7.860  -8.904  17.250  0.00  0.00    -0.267 OA
ATOM      6  N   UNL     1      -4.019 -11.657  15.666  0.00  0.00    -0.176 NA
ATOM      7  N   UNL     1      -6.729 -10.939  17.123  0.00  0.00    -0.311 N 
ATOM      8  C   UNL     1      -4.389 -11.280  18.107  0.00  0.00    +0.025 C 
ATOM      9  C   UNL     1      -5.520 -13.144  16.976  0.00  0.00    +0.052 C 
ATOM     10  C   UNL     1      -4.823 -12.731  18.270  0.00  0.00    +0.017 C 
ATOM     11  C   UNL     1      -3.414 -11.137  16.926  0.00  0.00    +0.114 C 
ATOM     12  C   UNL     1      -4.526 -13.055  15.804  0.00  0.00    +0.119 C 
ATOM     13  C   UNL     1      -5.637 -10.403  17.947  0.00  0.00    +0.130 C 
ATOM     14  C   UNL     1      -6.733 -12.273  16.708  0.00  0.00    +0.026 A 
ATOM     15  C   UNL     1      -7.796 -12.771  16.056  0.00  0.00    +0.022 A 
ATOM     16  C   UNL     1      -7.812 -10.075  16.870  0.00  0.00    +0.259 A 
ATOM     17  C   UNL     1      -8.973 -10.653  16.105  0.00  0.00    +0.047 A 
ATOM     18  C   UNL     1      -8.927 -11.945  15.747  0.00  0.00    +0.015 A 
ENDROOT
BRANCH  17  20
ATOM     20  C   UNL     1     -10.138  -9.826  15.744  0.00  0.00    -0.010 A 
ATOM     23  C   UNL     1     -11.242  -9.709  16.591  0.00  0.00    -0.040 A 
ATOM     24  C   UNL     1     -10.127  -9.149  14.522  0.00  0.00    +0.009 A 
ATOM     27  C   UNL     1     -12.330  -8.919  16.219  0.00  0.00    -0.047 A 
ATOM     29  C   UNL     1     -11.269 -10.429  17.904  0.00  0.00    +0.044 C 
ATOM     30  C   UNL     1     -11.215  -8.358  14.151  0.00  0.00    +0.001 A 
ATOM     31  C   UNL     1     -12.316  -8.243  14.999  0.00  0.00    +0.003 A 
ATOM     32  C   UNL     1     -13.522  -8.779  17.108  0.00  0.00    +0.044 C 
ENDBRANCH  17  20
BRANCH   6   2
ATOM      2  S   UNL     1      -3.144 -11.326  14.233  0.00  0.00    +0.061 S 
ATOM      3  O   UNL     1      -2.794 -12.583  13.606  0.00  0.00    -0.153 OA
ATOM      4  O   UNL     1      -2.154 -10.304  14.507  0.00  0.00    -0.153 OA
BRANCH   2  19
ATOM      1 CL   UNL     1      -7.079  -8.575  10.222  0.00  0.00    -0.084 Cl
ATOM     19  C   UNL     1      -4.269 -10.539  13.086  0.00  0.00    +0.106 A 
ATOM     21  C   UNL     1      -3.810 -10.230  11.828  0.00  0.00    +0.030 A 
ATOM     22  C   UNL     1      -5.550 -10.272  13.506  0.00  0.00    +0.030 A 
ATOM     25  C   UNL     1      -4.688  -9.617  10.934  0.00  0.00    +0.022 A 
ATOM     26  C   UNL     1      -6.426  -9.658  12.611  0.00  0.00    +0.022 A 
ATOM     28  C   UNL     1      -5.996  -9.331  11.326  0.00  0.00    +0.041 A 
ENDBRANCH   2  19
ENDBRANCH   6   2
TORSDOF 3
ENDMDL
MODEL 10
REMARK VINA RESULT:      -7.1     28.250     30.197
REMARK  Name = 11887647
REMARK  5 active torsions:
REMARK  status: ('A' for Active; 'I' for Inactive)
REMARK    1  A    between atoms: S_2  and  N_6
REMARK    2  A    between atoms: S_2  and  C_19
REMARK    3  A    between atoms: C_17  and  C_20
REMARK    4  A    between atoms: C_23  and  C_29
REMARK    5  A    between atoms: C_27  and  C_32
REMARK                            x       y       z     vdW  Elec       q    Type
REMARK                         _______ _______ _______ _____ _____    ______ ____
ROOT
ATOM      5  O   UNL     1      -5.630 -12.697  10.680  0.00  0.00    -0.267 OA
ATOM      6  N   UNL     1      -3.666 -12.107  15.224  0.00  0.00    -0.176 NA
ATOM      7  N   UNL     1      -3.783 -12.529  12.094  0.00  0.00    -0.311 N 
ATOM      8  C   UNL     1      -3.312 -14.228  13.953  0.00  0.00    +0.025 C 
ATOM      9  C   UNL     1      -1.785 -12.334  13.614  0.00  0.00    +0.052 C 
ATOM     10  C   UNL     1      -1.852 -13.855  13.730  0.00  0.00    +0.017 C 
ATOM     11  C   UNL     1      -3.840 -13.587  15.248  0.00  0.00    +0.114 C 
ATOM     12  C   UNL     1      -2.260 -11.696  14.933  0.00  0.00    +0.119 C 
ATOM     13  C   UNL     1      -4.125 -13.814  12.720  0.00  0.00    +0.130 C 
ATOM     14  C   UNL     1      -2.625 -11.837  12.453  0.00  0.00    +0.026 A 
ATOM     15  C   UNL     1      -2.272 -10.726  11.787  0.00  0.00    +0.022 A 
ATOM     16  C   UNL     1      -4.620 -12.094  11.048  0.00  0.00    +0.259 A 
ATOM     17  C   UNL     1      -4.218 -10.826  10.345  0.00  0.00    +0.047 A 
ATOM     18  C   UNL     1      -3.086 -10.213  10.723  0.00  0.00    +0.015 A 
ENDROOT
BRANCH  17  20
ATOM     20  C   UNL     1      -5.045 -10.254   9.268  0.00  0.00    -0.010 A 
ATOM     23  C   UNL     1      -6.059  -9.332   9.536  0.00  0.00    -0.040 A 
ATOM     24  C   UNL     1      -4.800 -10.652   7.951  0.00  0.00    +0.009 A 
ATOM     27  C   UNL     1      -6.824  -8.810   8.492  0.00  0.00    -0.047 A 
ATOM     29  C   UNL     1      -6.335  -8.896  10.941  0.00  0.00    +0.044 C 
ATOM     30  C   UNL     1      -5.565 -10.129   6.909  0.00  0.00    +0.001 A 
ATOM     31  C   UNL     1      -6.577  -9.208   7.179  0.00  0.00    +0.003 A 
ATOM     32  C   UNL     1      -7.915  -7.824   8.754  0.00  0.00    +0.044 C 
ENDBRANCH  17  20
BRANCH   6   2
ATOM      2  S   UNL     1      -4.441 -11.250  16.485  0.00  0.00    +0.061 S 
ATOM      3  O   UNL     1      -3.673 -10.056  16.771  0.00  0.00    -0.153 OA
ATOM      4  O   UNL     1      -4.826 -12.181  17.526  0.00  0.00    -0.153 OA
BRANCH   2  19
ATOM      1 CL   UNL     1      -9.896  -9.145  14.259  0.00  0.00    -0.084 Cl
ATOM     19  C   UNL     1      -6.002 -10.648  15.848  0.00  0.00    +0.106 A 
ATOM     21  C   UNL     1      -6.273 -10.821  14.513  0.00  0.00    +0.030 A 
ATOM     22  C   UNL     1      -6.869 -10.034  16.718  0.00  0.00    +0.030 A 
ATOM     25  C   UNL     1      -7.490 -10.352  14.017  0.00  0.00    +0.022 A 
ATOM     26  C   UNL     1      -8.085  -9.564  16.221  0.00  0.00    +0.022 A 
ATOM     28  C   UNL     1      -8.396  -9.724  14.871  0.00  0.00    +0.041 A 
ENDBRANCH   2  19
ENDBRANCH   6   2
TORSDOF 3
ENDMDL
