MODEL 1
REMARK VINA RESULT:      -6.6      0.000      0.000
REMARK  Name = 7144133
REMARK  5 active torsions:
REMARK  status: ('A' for Active; 'I' for Inactive)
REMARK    1  A    between atoms: O_4  and  C_21
REMARK    2  A    between atoms: O_4  and  C_27
REMARK    3  A    between atoms: C_14  and  C_19
REMARK    4  A    between atoms: C_16  and  C_20
REMARK    5  A    between atoms: C_20  and  C_21
REMARK                            x       y       z     vdW  Elec       q    Type
REMARK                         _______ _______ _______ _____ _____    ______ ____
ROOT
ATOM      2  O   UNL     1      11.113   5.927  20.849  0.00  0.00    -0.268 OA
ATOM      3  O   UNL     1      16.268   6.591  19.996  0.00  0.00    -0.276 OA
ATOM      5  N   UNL     1      15.110   8.488  19.318  0.00  0.00    -0.300 N 
ATOM      6  N   UNL     1      12.077   7.925  20.097  0.00  0.00    -0.311 N 
ATOM      7  C   UNL     1      13.183   8.094  17.790  0.00  0.00    +0.027 C 
ATOM      8  C   UNL     1      13.166  10.043  19.289  0.00  0.00    +0.054 C 
ATOM      9  C   UNL     1      12.813   9.566  17.881  0.00  0.00    +0.018 C 
ATOM     10  C   UNL     1      14.685   7.891  18.052  0.00  0.00    +0.113 C 
ATOM     11  C   UNL     1      12.320   7.314  18.783  0.00  0.00    +0.130 C 
ATOM     12  C   UNL     1      14.683   9.879  19.521  0.00  0.00    +0.117 C 
ATOM     13  C   UNL     1      12.381   9.276  20.358  0.00  0.00    +0.034 A 
ATOM     14  C   UNL     1      12.002   9.840  21.534  0.00  0.00    +0.002 A 
ATOM     15  C   UNL     1      11.415   7.107  21.029  0.00  0.00    +0.252 A 
ATOM     16  C   UNL     1      15.921   7.759  20.188  0.00  0.00    +0.218 C 
ATOM     17  C   UNL     1      11.320   9.026  22.521  0.00  0.00    +0.015 A 
ATOM     18  C   UNL     1      11.045   7.737  22.317  0.00  0.00    +0.071 A 
ENDROOT
BRANCH  14  19
ATOM      1 CL   UNL     1      13.138  15.578  22.790  0.00  0.00    -0.084 Cl
ATOM     19  C   UNL     1      12.282  11.259  21.845  0.00  0.00    -0.016 A 
ATOM     22  C   UNL     1      11.368  12.240  21.477  0.00  0.00    +0.010 A 
ATOM     23  C   UNL     1      13.460  11.602  22.503  0.00  0.00    +0.010 A 
ATOM     24  C   UNL     1      11.633  13.578  21.770  0.00  0.00    +0.020 A 
ATOM     25  C   UNL     1      13.724  12.940  22.796  0.00  0.00    +0.020 A 
ATOM     26  C   UNL     1      12.811  13.928  22.429  0.00  0.00    +0.041 A 
ENDBRANCH  14  19
BRANCH  16  20
ATOM     20  C   UNL     1      16.378   8.467  21.438  0.00  0.00    +0.124 C 
BRANCH  20  21
ATOM     21  C   UNL     1      17.810   8.928  21.264  0.00  0.00    +0.168 C 
BRANCH  21   4
ATOM      4  O   UNL     1      18.672   8.103  22.035  0.00  0.00    -0.382 OA
ATOM     27  C   UNL     1      19.530   7.329  21.210  0.00  0.00    +0.194 C 
ENDBRANCH  21   4
ENDBRANCH  20  21
ENDBRANCH  16  20
TORSDOF 4
ENDMDL
MODEL 2
REMARK VINA RESULT:      -6.2     14.576     17.379
REMARK  Name = 7144133
REMARK  5 active torsions:
REMARK  status: ('A' for Active; 'I' for Inactive)
REMARK    1  A    between atoms: O_4  and  C_21
REMARK    2  A    between atoms: O_4  and  C_27
REMARK    3  A    between atoms: C_14  and  C_19
REMARK    4  A    between atoms: C_16  and  C_20
REMARK    5  A    between atoms: C_20  and  C_21
REMARK                            x       y       z     vdW  Elec       q    Type
REMARK                         _______ _______ _______ _____ _____    ______ ____
ROOT
ATOM      2  O   UNL     1       6.984   9.271   4.663  0.00  0.00    -0.268 OA
ATOM      3  O   UNL     1      11.287  10.088   7.588  0.00  0.00    -0.276 OA
ATOM      5  N   UNL     1      11.149   7.842   7.008  0.00  0.00    -0.300 N 
ATOM      6  N   UNL     1       8.601   7.637   5.113  0.00  0.00    -0.311 N 
ATOM      7  C   UNL     1       8.970   6.732   7.483  0.00  0.00    +0.027 C 
ATOM      8  C   UNL     1      10.367   5.923   5.628  0.00  0.00    +0.054 C 
ATOM      9  C   UNL     1       9.456   5.478   6.773  0.00  0.00    +0.018 C 
ATOM     10  C   UNL     1      10.155   7.540   8.038  0.00  0.00    +0.113 C 
ATOM     11  C   UNL     1       8.130   7.551   6.502  0.00  0.00    +0.130 C 
ATOM     12  C   UNL     1      11.576   6.690   6.203  0.00  0.00    +0.117 C 
ATOM     13  C   UNL     1       9.617   6.796   4.618  0.00  0.00    +0.034 A 
ATOM     14  C   UNL     1       9.916   6.803   3.292  0.00  0.00    +0.002 A 
ATOM     15  C   UNL     1       7.888   8.525   4.288  0.00  0.00    +0.252 A 
ATOM     16  C   UNL     1      11.663   9.134   6.901  0.00  0.00    +0.218 C 
ATOM     17  C   UNL     1       9.205   7.709   2.412  0.00  0.00    +0.015 A 
ATOM     18  C   UNL     1       8.260   8.538   2.854  0.00  0.00    +0.071 A 
ENDROOT
BRANCH  14  19
ATOM      1 CL   UNL     1      14.148   3.252   0.996  0.00  0.00    -0.084 Cl
ATOM     19  C   UNL     1      10.963   5.925   2.724  0.00  0.00    -0.016 A 
ATOM     22  C   UNL     1      10.655   4.609   2.394  0.00  0.00    +0.010 A 
ATOM     23  C   UNL     1      12.247   6.422   2.523  0.00  0.00    +0.010 A 
ATOM     24  C   UNL     1      11.642   3.781   1.859  0.00  0.00    +0.020 A 
ATOM     25  C   UNL     1      13.233   5.594   1.987  0.00  0.00    +0.020 A 
ATOM     26  C   UNL     1      12.931   4.273   1.656  0.00  0.00    +0.041 A 
ENDBRANCH  14  19
BRANCH  16  20
ATOM     20  C   UNL     1      12.735   9.351   5.864  0.00  0.00    +0.124 C 
BRANCH  20  21
ATOM     21  C   UNL     1      14.078   9.497   6.548  0.00  0.00    +0.168 C 
BRANCH  21   4
ATOM      4  O   UNL     1      14.751   8.246   6.546  0.00  0.00    -0.382 OA
ATOM     27  C   UNL     1      15.014   7.797   5.225  0.00  0.00    +0.194 C 
ENDBRANCH  21   4
ENDBRANCH  20  21
ENDBRANCH  16  20
TORSDOF 4
ENDMDL
MODEL 3
REMARK VINA RESULT:      -5.9     27.721     29.793
REMARK  Name = 7144133
REMARK  5 active torsions:
REMARK  status: ('A' for Active; 'I' for Inactive)
REMARK    1  A    between atoms: O_4  and  C_21
REMARK    2  A    between atoms: O_4  and  C_27
REMARK    3  A    between atoms: C_14  and  C_19
REMARK    4  A    between atoms: C_16  and  C_20
REMARK    5  A    between atoms: C_20  and  C_21
REMARK                            x       y       z     vdW  Elec       q    Type
REMARK                         _______ _______ _______ _____ _____    ______ ____
ROOT
ATOM      2  O   UNL     1      -6.815 -14.902  15.516  0.00  0.00    -0.268 OA
ATOM      3  O   UNL     1      -3.974 -12.070  18.929  0.00  0.00    -0.276 OA
ATOM      5  N   UNL     1      -4.771 -10.690  17.238  0.00  0.00    -0.300 N 
ATOM      6  N   UNL     1      -6.587 -12.572  15.427  0.00  0.00    -0.311 N 
ATOM      7  C   UNL     1      -4.334 -11.464  14.912  0.00  0.00    +0.027 C 
ATOM      8  C   UNL     1      -6.307 -10.074  15.379  0.00  0.00    +0.054 C 
ATOM      9  C   UNL     1      -5.182 -10.322  14.374  0.00  0.00    +0.018 C 
ATOM     10  C   UNL     1      -3.742 -11.107  16.285  0.00  0.00    +0.113 C 
ATOM     11  C   UNL     1      -5.198 -12.724  14.973  0.00  0.00    +0.130 C 
ATOM     12  C   UNL     1      -5.701  -9.668  16.738  0.00  0.00    +0.117 C 
ATOM     13  C   UNL     1      -7.199 -11.308  15.543  0.00  0.00    +0.034 A 
ATOM     14  C   UNL     1      -8.526 -11.221  15.819  0.00  0.00    +0.002 A 
ATOM     15  C   UNL     1      -7.294 -13.772  15.619  0.00  0.00    +0.252 A 
ATOM     16  C   UNL     1      -4.766 -11.211  18.532  0.00  0.00    +0.218 C 
ATOM     17  C   UNL     1      -9.287 -12.438  16.027  0.00  0.00    +0.015 A 
ATOM     18  C   UNL     1      -8.731 -13.647  15.953  0.00  0.00    +0.071 A 
ENDROOT
BRANCH  14  19
ATOM      1 CL   UNL     1     -11.311  -5.946  16.277  0.00  0.00    -0.084 Cl
ATOM     19  C   UNL     1      -9.215  -9.917  15.932  0.00  0.00    -0.016 A 
ATOM     22  C   UNL     1      -9.848  -9.371  14.820  0.00  0.00    +0.010 A 
ATOM     23  C   UNL     1      -9.226  -9.245  17.151  0.00  0.00    +0.010 A 
ATOM     24  C   UNL     1     -10.497  -8.141  14.927  0.00  0.00    +0.020 A 
ATOM     25  C   UNL     1      -9.876  -8.016  17.258  0.00  0.00    +0.020 A 
ATOM     26  C   UNL     1     -10.510  -7.463  16.145  0.00  0.00    +0.041 A 
ENDBRANCH  14  19
BRANCH  16  20
ATOM     20  C   UNL     1      -5.813 -10.680  19.478  0.00  0.00    +0.124 C 
BRANCH  20  21
ATOM     21  C   UNL     1      -6.943 -11.680  19.595  0.00  0.00    +0.168 C 
BRANCH  21   4
ATOM      4  O   UNL     1      -8.139 -11.006  19.962  0.00  0.00    -0.382 OA
ATOM     27  C   UNL     1      -9.284 -11.812  19.729  0.00  0.00    +0.194 C 
ENDBRANCH  21   4
ENDBRANCH  20  21
ENDBRANCH  16  20
TORSDOF 4
ENDMDL
MODEL 4
REMARK VINA RESULT:      -5.8     12.785     15.463
REMARK  Name = 7144133
REMARK  5 active torsions:
REMARK  status: ('A' for Active; 'I' for Inactive)
REMARK    1  A    between atoms: O_4  and  C_21
REMARK    2  A    between atoms: O_4  and  C_27
REMARK    3  A    between atoms: C_14  and  C_19
REMARK    4  A    between atoms: C_16  and  C_20
REMARK    5  A    between atoms: C_20  and  C_21
REMARK                            x       y       z     vdW  Elec       q    Type
REMARK                         _______ _______ _______ _____ _____    ______ ____
ROOT
ATOM      2  O   UNL     1      13.592   7.018   6.322  0.00  0.00    -0.268 OA
ATOM      3  O   UNL     1       9.348   6.831   3.209  0.00  0.00    -0.276 OA
ATOM      5  N   UNL     1       8.699   7.297   5.391  0.00  0.00    -0.300 N 
ATOM      6  N   UNL     1      11.419   7.539   7.024  0.00  0.00    -0.311 N 
ATOM      7  C   UNL     1       9.582   5.755   7.136  0.00  0.00    +0.027 C 
ATOM      8  C   UNL     1       9.067   8.086   7.723  0.00  0.00    +0.054 C 
ATOM      9  C   UNL     1       8.987   6.642   8.218  0.00  0.00    +0.018 C 
ATOM     10  C   UNL     1       8.803   5.902   5.819  0.00  0.00    +0.113 C 
ATOM     11  C   UNL     1      11.059   6.116   6.969  0.00  0.00    +0.130 C 
ATOM     12  C   UNL     1       8.240   8.230   6.428  0.00  0.00    +0.117 C 
ATOM     13  C   UNL     1      10.515   8.520   7.479  0.00  0.00    +0.034 A 
ATOM     14  C   UNL     1      10.937   9.799   7.657  0.00  0.00    +0.002 A 
ATOM     15  C   UNL     1      12.757   7.836   6.709  0.00  0.00    +0.252 A 
ATOM     16  C   UNL     1       8.962   7.634   4.063  0.00  0.00    +0.218 C 
ATOM     17  C   UNL     1      12.309  10.142   7.339  0.00  0.00    +0.015 A 
ATOM     18  C   UNL     1      13.180   9.244   6.878  0.00  0.00    +0.071 A 
ENDROOT
BRANCH  14  19
ATOM      1 CL   UNL     1       7.263  14.080   9.649  0.00  0.00    -0.084 Cl
ATOM     19  C   UNL     1      10.029  10.858   8.150  0.00  0.00    -0.016 A 
ATOM     22  C   UNL     1       9.737  10.940   9.507  0.00  0.00    +0.010 A 
ATOM     23  C   UNL     1       9.473  11.764   7.251  0.00  0.00    +0.010 A 
ATOM     24  C   UNL     1       8.880  11.939   9.972  0.00  0.00    +0.020 A 
ATOM     25  C   UNL     1       8.617  12.762   7.716  0.00  0.00    +0.020 A 
ATOM     26  C   UNL     1       8.319  12.849   9.076  0.00  0.00    +0.041 A 
ENDBRANCH  14  19
BRANCH  16  20
ATOM     20  C   UNL     1       8.764   9.078   3.681  0.00  0.00    +0.124 C 
BRANCH  20  21
ATOM     21  C   UNL     1       7.512   9.212   2.841  0.00  0.00    +0.168 C 
BRANCH  21   4
ATOM      4  O   UNL     1       6.418   9.574   3.673  0.00  0.00    -0.382 OA
ATOM     27  C   UNL     1       6.414  10.965   3.955  0.00  0.00    +0.194 C 
ENDBRANCH  21   4
ENDBRANCH  20  21
ENDBRANCH  16  20
TORSDOF 4
ENDMDL
MODEL 5
REMARK VINA RESULT:      -5.8     27.803     29.519
REMARK  Name = 7144133
REMARK  5 active torsions:
REMARK  status: ('A' for Active; 'I' for Inactive)
REMARK    1  A    between atoms: O_4  and  C_21
REMARK    2  A    between atoms: O_4  and  C_27
REMARK    3  A    between atoms: C_14  and  C_19
REMARK    4  A    between atoms: C_16  and  C_20
REMARK    5  A    between atoms: C_20  and  C_21
REMARK                            x       y       z     vdW  Elec       q    Type
REMARK                         _______ _______ _______ _____ _____    ______ ____
ROOT
ATOM      2  O   UNL     1      -6.602 -15.176  17.085  0.00  0.00    -0.268 OA
ATOM      3  O   UNL     1      -8.401 -10.327  18.082  0.00  0.00    -0.276 OA
ATOM      5  N   UNL     1      -6.186 -10.215  17.388  0.00  0.00    -0.300 N 
ATOM      6  N   UNL     1      -5.392 -13.213  16.677  0.00  0.00    -0.311 N 
ATOM      7  C   UNL     1      -4.596 -11.706  18.593  0.00  0.00    +0.027 C 
ATOM      8  C   UNL     1      -4.139 -11.073  16.261  0.00  0.00    +0.054 C 
ATOM      9  C   UNL     1      -3.492 -11.306  17.626  0.00  0.00    +0.018 C 
ATOM     10  C   UNL     1      -5.658 -10.600  18.697  0.00  0.00    +0.113 C 
ATOM     11  C   UNL     1      -5.197 -13.032  18.122  0.00  0.00    +0.130 C 
ATOM     12  C   UNL     1      -5.167  -9.927  16.370  0.00  0.00    +0.117 C 
ATOM     13  C   UNL     1      -4.814 -12.342  15.732  0.00  0.00    +0.034 A 
ATOM     14  C   UNL     1      -4.893 -12.632  14.407  0.00  0.00    +0.002 A 
ATOM     15  C   UNL     1      -6.090 -14.375  16.304  0.00  0.00    +0.252 A 
ATOM     16  C   UNL     1      -7.563 -10.080  17.211  0.00  0.00    +0.218 C 
ATOM     17  C   UNL     1      -5.608 -13.820  13.985  0.00  0.00    +0.015 A 
ATOM     18  C   UNL     1      -6.192 -14.647  14.852  0.00  0.00    +0.071 A 
ENDROOT
BRANCH  14  19
ATOM      1 CL   UNL     1      -2.435  -9.094  10.255  0.00  0.00    -0.084 Cl
ATOM     19  C   UNL     1      -4.285 -11.757  13.380  0.00  0.00    -0.016 A 
ATOM     22  C   UNL     1      -2.939 -11.901  13.060  0.00  0.00    +0.010 A 
ATOM     23  C   UNL     1      -5.065 -10.797  12.741  0.00  0.00    +0.010 A 
ATOM     24  C   UNL     1      -2.366 -11.076  12.092  0.00  0.00    +0.020 A 
ATOM     25  C   UNL     1      -4.492  -9.973  11.773  0.00  0.00    +0.020 A 
ATOM     26  C   UNL     1      -3.142 -10.111  11.449  0.00  0.00    +0.041 A 
ENDBRANCH  14  19
BRANCH  16  20
ATOM     20  C   UNL     1      -8.026  -9.610  15.855  0.00  0.00    +0.124 C 
BRANCH  20  21
ATOM     21  C   UNL     1      -9.522  -9.376  15.886  0.00  0.00    +0.168 C 
BRANCH  21   4
ATOM      4  O   UNL     1      -9.787  -7.981  15.822  0.00  0.00    -0.382 OA
ATOM     27  C   UNL     1     -10.394  -7.511  17.016  0.00  0.00    +0.194 C 
ENDBRANCH  21   4
ENDBRANCH  20  21
ENDBRANCH  16  20
TORSDOF 4
ENDMDL
MODEL 6
REMARK VINA RESULT:      -5.7     26.581     29.188
REMARK  Name = 7144133
REMARK  5 active torsions:
REMARK  status: ('A' for Active; 'I' for Inactive)
REMARK    1  A    between atoms: O_4  and  C_21
REMARK    2  A    between atoms: O_4  and  C_27
REMARK    3  A    between atoms: C_14  and  C_19
REMARK    4  A    between atoms: C_16  and  C_20
REMARK    5  A    between atoms: C_20  and  C_21
REMARK                            x       y       z     vdW  Elec       q    Type
REMARK                         _______ _______ _______ _____ _____    ______ ____
ROOT
ATOM      2  O   UNL     1      -1.919 -10.739  16.755  0.00  0.00    -0.268 OA
ATOM      3  O   UNL     1      -5.378 -14.671  16.191  0.00  0.00    -0.276 OA
ATOM      5  N   UNL     1      -6.044 -12.850  14.910  0.00  0.00    -0.300 N 
ATOM      6  N   UNL     1      -3.727 -10.700  15.267  0.00  0.00    -0.311 N 
ATOM      7  C   UNL     1      -6.150 -10.667  16.103  0.00  0.00    +0.027 C 
ATOM      8  C   UNL     1      -5.685 -10.711  13.689  0.00  0.00    +0.054 C 
ATOM      9  C   UNL     1      -6.442  -9.964  14.786  0.00  0.00    +0.018 C 
ATOM     10  C   UNL     1      -6.609 -12.133  16.053  0.00  0.00    +0.113 C 
ATOM     11  C   UNL     1      -4.654 -10.546  16.396  0.00  0.00    +0.130 C 
ATOM     12  C   UNL     1      -6.189 -12.168  13.617  0.00  0.00    +0.117 C 
ATOM     13  C   UNL     1      -4.172 -10.686  13.930  0.00  0.00    +0.034 A 
ATOM     14  C   UNL     1      -3.268 -10.678  12.916  0.00  0.00    +0.002 A 
ATOM     15  C   UNL     1      -2.363 -10.740  15.607  0.00  0.00    +0.252 A 
ATOM     16  C   UNL     1      -5.489 -14.117  15.094  0.00  0.00    +0.218 C 
ATOM     17  C   UNL     1      -1.853 -10.722  13.229  0.00  0.00    +0.015 A 
ATOM     18  C   UNL     1      -1.401 -10.767  14.482  0.00  0.00    +0.071 A 
ENDROOT
BRANCH  14  19
ATOM      1 CL   UNL     1      -4.965 -10.543   7.180  0.00  0.00    -0.084 Cl
ATOM     19  C   UNL     1      -3.688 -10.645  11.498  0.00  0.00    -0.016 A 
ATOM     22  C   UNL     1      -3.808 -11.834  10.785  0.00  0.00    +0.010 A 
ATOM     23  C   UNL     1      -3.960  -9.424  10.886  0.00  0.00    +0.010 A 
ATOM     24  C   UNL     1      -4.204 -11.802   9.447  0.00  0.00    +0.020 A 
ATOM     25  C   UNL     1      -4.356  -9.393   9.549  0.00  0.00    +0.020 A 
ATOM     26  C   UNL     1      -4.477 -10.582   8.829  0.00  0.00    +0.041 A 
ENDBRANCH  14  19
BRANCH  16  20
ATOM     20  C   UNL     1      -4.993 -14.824  13.858  0.00  0.00    +0.124 C 
BRANCH  20  21
ATOM     21  C   UNL     1      -3.524 -15.150  14.018  0.00  0.00    +0.168 C 
BRANCH  21   4
ATOM      4  O   UNL     1      -2.741 -14.125  13.419  0.00  0.00    -0.382 OA
ATOM     27  C   UNL     1      -1.357 -14.436  13.459  0.00  0.00    +0.194 C 
ENDBRANCH  21   4
ENDBRANCH  20  21
ENDBRANCH  16  20
TORSDOF 4
ENDMDL
MODEL 7
REMARK VINA RESULT:      -5.7     25.037     27.352
REMARK  Name = 7144133
REMARK  5 active torsions:
REMARK  status: ('A' for Active; 'I' for Inactive)
REMARK    1  A    between atoms: O_4  and  C_21
REMARK    2  A    between atoms: O_4  and  C_27
REMARK    3  A    between atoms: C_14  and  C_19
REMARK    4  A    between atoms: C_16  and  C_20
REMARK    5  A    between atoms: C_20  and  C_21
REMARK                            x       y       z     vdW  Elec       q    Type
REMARK                         _______ _______ _______ _____ _____    ______ ____
ROOT
ATOM      2  O   UNL     1     -10.567  12.876  17.863  0.00  0.00    -0.268 OA
ATOM      3  O   UNL     1     -14.174  10.857  14.600  0.00  0.00    -0.276 OA
ATOM      5  N   UNL     1     -13.036   9.137  15.670  0.00  0.00    -0.300 N 
ATOM      6  N   UNL     1     -11.064  10.593  17.699  0.00  0.00    -0.311 N 
ATOM      7  C   UNL     1     -10.550   9.258  15.572  0.00  0.00    +0.027 C 
ATOM      8  C   UNL     1     -11.638   8.155  17.481  0.00  0.00    +0.054 C 
ATOM      9  C   UNL     1     -10.457   8.068  16.515  0.00  0.00    +0.018 C 
ATOM     10  C   UNL     1     -11.873   9.232  14.788  0.00  0.00    +0.113 C 
ATOM     11  C   UNL     1     -10.397  10.540  16.391  0.00  0.00    +0.130 C 
ATOM     12  C   UNL     1     -12.958   8.078  16.686  0.00  0.00    +0.117 C 
ATOM     13  C   UNL     1     -11.594   9.440  18.312  0.00  0.00    +0.034 A 
ATOM     14  C   UNL     1     -12.066   9.506  19.585  0.00  0.00    +0.002 A 
ATOM     15  C   UNL     1     -11.029  11.842  18.344  0.00  0.00    +0.252 A 
ATOM     16  C   UNL     1     -14.132   9.973  15.460  0.00  0.00    +0.218 C 
ATOM     17  C   UNL     1     -12.049  10.779  20.280  0.00  0.00    +0.015 A 
ATOM     18  C   UNL     1     -11.583  11.893  19.717  0.00  0.00    +0.071 A 
ENDROOT
BRANCH  14  19
ATOM      1 CL   UNL     1     -14.285   4.703  22.378  0.00  0.00    -0.084 Cl
ATOM     19  C   UNL     1     -12.614   8.319  20.276  0.00  0.00    -0.016 A 
ATOM     22  C   UNL     1     -11.754   7.323  20.726  0.00  0.00    +0.010 A 
ATOM     23  C   UNL     1     -13.988   8.206  20.470  0.00  0.00    +0.010 A 
ATOM     24  C   UNL     1     -12.271   6.203  21.378  0.00  0.00    +0.020 A 
ATOM     25  C   UNL     1     -14.505   7.086  21.121  0.00  0.00    +0.020 A 
ATOM     26  C   UNL     1     -13.647   6.084  21.574  0.00  0.00    +0.041 A 
ENDBRANCH  14  19
BRANCH  16  20
ATOM     20  C   UNL     1     -15.322   9.767  16.363  0.00  0.00    +0.124 C 
BRANCH  20  21
ATOM     21  C   UNL     1     -16.413   9.041  15.605  0.00  0.00    +0.168 C 
BRANCH  21   4
ATOM      4  O   UNL     1     -16.390   7.661  15.944  0.00  0.00    -0.382 OA
ATOM     27  C   UNL     1     -16.105   6.851  14.813  0.00  0.00    +0.194 C 
ENDBRANCH  21   4
ENDBRANCH  20  21
ENDBRANCH  16  20
TORSDOF 4
ENDMDL
MODEL 8
REMARK VINA RESULT:      -5.6     13.402     15.890
REMARK  Name = 7144133
REMARK  5 active torsions:
REMARK  status: ('A' for Active; 'I' for Inactive)
REMARK    1  A    between atoms: O_4  and  C_21
REMARK    2  A    between atoms: O_4  and  C_27
REMARK    3  A    between atoms: C_14  and  C_19
REMARK    4  A    between atoms: C_16  and  C_20
REMARK    5  A    between atoms: C_20  and  C_21
REMARK                            x       y       z     vdW  Elec       q    Type
REMARK                         _______ _______ _______ _____ _____    ______ ____
ROOT
ATOM      2  O   UNL     1      19.936  -5.077  21.690  0.00  0.00    -0.268 OA
ATOM      3  O   UNL     1      20.504  -0.937  24.897  0.00  0.00    -0.276 OA
ATOM      5  N   UNL     1      18.337  -1.761  25.056  0.00  0.00    -0.300 N 
ATOM      6  N   UNL     1      18.296  -4.338  23.190  0.00  0.00    -0.311 N 
ATOM      7  C   UNL     1      17.135  -2.071  22.898  0.00  0.00    +0.027 C 
ATOM      8  C   UNL     1      16.572  -3.500  24.818  0.00  0.00    +0.054 C 
ATOM      9  C   UNL     1      15.981  -2.730  23.637  0.00  0.00    +0.018 C 
ATOM     10  C   UNL     1      17.899  -1.109  23.822  0.00  0.00    +0.113 C 
ATOM     11  C   UNL     1      18.043  -3.168  22.339  0.00  0.00    +0.130 C 
ATOM     12  C   UNL     1      17.294  -2.516  25.762  0.00  0.00    +0.117 C 
ATOM     13  C   UNL     1      17.539  -4.592  24.351  0.00  0.00    +0.034 A 
ATOM     14  C   UNL     1      17.704  -5.761  25.025  0.00  0.00    +0.002 A 
ATOM     15  C   UNL     1      19.258  -5.241  22.704  0.00  0.00    +0.252 A 
ATOM     16  C   UNL     1      19.644  -1.577  25.509  0.00  0.00    +0.218 C 
ATOM     17  C   UNL     1      18.690  -6.715  24.554  0.00  0.00    +0.015 A 
ATOM     18  C   UNL     1      19.442  -6.490  23.478  0.00  0.00    +0.071 A 
ENDROOT
BRANCH  14  19
ATOM      1 CL   UNL     1      14.529  -7.053  29.928  0.00  0.00    -0.084 Cl
ATOM     19  C   UNL     1      16.919  -6.080  26.237  0.00  0.00    -0.016 A 
ATOM     22  C   UNL     1      17.321  -5.580  27.471  0.00  0.00    +0.010 A 
ATOM     23  C   UNL     1      15.783  -6.878  26.134  0.00  0.00    +0.010 A 
ATOM     24  C   UNL     1      16.580  -5.882  28.615  0.00  0.00    +0.020 A 
ATOM     25  C   UNL     1      15.043  -7.179  27.277  0.00  0.00    +0.020 A 
ATOM     26  C   UNL     1      15.442  -6.682  28.518  0.00  0.00    +0.041 A 
ENDBRANCH  14  19
BRANCH  16  20
ATOM     20  C   UNL     1      20.000  -2.220  26.825  0.00  0.00    +0.124 C 
BRANCH  20  21
ATOM     21  C   UNL     1      21.231  -3.083  26.648  0.00  0.00    +0.168 C 
BRANCH  21   4
ATOM      4  O   UNL     1      20.926  -4.178  25.794  0.00  0.00    -0.382 OA
ATOM     27  C   UNL     1      22.088  -4.671  25.145  0.00  0.00    +0.194 C 
ENDBRANCH  21   4
ENDBRANCH  20  21
ENDBRANCH  16  20
TORSDOF 4
ENDMDL
MODEL 9
REMARK VINA RESULT:      -5.6     14.737     17.380
REMARK  Name = 7144133
REMARK  5 active torsions:
REMARK  status: ('A' for Active; 'I' for Inactive)
REMARK    1  A    between atoms: O_4  and  C_21
REMARK    2  A    between atoms: O_4  and  C_27
REMARK    3  A    between atoms: C_14  and  C_19
REMARK    4  A    between atoms: C_16  and  C_20
REMARK    5  A    between atoms: C_20  and  C_21
REMARK                            x       y       z     vdW  Elec       q    Type
REMARK                         _______ _______ _______ _____ _____    ______ ____
ROOT
ATOM      2  O   UNL     1       8.966  10.141   2.006  0.00  0.00    -0.268 OA
ATOM      3  O   UNL     1      12.909   6.743   1.200  0.00  0.00    -0.276 OA
ATOM      5  N   UNL     1      12.858   7.369   3.438  0.00  0.00    -0.300 N 
ATOM      6  N   UNL     1      10.310   9.255   3.707  0.00  0.00    -0.311 N 
ATOM      7  C   UNL     1      12.805   9.820   3.876  0.00  0.00    +0.027 C 
ATOM      8  C   UNL     1      11.784   8.274   5.493  0.00  0.00    +0.054 C 
ATOM      9  C   UNL     1      12.618   9.548   5.361  0.00  0.00    +0.018 C 
ATOM     10  C   UNL     1      13.526   8.647   3.193  0.00  0.00    +0.113 C 
ATOM     11  C   UNL     1      11.433  10.087   3.255  0.00  0.00    +0.130 C 
ATOM     12  C   UNL     1      12.541   7.096   4.846  0.00  0.00    +0.117 C 
ATOM     13  C   UNL     1      10.404   8.434   4.849  0.00  0.00    +0.034 A 
ATOM     14  C   UNL     1       9.298   7.800   5.319  0.00  0.00    +0.002 A 
ATOM     15  C   UNL     1       9.108   9.427   2.999  0.00  0.00    +0.252 A 
ATOM     16  C   UNL     1      12.635   6.491   2.377  0.00  0.00    +0.218 C 
ATOM     17  C   UNL     1       8.041   7.951   4.611  0.00  0.00    +0.015 A 
ATOM     18  C   UNL     1       7.927   8.696   3.512  0.00  0.00    +0.071 A 
ENDROOT
BRANCH  14  19
ATOM      1 CL   UNL     1       9.481   4.335  10.193  0.00  0.00    -0.084 Cl
ATOM     19  C   UNL     1       9.344   6.943   6.524  0.00  0.00    -0.016 A 
ATOM     22  C   UNL     1       9.729   5.612   6.410  0.00  0.00    +0.010 A 
ATOM     23  C   UNL     1       9.000   7.476   7.764  0.00  0.00    +0.010 A 
ATOM     24  C   UNL     1       9.772   4.803   7.547  0.00  0.00    +0.020 A 
ATOM     25  C   UNL     1       9.043   6.668   8.899  0.00  0.00    +0.020 A 
ATOM     26  C   UNL     1       9.428   5.331   8.791  0.00  0.00    +0.041 A 
ENDBRANCH  14  19
BRANCH  16  20
ATOM     20  C   UNL     1      12.007   5.164   2.719  0.00  0.00    +0.124 C 
BRANCH  20  21
ATOM     21  C   UNL     1      10.523   5.215   2.422  0.00  0.00    +0.168 C 
BRANCH  21   4
ATOM      4  O   UNL     1      10.215   4.296   1.382  0.00  0.00    -0.382 OA
ATOM     27  C   UNL     1      10.044   4.957   0.137  0.00  0.00    +0.194 C 
ENDBRANCH  21   4
ENDBRANCH  20  21
ENDBRANCH  16  20
TORSDOF 4
ENDMDL
MODEL 10
REMARK VINA RESULT:      -5.5     27.923     29.834
REMARK  Name = 7144133
REMARK  5 active torsions:
REMARK  status: ('A' for Active; 'I' for Inactive)
REMARK    1  A    between atoms: O_4  and  C_21
REMARK    2  A    between atoms: O_4  and  C_27
REMARK    3  A    between atoms: C_14  and  C_19
REMARK    4  A    between atoms: C_16  and  C_20
REMARK    5  A    between atoms: C_20  and  C_21
REMARK                            x       y       z     vdW  Elec       q    Type
REMARK                         _______ _______ _______ _____ _____    ______ ____
ROOT
ATOM      2  O   UNL     1      -7.207 -14.990  17.092  0.00  0.00    -0.268 OA
ATOM      3  O   UNL     1      -9.374 -10.191  17.226  0.00  0.00    -0.276 OA
ATOM      5  N   UNL     1      -7.067 -10.005  17.012  0.00  0.00    -0.300 N 
ATOM      6  N   UNL     1      -6.018 -12.998  16.769  0.00  0.00    -0.311 N 
ATOM      7  C   UNL     1      -5.718 -11.294  18.661  0.00  0.00    +0.027 C 
ATOM      8  C   UNL     1      -4.791 -10.829  16.432  0.00  0.00    +0.054 C 
ATOM      9  C   UNL     1      -4.448 -10.910  17.919  0.00  0.00    +0.018 C 
ATOM     10  C   UNL     1      -6.822 -10.248  18.433  0.00  0.00    +0.113 C 
ATOM     11  C   UNL     1      -6.148 -12.688  18.199  0.00  0.00    +0.130 C 
ATOM     12  C   UNL     1      -5.864  -9.742  16.211  0.00  0.00    +0.117 C 
ATOM     13  C   UNL     1      -5.283 -12.176  15.892  0.00  0.00    +0.034 A 
ATOM     14  C   UNL     1      -5.061 -12.578  14.614  0.00  0.00    +0.002 A 
ATOM     15  C   UNL     1      -6.570 -14.227  16.366  0.00  0.00    +0.252 A 
ATOM     16  C   UNL     1      -8.377  -9.967  16.534  0.00  0.00    +0.218 C 
ATOM     17  C   UNL     1      -5.619 -13.838  14.161  0.00  0.00    +0.015 A 
ATOM     18  C   UNL     1      -6.343 -14.624  14.958  0.00  0.00    +0.071 A 
ENDROOT
BRANCH  14  19
ATOM      1 CL   UNL     1      -1.903  -9.259  10.766  0.00  0.00    -0.084 Cl
ATOM     19  C   UNL     1      -4.280 -11.757  13.662  0.00  0.00    -0.016 A 
ATOM     22  C   UNL     1      -4.940 -10.913  12.775  0.00  0.00    +0.010 A 
ATOM     23  C   UNL     1      -2.890 -11.835  13.661  0.00  0.00    +0.010 A 
ATOM     24  C   UNL     1      -4.204 -10.139  11.878  0.00  0.00    +0.020 A 
ATOM     25  C   UNL     1      -2.155 -11.061  12.764  0.00  0.00    +0.020 A 
ATOM     26  C   UNL     1      -2.811 -10.213  11.872  0.00  0.00    +0.041 A 
ENDBRANCH  14  19
BRANCH  16  20
ATOM     20  C   UNL     1      -8.554  -9.639  15.073  0.00  0.00    +0.124 C 
BRANCH  20  21
ATOM     21  C   UNL     1      -9.349 -10.738  14.401  0.00  0.00    +0.168 C 
BRANCH  21   4
ATOM      4  O   UNL     1      -8.495 -11.838  14.116  0.00  0.00    -0.382 OA
ATOM     27  C   UNL     1      -8.725 -12.353  12.814  0.00  0.00    +0.194 C 
ENDBRANCH  21   4
ENDBRANCH  20  21
ENDBRANCH  16  20
TORSDOF 4
ENDMDL
