MODEL 1
REMARK VINA RESULT:      -5.8      0.000      0.000
REMARK  Name = 75367741
REMARK  9 active torsions:
REMARK  status: ('A' for Active; 'I' for Inactive)
REMARK    1  A    between atoms: O_2  and  C_9
REMARK    2  A    between atoms: O_2  and  C_17
REMARK    3  A    between atoms: O_4  and  C_22
REMARK    4  A    between atoms: O_4  and  C_23
REMARK    5  A    between atoms: C_6  and  C_7
REMARK    6  A    between atoms: C_6  and  C_13
REMARK    7  A    between atoms: C_6  and  C_14
REMARK    8  A    between atoms: C_6  and  C_15
REMARK    9  A    between atoms: C_7  and  C_10
REMARK                            x       y       z     vdW  Elec       q    Type
REMARK                         _______ _______ _______ _____ _____    ______ ____
ROOT
ATOM      1  O   UNL     1     -10.643 -11.794  17.695  0.00  0.00    -0.375 OA
ATOM      3  O   UNL     1      -6.616 -11.590  20.495  0.00  0.00    -0.276 OA
ATOM      5  N   UNL     1      -7.956 -10.619  18.853  0.00  0.00    -0.296 N 
ATOM      8  C   UNL     1      -8.048  -9.851  17.606  0.00  0.00    +0.154 C 
ATOM      9  C   UNL     1      -9.395  -9.858  16.879  0.00  0.00    +0.216 C 
ATOM     10  C   UNL     1      -6.730 -10.957  19.442  0.00  0.00    +0.216 C 
ATOM     11  C   UNL     1      -9.196 -11.035  19.514  0.00  0.00    +0.136 C 
ATOM     12  C   UNL     1      -9.914 -11.264  16.593  0.00  0.00    +0.206 C 
ATOM     16  C   UNL     1      -9.840 -12.211  18.793  0.00  0.00    +0.179 C 
ENDROOT
BRANCH   9   2
ATOM      2  O   UNL     1      -9.218  -9.195  15.627  0.00  0.00    -0.485 OA
BRANCH   2  17
ATOM     17  C   UNL     1     -10.136  -8.232  15.310  0.00  0.00    +0.121 A 
ATOM     18  C   UNL     1     -11.080  -8.469  14.312  0.00  0.00    +0.049 A 
ATOM     19  C   UNL     1     -10.126  -7.011  15.985  0.00  0.00    +0.049 A 
ATOM     20  C   UNL     1     -12.016  -7.486  13.989  0.00  0.00    +0.049 A 
ATOM     21  C   UNL     1     -11.062  -6.028  15.662  0.00  0.00    +0.049 A 
ATOM     22  C   UNL     1     -12.008  -6.266  14.665  0.00  0.00    +0.120 A 
BRANCH  22   4
ATOM      4  O   UNL     1     -12.920  -5.308  14.349  0.00  0.00    -0.495 OA
ATOM     23  C   UNL     1     -12.619  -4.465  13.238  0.00  0.00    +0.277 C 
ENDBRANCH  22   4
ENDBRANCH   2  17
ENDBRANCH   9   2
BRANCH  10   7
ATOM      7  C   UNL     1      -5.487 -10.510  18.712  0.00  0.00    +0.102 C 
BRANCH   7   6
ATOM      6  C   UNL     1      -4.615 -11.688  18.243  0.00  0.00    -0.029 C 
ATOM     13  C   UNL     1      -3.654 -12.146  19.354  0.00  0.00    +0.011 C 
ATOM     14  C   UNL     1      -5.481 -12.877  17.793  0.00  0.00    +0.011 C 
ATOM     15  C   UNL     1      -3.780 -11.206  17.042  0.00  0.00    +0.011 C 
ENDBRANCH   7   6
ENDBRANCH  10   7
TORSDOF 5
ENDMDL
MODEL 2
REMARK VINA RESULT:      -5.8     27.846     29.719
REMARK  Name = 75367741
REMARK  9 active torsions:
REMARK  status: ('A' for Active; 'I' for Inactive)
REMARK    1  A    between atoms: O_2  and  C_9
REMARK    2  A    between atoms: O_2  and  C_17
REMARK    3  A    between atoms: O_4  and  C_22
REMARK    4  A    between atoms: O_4  and  C_23
REMARK    5  A    between atoms: C_6  and  C_7
REMARK    6  A    between atoms: C_6  and  C_13
REMARK    7  A    between atoms: C_6  and  C_14
REMARK    8  A    between atoms: C_6  and  C_15
REMARK    9  A    between atoms: C_7  and  C_10
REMARK                            x       y       z     vdW  Elec       q    Type
REMARK                         _______ _______ _______ _____ _____    ______ ____
ROOT
ATOM      1  O   UNL     1      10.893   7.741  22.260  0.00  0.00    -0.375 OA
ATOM      3  O   UNL     1      14.860   7.173  19.424  0.00  0.00    -0.276 OA
ATOM      5  N   UNL     1      13.496   8.578  20.689  0.00  0.00    -0.296 N 
ATOM      8  C   UNL     1      12.871   9.895  20.859  0.00  0.00    +0.154 C 
ATOM      9  C   UNL     1      11.734  10.002  21.878  0.00  0.00    +0.216 C 
ATOM     10  C   UNL     1      14.310   8.264  19.591  0.00  0.00    +0.216 C 
ATOM     11  C   UNL     1      13.270   7.557  21.715  0.00  0.00    +0.136 C 
ATOM     12  C   UNL     1      10.617   8.991  21.638  0.00  0.00    +0.206 C 
ATOM     16  C   UNL     1      11.877   6.953  21.598  0.00  0.00    +0.179 C 
ENDROOT
BRANCH   9   2
ATOM      2  O   UNL     1      11.171  11.310  21.765  0.00  0.00    -0.485 OA
BRANCH   2  17
ATOM     17  C   UNL     1      10.996  12.002  22.932  0.00  0.00    +0.121 A 
ATOM     18  C   UNL     1      11.179  11.362  24.157  0.00  0.00    +0.049 A 
ATOM     19  C   UNL     1      10.632  13.348  22.896  0.00  0.00    +0.049 A 
ATOM     20  C   UNL     1      10.999  12.067  25.347  0.00  0.00    +0.049 A 
ATOM     21  C   UNL     1      10.453  14.054  24.086  0.00  0.00    +0.049 A 
ATOM     22  C   UNL     1      10.637  13.414  25.312  0.00  0.00    +0.120 A 
BRANCH  22   4
ATOM      4  O   UNL     1      10.461  14.102  26.472  0.00  0.00    -0.495 OA
ATOM     23  C   UNL     1      11.461  15.061  26.815  0.00  0.00    +0.277 C 
ENDBRANCH  22   4
ENDBRANCH   2  17
ENDBRANCH   9   2
BRANCH  10   7
ATOM      7  C   UNL     1      14.499   9.353  18.563  0.00  0.00    +0.102 C 
BRANCH   7   6
ATOM      6  C   UNL     1      13.650   9.131  17.298  0.00  0.00    -0.029 C 
ATOM     13  C   UNL     1      14.251   8.027  16.411  0.00  0.00    +0.011 C 
ATOM     14  C   UNL     1      12.200   8.765  17.659  0.00  0.00    +0.011 C 
ATOM     15  C   UNL     1      13.640  10.449  16.502  0.00  0.00    +0.011 C 
ENDBRANCH   7   6
ENDBRANCH  10   7
TORSDOF 5
ENDMDL
MODEL 3
REMARK VINA RESULT:      -5.4     20.953     22.968
REMARK  Name = 75367741
REMARK  9 active torsions:
REMARK  status: ('A' for Active; 'I' for Inactive)
REMARK    1  A    between atoms: O_2  and  C_9
REMARK    2  A    between atoms: O_2  and  C_17
REMARK    3  A    between atoms: O_4  and  C_22
REMARK    4  A    between atoms: O_4  and  C_23
REMARK    5  A    between atoms: C_6  and  C_7
REMARK    6  A    between atoms: C_6  and  C_13
REMARK    7  A    between atoms: C_6  and  C_14
REMARK    8  A    between atoms: C_6  and  C_15
REMARK    9  A    between atoms: C_7  and  C_10
REMARK                            x       y       z     vdW  Elec       q    Type
REMARK                         _______ _______ _______ _____ _____    ______ ____
ROOT
ATOM      1  O   UNL     1     -16.899   5.891  33.297  0.00  0.00    -0.375 OA
ATOM      3  O   UNL     1     -14.398  10.097  32.903  0.00  0.00    -0.276 OA
ATOM      5  N   UNL     1     -14.457   7.780  32.655  0.00  0.00    -0.296 N 
ATOM      8  C   UNL     1     -13.759   6.493  32.754  0.00  0.00    +0.154 C 
ATOM      9  C   UNL     1     -14.620   5.227  32.721  0.00  0.00    +0.216 C 
ATOM     10  C   UNL     1     -13.845   8.997  32.986  0.00  0.00    +0.216 C 
ATOM     11  C   UNL     1     -15.842   7.792  32.179  0.00  0.00    +0.136 C 
ATOM     12  C   UNL     1     -15.730   5.230  33.768  0.00  0.00    +0.206 C 
ATOM     16  C   UNL     1     -16.803   7.311  33.257  0.00  0.00    +0.179 C 
ENDROOT
BRANCH   9   2
ATOM      2  O   UNL     1     -13.767   4.114  32.991  0.00  0.00    -0.485 OA
BRANCH   2  17
ATOM     17  C   UNL     1     -13.961   2.996  32.227  0.00  0.00    +0.121 A 
ATOM     18  C   UNL     1     -14.578   1.873  32.777  0.00  0.00    +0.049 A 
ATOM     19  C   UNL     1     -13.540   2.979  30.897  0.00  0.00    +0.049 A 
ATOM     20  C   UNL     1     -14.776   0.733  31.998  0.00  0.00    +0.049 A 
ATOM     21  C   UNL     1     -13.738   1.839  30.118  0.00  0.00    +0.049 A 
ATOM     22  C   UNL     1     -14.356   0.716  30.668  0.00  0.00    +0.120 A 
BRANCH  22   4
ATOM      4  O   UNL     1     -14.548  -0.395  29.908  0.00  0.00    -0.495 OA
ATOM     23  C   UNL     1     -13.385  -1.019  29.365  0.00  0.00    +0.277 C 
ENDBRANCH  22   4
ENDBRANCH   2  17
ENDBRANCH   9   2
BRANCH  10   7
ATOM      7  C   UNL     1     -12.421   8.922  33.479  0.00  0.00    +0.102 C 
BRANCH   7   6
ATOM      6  C   UNL     1     -11.440   9.702  32.586  0.00  0.00    -0.029 C 
ATOM     13  C   UNL     1      -9.983   9.470  33.025  0.00  0.00    +0.011 C 
ATOM     14  C   UNL     1     -11.598   9.307  31.108  0.00  0.00    +0.011 C 
ATOM     15  C   UNL     1     -11.762  11.201  32.731  0.00  0.00    +0.011 C 
ENDBRANCH   7   6
ENDBRANCH  10   7
TORSDOF 5
ENDMDL
MODEL 4
REMARK VINA RESULT:      -5.3     26.654     28.768
REMARK  Name = 75367741
REMARK  9 active torsions:
REMARK  status: ('A' for Active; 'I' for Inactive)
REMARK    1  A    between atoms: O_2  and  C_9
REMARK    2  A    between atoms: O_2  and  C_17
REMARK    3  A    between atoms: O_4  and  C_22
REMARK    4  A    between atoms: O_4  and  C_23
REMARK    5  A    between atoms: C_6  and  C_7
REMARK    6  A    between atoms: C_6  and  C_13
REMARK    7  A    between atoms: C_6  and  C_14
REMARK    8  A    between atoms: C_6  and  C_15
REMARK    9  A    between atoms: C_7  and  C_10
REMARK                            x       y       z     vdW  Elec       q    Type
REMARK                         _______ _______ _______ _____ _____    ______ ____
ROOT
ATOM      1  O   UNL     1       9.080   9.903   2.891  0.00  0.00    -0.375 OA
ATOM      3  O   UNL     1       9.083   8.607   7.625  0.00  0.00    -0.276 OA
ATOM      5  N   UNL     1       9.573   8.072   5.410  0.00  0.00    -0.296 N 
ATOM      8  C   UNL     1       9.627   7.060   4.350  0.00  0.00    +0.154 C 
ATOM      9  C   UNL     1       9.775   7.561   2.911  0.00  0.00    +0.216 C 
ATOM     10  C   UNL     1       9.129   7.784   6.708  0.00  0.00    +0.216 C 
ATOM     11  C   UNL     1      10.014   9.435   5.101  0.00  0.00    +0.136 C 
ATOM     12  C   UNL     1       8.709   8.580   2.520  0.00  0.00    +0.206 C 
ATOM     16  C   UNL     1       8.972  10.183   4.282  0.00  0.00    +0.179 C 
ENDROOT
BRANCH   9   2
ATOM      2  O   UNL     1       9.643   6.436   2.042  0.00  0.00    -0.485 OA
BRANCH   2  17
ATOM     17  C   UNL     1      10.719   5.596   1.964  0.00  0.00    +0.121 A 
ATOM     18  C   UNL     1      11.962   6.089   1.568  0.00  0.00    +0.049 A 
ATOM     19  C   UNL     1      10.574   4.244   2.278  0.00  0.00    +0.049 A 
ATOM     20  C   UNL     1      13.060   5.232   1.487  0.00  0.00    +0.049 A 
ATOM     21  C   UNL     1      11.671   3.387   2.197  0.00  0.00    +0.049 A 
ATOM     22  C   UNL     1      12.915   3.881   1.803  0.00  0.00    +0.120 A 
BRANCH  22   4
ATOM      4  O   UNL     1      13.985   3.045   1.724  0.00  0.00    -0.495 OA
ATOM     23  C   UNL     1      15.241   3.629   1.384  0.00  0.00    +0.277 C 
ENDBRANCH  22   4
ENDBRANCH   2  17
ENDBRANCH   9   2
BRANCH  10   7
ATOM      7  C   UNL     1       8.678   6.366   6.964  0.00  0.00    +0.102 C 
BRANCH   7   6
ATOM      6  C   UNL     1       9.782   5.495   7.590  0.00  0.00    -0.029 C 
ATOM     13  C   UNL     1       9.925   4.157   6.844  0.00  0.00    +0.011 C 
ATOM     14  C   UNL     1      11.135   6.227   7.592  0.00  0.00    +0.011 C 
ATOM     15  C   UNL     1       9.380   5.203   9.048  0.00  0.00    +0.011 C 
ENDBRANCH   7   6
ENDBRANCH  10   7
TORSDOF 5
ENDMDL
MODEL 5
REMARK VINA RESULT:      -5.1     22.706     24.379
REMARK  Name = 75367741
REMARK  9 active torsions:
REMARK  status: ('A' for Active; 'I' for Inactive)
REMARK    1  A    between atoms: O_2  and  C_9
REMARK    2  A    between atoms: O_2  and  C_17
REMARK    3  A    between atoms: O_4  and  C_22
REMARK    4  A    between atoms: O_4  and  C_23
REMARK    5  A    between atoms: C_6  and  C_7
REMARK    6  A    between atoms: C_6  and  C_13
REMARK    7  A    between atoms: C_6  and  C_14
REMARK    8  A    between atoms: C_6  and  C_15
REMARK    9  A    between atoms: C_7  and  C_10
REMARK                            x       y       z     vdW  Elec       q    Type
REMARK                         _______ _______ _______ _____ _____    ______ ____
ROOT
ATOM      1  O   UNL     1     -15.353   8.014  32.577  0.00  0.00    -0.375 OA
ATOM      3  O   UNL     1     -12.265  10.440  35.523  0.00  0.00    -0.276 OA
ATOM      5  N   UNL     1     -13.001   8.413  34.639  0.00  0.00    -0.296 N 
ATOM      8  C   UNL     1     -13.271   6.985  34.840  0.00  0.00    +0.154 C 
ATOM      9  C   UNL     1     -14.127   6.280  33.784  0.00  0.00    +0.216 C 
ATOM     10  C   UNL     1     -12.515   9.240  35.661  0.00  0.00    +0.216 C 
ATOM     11  C   UNL     1     -13.236   8.991  33.313  0.00  0.00    +0.136 C 
ATOM     12  C   UNL     1     -15.465   6.971  33.539  0.00  0.00    +0.206 C 
ATOM     16  C   UNL     1     -14.721   9.198  33.054  0.00  0.00    +0.179 C 
ENDROOT
BRANCH   9   2
ATOM      2  O   UNL     1     -14.398   4.959  34.254  0.00  0.00    -0.485 OA
BRANCH   2  17
ATOM     17  C   UNL     1     -14.204   3.941  33.361  0.00  0.00    +0.121 A 
ATOM     18  C   UNL     1     -13.467   4.164  32.198  0.00  0.00    +0.049 A 
ATOM     19  C   UNL     1     -14.746   2.680  33.612  0.00  0.00    +0.049 A 
ATOM     20  C   UNL     1     -13.270   3.127  31.287  0.00  0.00    +0.049 A 
ATOM     21  C   UNL     1     -14.549   1.643  32.701  0.00  0.00    +0.049 A 
ATOM     22  C   UNL     1     -13.810   1.866  31.539  0.00  0.00    +0.120 A 
BRANCH  22   4
ATOM      4  O   UNL     1     -13.618   0.854  30.650  0.00  0.00    -0.495 OA
ATOM     23  C   UNL     1     -14.721  -0.021  30.414  0.00  0.00    +0.277 C 
ENDBRANCH  22   4
ENDBRANCH   2  17
ENDBRANCH   9   2
BRANCH  10   7
ATOM      7  C   UNL     1     -12.302   8.591  37.007  0.00  0.00    +0.102 C 
BRANCH   7   6
ATOM      6  C   UNL     1     -10.819   8.544  37.416  0.00  0.00    -0.029 C 
ATOM     13  C   UNL     1      -9.900   8.822  36.214  0.00  0.00    +0.011 C 
ATOM     14  C   UNL     1     -10.518   9.556  38.535  0.00  0.00    +0.011 C 
ATOM     15  C   UNL     1     -10.522   7.128  37.943  0.00  0.00    +0.011 C 
ENDBRANCH   7   6
ENDBRANCH  10   7
TORSDOF 5
ENDMDL
MODEL 6
REMARK VINA RESULT:      -5.1      5.746      7.731
REMARK  Name = 75367741
REMARK  9 active torsions:
REMARK  status: ('A' for Active; 'I' for Inactive)
REMARK    1  A    between atoms: O_2  and  C_9
REMARK    2  A    between atoms: O_2  and  C_17
REMARK    3  A    between atoms: O_4  and  C_22
REMARK    4  A    between atoms: O_4  and  C_23
REMARK    5  A    between atoms: C_6  and  C_7
REMARK    6  A    between atoms: C_6  and  C_13
REMARK    7  A    between atoms: C_6  and  C_14
REMARK    8  A    between atoms: C_6  and  C_15
REMARK    9  A    between atoms: C_7  and  C_10
REMARK                            x       y       z     vdW  Elec       q    Type
REMARK                         _______ _______ _______ _____ _____    ______ ____
ROOT
ATOM      1  O   UNL     1      -1.923 -14.763  13.418  0.00  0.00    -0.375 OA
ATOM      3  O   UNL     1      -4.861 -13.781  17.226  0.00  0.00    -0.276 OA
ATOM      5  N   UNL     1      -4.033 -13.169  15.134  0.00  0.00    -0.296 N 
ATOM      8  C   UNL     1      -3.594 -12.104  14.225  0.00  0.00    +0.154 C 
ATOM      9  C   UNL     1      -2.806 -12.528  12.983  0.00  0.00    +0.216 C 
ATOM     10  C   UNL     1      -4.473 -12.912  16.440  0.00  0.00    +0.216 C 
ATOM     11  C   UNL     1      -4.024 -14.552  14.651  0.00  0.00    +0.136 C 
ATOM     12  C   UNL     1      -1.586 -13.385  13.310  0.00  0.00    +0.206 C 
ATOM     16  C   UNL     1      -2.610 -15.116  14.613  0.00  0.00    +0.179 C 
ENDROOT
BRANCH   9   2
ATOM      2  O   UNL     1      -2.344 -11.341  12.335  0.00  0.00    -0.485 OA
BRANCH   2  17
ATOM     17  C   UNL     1      -3.006 -10.970  11.198  0.00  0.00    +0.121 A 
ATOM     18  C   UNL     1      -3.692 -11.924  10.447  0.00  0.00    +0.049 A 
ATOM     19  C   UNL     1      -2.993  -9.636  10.787  0.00  0.00    +0.049 A 
ATOM     20  C   UNL     1      -4.367 -11.544   9.286  0.00  0.00    +0.049 A 
ATOM     21  C   UNL     1      -3.668  -9.257   9.626  0.00  0.00    +0.049 A 
ATOM     22  C   UNL     1      -4.355 -10.211   8.876  0.00  0.00    +0.120 A 
BRANCH  22   4
ATOM      4  O   UNL     1      -5.013  -9.842   7.744  0.00  0.00    -0.495 OA
ATOM     23  C   UNL     1      -6.337  -9.335   7.899  0.00  0.00    +0.277 C 
ENDBRANCH  22   4
ENDBRANCH   2  17
ENDBRANCH   9   2
BRANCH  10   7
ATOM      7  C   UNL     1      -4.452 -11.470  16.886  0.00  0.00    +0.102 C 
BRANCH   7   6
ATOM      6  C   UNL     1      -5.862 -10.867  17.017  0.00  0.00    -0.029 C 
ATOM     13  C   UNL     1      -6.241 -10.655  18.493  0.00  0.00    +0.011 C 
ATOM     14  C   UNL     1      -5.968  -9.530  16.264  0.00  0.00    +0.011 C 
ATOM     15  C   UNL     1      -6.859 -11.862  16.394  0.00  0.00    +0.011 C 
ENDBRANCH   7   6
ENDBRANCH  10   7
TORSDOF 5
ENDMDL
MODEL 7
REMARK VINA RESULT:      -5.0     21.163     22.989
REMARK  Name = 75367741
REMARK  9 active torsions:
REMARK  status: ('A' for Active; 'I' for Inactive)
REMARK    1  A    between atoms: O_2  and  C_9
REMARK    2  A    between atoms: O_2  and  C_17
REMARK    3  A    between atoms: O_4  and  C_22
REMARK    4  A    between atoms: O_4  and  C_23
REMARK    5  A    between atoms: C_6  and  C_7
REMARK    6  A    between atoms: C_6  and  C_13
REMARK    7  A    between atoms: C_6  and  C_14
REMARK    8  A    between atoms: C_6  and  C_15
REMARK    9  A    between atoms: C_7  and  C_10
REMARK                            x       y       z     vdW  Elec       q    Type
REMARK                         _______ _______ _______ _____ _____    ______ ____
ROOT
ATOM      1  O   UNL     1     -14.248   6.133  35.088  0.00  0.00    -0.375 OA
ATOM      3  O   UNL     1     -15.389   1.922  32.838  0.00  0.00    -0.276 OA
ATOM      5  N   UNL     1     -14.614   4.115  32.693  0.00  0.00    -0.296 N 
ATOM      8  C   UNL     1     -14.571   5.380  31.951  0.00  0.00    +0.154 C 
ATOM      9  C   UNL     1     -14.060   6.613  32.701  0.00  0.00    +0.216 C 
ATOM     10  C   UNL     1     -15.341   3.003  32.246  0.00  0.00    +0.216 C 
ATOM     11  C   UNL     1     -13.856   4.009  33.942  0.00  0.00    +0.136 C 
ATOM     12  C   UNL     1     -14.805   6.872  34.007  0.00  0.00    +0.206 C 
ATOM     16  C   UNL     1     -14.554   4.742  35.078  0.00  0.00    +0.179 C 
ENDROOT
BRANCH   9   2
ATOM      2  O   UNL     1     -14.254   7.748  31.855  0.00  0.00    -0.485 OA
BRANCH   2  17
ATOM     17  C   UNL     1     -13.243   8.669  31.829  0.00  0.00    +0.121 A 
ATOM     18  C   UNL     1     -11.945   8.291  32.169  0.00  0.00    +0.049 A 
ATOM     19  C   UNL     1     -13.512   9.989  31.463  0.00  0.00    +0.049 A 
ATOM     20  C   UNL     1     -10.915   9.231  32.143  0.00  0.00    +0.049 A 
ATOM     21  C   UNL     1     -12.482  10.929  31.437  0.00  0.00    +0.049 A 
ATOM     22  C   UNL     1     -11.183  10.550  31.776  0.00  0.00    +0.120 A 
BRANCH  22   4
ATOM      4  O   UNL     1     -10.178  11.466  31.751  0.00  0.00    -0.495 OA
ATOM     23  C   UNL     1      -9.192  11.378  32.779  0.00  0.00    +0.277 C 
ENDBRANCH  22   4
ENDBRANCH   2  17
ENDBRANCH   9   2
BRANCH  10   7
ATOM      7  C   UNL     1     -16.110   3.174  30.959  0.00  0.00    +0.102 C 
BRANCH   7   6
ATOM      6  C   UNL     1     -15.481   2.406  29.783  0.00  0.00    -0.029 C 
ATOM     13  C   UNL     1     -16.132   1.022  29.611  0.00  0.00    +0.011 C 
ATOM     14  C   UNL     1     -15.606   3.197  28.470  0.00  0.00    +0.011 C 
ATOM     15  C   UNL     1     -13.986   2.208  30.096  0.00  0.00    +0.011 C 
ENDBRANCH   7   6
ENDBRANCH  10   7
TORSDOF 5
ENDMDL
MODEL 8
REMARK VINA RESULT:      -5.0      4.646      7.548
REMARK  Name = 75367741
REMARK  9 active torsions:
REMARK  status: ('A' for Active; 'I' for Inactive)
REMARK    1  A    between atoms: O_2  and  C_9
REMARK    2  A    between atoms: O_2  and  C_17
REMARK    3  A    between atoms: O_4  and  C_22
REMARK    4  A    between atoms: O_4  and  C_23
REMARK    5  A    between atoms: C_6  and  C_7
REMARK    6  A    between atoms: C_6  and  C_13
REMARK    7  A    between atoms: C_6  and  C_14
REMARK    8  A    between atoms: C_6  and  C_15
REMARK    9  A    between atoms: C_7  and  C_10
REMARK                            x       y       z     vdW  Elec       q    Type
REMARK                         _______ _______ _______ _____ _____    ______ ____
ROOT
ATOM      1  O   UNL     1      -4.099 -13.583  15.758  0.00  0.00    -0.375 OA
ATOM      3  O   UNL     1      -3.996 -12.624  10.945  0.00  0.00    -0.276 OA
ATOM      5  N   UNL     1      -3.850 -11.847  13.138  0.00  0.00    -0.296 N 
ATOM      8  C   UNL     1      -4.141 -10.790  14.112  0.00  0.00    +0.154 C 
ATOM      9  C   UNL     1      -4.002 -11.148  15.594  0.00  0.00    +0.216 C 
ATOM     10  C   UNL     1      -4.235 -11.761  11.793  0.00  0.00    +0.216 C 
ATOM     11  C   UNL     1      -3.117 -13.033  13.587  0.00  0.00    +0.136 C 
ATOM     12  C   UNL     1      -4.816 -12.376  15.992  0.00  0.00    +0.206 C 
ATOM     16  C   UNL     1      -4.012 -13.967  14.390  0.00  0.00    +0.179 C 
ENDROOT
BRANCH   9   2
ATOM      2  O   UNL     1      -4.483 -10.040  16.357  0.00  0.00    -0.485 OA
BRANCH   2  17
ATOM     17  C   UNL     1      -5.470 -10.306  17.264  0.00  0.00    +0.121 A 
ATOM     18  C   UNL     1      -5.141 -10.750  18.545  0.00  0.00    +0.049 A 
ATOM     19  C   UNL     1      -6.809 -10.136  16.909  0.00  0.00    +0.049 A 
ATOM     20  C   UNL     1      -6.149 -11.022  19.470  0.00  0.00    +0.049 A 
ATOM     21  C   UNL     1      -7.817 -10.408  17.834  0.00  0.00    +0.049 A 
ATOM     22  C   UNL     1      -7.486 -10.851  19.115  0.00  0.00    +0.120 A 
BRANCH  22   4
ATOM      4  O   UNL     1      -8.469 -11.117  20.017  0.00  0.00    -0.495 OA
ATOM     23  C   UNL     1      -9.802 -10.765  19.648  0.00  0.00    +0.277 C 
ENDBRANCH  22   4
ENDBRANCH   2  17
ENDBRANCH   9   2
BRANCH  10   7
ATOM      7  C   UNL     1      -4.995 -10.520  11.390  0.00  0.00    +0.102 C 
BRANCH   7   6
ATOM      6  C   UNL     1      -4.241  -9.671  10.351  0.00  0.00    -0.029 C 
ATOM     13  C   UNL     1      -2.744  -9.575  10.691  0.00  0.00    +0.011 C 
ATOM     14  C   UNL     1      -4.408 -10.247   8.934  0.00  0.00    +0.011 C 
ATOM     15  C   UNL     1      -4.842  -8.253  10.378  0.00  0.00    +0.011 C 
ENDBRANCH   7   6
ENDBRANCH  10   7
TORSDOF 5
ENDMDL
MODEL 9
REMARK VINA RESULT:      -5.0     18.463     22.024
REMARK  Name = 75367741
REMARK  9 active torsions:
REMARK  status: ('A' for Active; 'I' for Inactive)
REMARK    1  A    between atoms: O_2  and  C_9
REMARK    2  A    between atoms: O_2  and  C_17
REMARK    3  A    between atoms: O_4  and  C_22
REMARK    4  A    between atoms: O_4  and  C_23
REMARK    5  A    between atoms: C_6  and  C_7
REMARK    6  A    between atoms: C_6  and  C_13
REMARK    7  A    between atoms: C_6  and  C_14
REMARK    8  A    between atoms: C_6  and  C_15
REMARK    9  A    between atoms: C_7  and  C_10
REMARK                            x       y       z     vdW  Elec       q    Type
REMARK                         _______ _______ _______ _____ _____    ______ ____
ROOT
ATOM      1  O   UNL     1     -15.691  10.106  24.124  0.00  0.00    -0.375 OA
ATOM      3  O   UNL     1     -14.452   7.987  19.873  0.00  0.00    -0.276 OA
ATOM      5  N   UNL     1     -13.791   9.047  21.841  0.00  0.00    -0.296 N 
ATOM      8  C   UNL     1     -12.878   9.976  22.516  0.00  0.00    +0.154 C 
ATOM      9  C   UNL     1     -13.286  10.468  23.908  0.00  0.00    +0.216 C 
ATOM     10  C   UNL     1     -13.709   8.771  20.469  0.00  0.00    +0.216 C 
ATOM     11  C   UNL     1     -14.820   8.371  22.637  0.00  0.00    +0.136 C 
ATOM     12  C   UNL     1     -14.679  11.089  23.939  0.00  0.00    +0.206 C 
ATOM     16  C   UNL     1     -15.967   9.313  22.974  0.00  0.00    +0.179 C 
ENDROOT
BRANCH   9   2
ATOM      2  O   UNL     1     -12.351  11.473  24.305  0.00  0.00    -0.485 OA
BRANCH   2  17
ATOM     17  C   UNL     1     -11.975  11.472  25.620  0.00  0.00    +0.121 A 
ATOM     18  C   UNL     1     -11.202  10.426  26.124  0.00  0.00    +0.049 A 
ATOM     19  C   UNL     1     -12.367  12.516  26.458  0.00  0.00    +0.049 A 
ATOM     20  C   UNL     1     -10.820  10.425  27.465  0.00  0.00    +0.049 A 
ATOM     21  C   UNL     1     -11.985  12.515  27.799  0.00  0.00    +0.049 A 
ATOM     22  C   UNL     1     -11.210  11.470  28.303  0.00  0.00    +0.120 A 
BRANCH  22   4
ATOM      4  O   UNL     1     -10.838  11.468  29.611  0.00  0.00    -0.495 OA
ATOM     23  C   UNL     1     -11.820  11.067  30.565  0.00  0.00    +0.277 C 
ENDBRANCH  22   4
ENDBRANCH   2  17
ENDBRANCH   9   2
BRANCH  10   7
ATOM      7  C   UNL     1     -12.637   9.503  19.700  0.00  0.00    +0.102 C 
BRANCH   7   6
ATOM      6  C   UNL     1     -11.443   8.601  19.338  0.00  0.00    -0.029 C 
ATOM     13  C   UNL     1     -10.130   9.402  19.307  0.00  0.00    +0.011 C 
ATOM     14  C   UNL     1     -11.308   7.433  20.329  0.00  0.00    +0.011 C 
ATOM     15  C   UNL     1     -11.699   8.025  17.933  0.00  0.00    +0.011 C 
ENDBRANCH   7   6
ENDBRANCH  10   7
TORSDOF 5
ENDMDL
MODEL 10
REMARK VINA RESULT:      -4.9     26.252     28.064
REMARK  Name = 75367741
REMARK  9 active torsions:
REMARK  status: ('A' for Active; 'I' for Inactive)
REMARK    1  A    between atoms: O_2  and  C_9
REMARK    2  A    between atoms: O_2  and  C_17
REMARK    3  A    between atoms: O_4  and  C_22
REMARK    4  A    between atoms: O_4  and  C_23
REMARK    5  A    between atoms: C_6  and  C_7
REMARK    6  A    between atoms: C_6  and  C_13
REMARK    7  A    between atoms: C_6  and  C_14
REMARK    8  A    between atoms: C_6  and  C_15
REMARK    9  A    between atoms: C_7  and  C_10
REMARK                            x       y       z     vdW  Elec       q    Type
REMARK                         _______ _______ _______ _____ _____    ______ ____
ROOT
ATOM      1  O   UNL     1      11.792   7.823   2.017  0.00  0.00    -0.375 OA
ATOM      3  O   UNL     1      10.096   4.291   4.974  0.00  0.00    -0.276 OA
ATOM      5  N   UNL     1       9.718   6.284   3.826  0.00  0.00    -0.296 N 
ATOM      8  C   UNL     1       9.087   7.608   3.792  0.00  0.00    +0.154 C 
ATOM      9  C   UNL     1       9.587   8.594   2.733  0.00  0.00    +0.216 C 
ATOM     10  C   UNL     1       9.590   5.415   4.918  0.00  0.00    +0.216 C 
ATOM     11  C   UNL     1      10.501   5.851   2.666  0.00  0.00    +0.136 C 
ATOM     12  C   UNL     1      11.098   8.806   2.778  0.00  0.00    +0.206 C 
ATOM     16  C   UNL     1      11.859   6.538   2.625  0.00  0.00    +0.179 C 
ENDROOT
BRANCH   9   2
ATOM      2  O   UNL     1       8.962   9.854   2.981  0.00  0.00    -0.485 OA
BRANCH   2  17
ATOM     17  C   UNL     1       7.609   9.913   2.788  0.00  0.00    +0.121 A 
ATOM     18  C   UNL     1       6.775  10.341   3.820  0.00  0.00    +0.049 A 
ATOM     19  C   UNL     1       7.064   9.542   1.559  0.00  0.00    +0.049 A 
ATOM     20  C   UNL     1       5.395  10.400   3.623  0.00  0.00    +0.049 A 
ATOM     21  C   UNL     1       5.684   9.601   1.362  0.00  0.00    +0.049 A 
ATOM     22  C   UNL     1       4.850  10.031   2.394  0.00  0.00    +0.120 A 
BRANCH  22   4
ATOM      4  O   UNL     1       3.504  10.088   2.202  0.00  0.00    -0.495 OA
ATOM     23  C   UNL     1       2.853  11.313   2.535  0.00  0.00    +0.277 C 
ENDBRANCH  22   4
ENDBRANCH   2  17
ENDBRANCH   9   2
BRANCH  10   7
ATOM      7  C   UNL     1       8.779   5.919   6.087  0.00  0.00    +0.102 C 
BRANCH   7   6
ATOM      6  C   UNL     1       9.647   6.250   7.315  0.00  0.00    -0.029 C 
ATOM     13  C   UNL     1       9.747   5.045   8.266  0.00  0.00    +0.011 C 
ATOM     14  C   UNL     1      11.060   6.689   6.895  0.00  0.00    +0.011 C 
ATOM     15  C   UNL     1       8.974   7.413   8.066  0.00  0.00    +0.011 C 
ENDBRANCH   7   6
ENDBRANCH  10   7
TORSDOF 5
ENDMDL
