MODEL 1
REMARK VINA RESULT:      -6.6      0.000      0.000
REMARK  Name = 28962709
REMARK  12 active torsions:
REMARK  status: ('A' for Active; 'I' for Inactive)
REMARK    1  A    between atoms: O_1  and  C_9
REMARK    2  A    between atoms: N_4  and  C_13
REMARK    3  A    between atoms: N_5  and  C_27
REMARK    4  A    between atoms: N_5  and  C_28
REMARK    5  A    between atoms: C_6  and  C_16
REMARK    6  A    between atoms: C_8  and  C_18
REMARK    7  A    between atoms: C_12  and  C_17
REMARK    8  A    between atoms: C_17  and  C_19
REMARK    9  A    between atoms: C_17  and  C_20
REMARK   10  A    between atoms: C_21  and  C_22
REMARK   11  A    between atoms: C_27  and  C_30
REMARK   12  A    between atoms: C_28  and  C_31
REMARK                            x       y       z     vdW  Elec       q    Type
REMARK                         _______ _______ _______ _____ _____    ______ ____
ROOT
ATOM      6  C   UNL     1      -3.605 -10.312  11.244  0.00  0.00    -0.027 C 
ATOM      7  C   UNL     1      -4.931  -9.886  11.960  0.00  0.00    +0.028 C 
ATOM      8  C   UNL     1      -5.179 -10.760  13.241  0.00  0.00    +0.012 C 
ATOM      9  C   UNL     1      -6.117  -9.819  10.955  0.00  0.00    +0.122 C 
ATOM     10  C   UNL     1      -3.332  -9.360  10.055  0.00  0.00    +0.007 C 
ATOM     11  C   UNL     1      -2.429 -10.172  12.238  0.00  0.00    +0.009 C 
ATOM     12  C   UNL     1      -5.799  -8.950   9.716  0.00  0.00    +0.029 C 
ATOM     13  C   UNL     1      -3.958 -10.672  14.198  0.00  0.00    +0.076 C 
ATOM     14  C   UNL     1      -4.476  -9.323   9.050  0.00  0.00    +0.007 C 
ATOM     15  C   UNL     1      -2.626 -10.978  13.515  0.00  0.00    +0.023 C 
ATOM     16  C   UNL     1      -3.656 -11.767  10.715  0.00  0.00    +0.011 C 
ATOM     18  C   UNL     1      -6.455 -10.376  14.011  0.00  0.00    +0.010 C 
ENDROOT
BRANCH  13   4
ATOM      3  O   UNL     1      -4.253  -9.924  16.988  0.00  0.00    -0.276 OA
ATOM      4  N   UNL     1      -4.103 -11.556  15.336  0.00  0.00    -0.312 N 
ATOM     21  C   UNL     1      -4.238 -11.100  16.634  0.00  0.00    +0.216 C 
ATOM     32  H   UNL     1      -4.051 -12.557  15.162  0.00  0.00    +0.149 HD
BRANCH  21  22
ATOM     22  C   UNL     1      -4.395 -12.226  17.616  0.00  0.00    +0.075 C 
ATOM     23  C   UNL     1      -4.462 -11.698  19.051  0.00  0.00    +0.013 C 
ATOM     24  C   UNL     1      -5.607 -13.083  17.243  0.00  0.00    +0.013 C 
ATOM     25  C   UNL     1      -5.810 -11.072  19.407  0.00  0.00    +0.001 C 
ATOM     26  C   UNL     1      -6.937 -12.428  17.607  0.00  0.00    +0.001 C 
ATOM     29  C   UNL     1      -6.973 -11.998  19.069  0.00  0.00    +0.000 C 
ENDBRANCH  21  22
ENDBRANCH  13   4
BRANCH   9   1
ATOM      1  O   UNL     1      -7.249  -9.226  11.592  0.00  0.00    -0.391 OA
ATOM     33  H   UNL     1      -7.715  -8.682  10.933  0.00  0.00    +0.210 HD
ENDBRANCH   9   1
BRANCH  12  17
ATOM     17  C   UNL     1      -6.928  -9.003   8.679  0.00  0.00    +0.078 C 
ATOM     19  C   UNL     1      -6.344  -9.344   7.308  0.00  0.00    +0.017 C 
BRANCH  17  20
ATOM      2  O   UNL     1      -7.022  -6.620   8.463  0.00  0.00    -0.275 OA
ATOM      5  N   UNL     1      -9.048  -7.670   8.844  0.00  0.00    -0.302 N 
ATOM     20  C   UNL     1      -7.663  -7.661   8.645  0.00  0.00    +0.219 C 
BRANCH   5  27
ATOM     27  C   UNL     1      -9.776  -6.405   8.839  0.00  0.00    +0.104 C 
ATOM     30  C   UNL     1     -10.470  -6.172   7.513  0.00  0.00    +0.024 C 
ENDBRANCH   5  27
BRANCH   5  28
ATOM     28  C   UNL     1      -9.885  -8.855   9.030  0.00  0.00    +0.104 C 
ATOM     31  C   UNL     1     -10.646  -8.797  10.338  0.00  0.00    +0.024 C 
ENDBRANCH   5  28
ENDBRANCH  17  20
ENDBRANCH  12  17
TORSDOF 7
ENDMDL
MODEL 2
REMARK VINA RESULT:      -6.5      1.680      8.637
REMARK  Name = 28962709
REMARK  12 active torsions:
REMARK  status: ('A' for Active; 'I' for Inactive)
REMARK    1  A    between atoms: O_1  and  C_9
REMARK    2  A    between atoms: N_4  and  C_13
REMARK    3  A    between atoms: N_5  and  C_27
REMARK    4  A    between atoms: N_5  and  C_28
REMARK    5  A    between atoms: C_6  and  C_16
REMARK    6  A    between atoms: C_8  and  C_18
REMARK    7  A    between atoms: C_12  and  C_17
REMARK    8  A    between atoms: C_17  and  C_19
REMARK    9  A    between atoms: C_17  and  C_20
REMARK   10  A    between atoms: C_21  and  C_22
REMARK   11  A    between atoms: C_27  and  C_30
REMARK   12  A    between atoms: C_28  and  C_31
REMARK                            x       y       z     vdW  Elec       q    Type
REMARK                         _______ _______ _______ _____ _____    ______ ____
ROOT
ATOM      6  C   UNL     1      -3.755 -10.546  10.382  0.00  0.00    -0.027 C 
ATOM      7  C   UNL     1      -5.089 -10.205  11.127  0.00  0.00    +0.028 C 
ATOM      8  C   UNL     1      -5.871  -9.064  10.382  0.00  0.00    +0.012 C 
ATOM      9  C   UNL     1      -4.840  -9.964  12.644  0.00  0.00    +0.122 C 
ATOM     10  C   UNL     1      -3.069 -11.746  11.076  0.00  0.00    +0.007 C 
ATOM     11  C   UNL     1      -4.084 -10.967   8.930  0.00  0.00    +0.009 C 
ATOM     12  C   UNL     1      -4.060 -11.121  13.311  0.00  0.00    +0.029 C 
ATOM     13  C   UNL     1      -6.128  -9.466   8.903  0.00  0.00    +0.076 C 
ATOM     14  C   UNL     1      -2.788 -11.497  12.552  0.00  0.00    +0.007 C 
ATOM     15  C   UNL     1      -4.866  -9.909   8.164  0.00  0.00    +0.023 C 
ATOM     16  C   UNL     1      -2.767  -9.353  10.356  0.00  0.00    +0.011 C 
ATOM     18  C   UNL     1      -7.208  -8.697  11.047  0.00  0.00    +0.010 C 
ENDROOT
BRANCH  13   4
ATOM      3  O   UNL     1      -8.473  -9.622   7.197  0.00  0.00    -0.276 OA
ATOM      4  N   UNL     1      -6.745  -8.391   8.154  0.00  0.00    -0.312 N 
ATOM     21  C   UNL     1      -7.867  -8.567   7.365  0.00  0.00    +0.216 C 
ATOM     32  H   UNL     1      -6.291  -7.481   8.179  0.00  0.00    +0.149 HD
BRANCH  21  22
ATOM     22  C   UNL     1      -8.311  -7.285   6.720  0.00  0.00    +0.075 C 
ATOM     23  C   UNL     1      -9.619  -7.483   5.951  0.00  0.00    +0.013 C 
ATOM     24  C   UNL     1      -8.402  -6.174   7.768  0.00  0.00    +0.013 C 
ATOM     25  C   UNL     1     -10.850  -7.566   6.854  0.00  0.00    +0.001 C 
ATOM     26  C   UNL     1      -9.639  -6.289   8.656  0.00  0.00    +0.001 C 
ATOM     29  C   UNL     1     -10.916  -6.399   7.833  0.00  0.00    +0.000 C 
ENDBRANCH  21  22
ENDBRANCH  13   4
BRANCH   9   1
ATOM      1  O   UNL     1      -6.093  -9.870  13.324  0.00  0.00    -0.391 OA
ATOM     33  H   UNL     1      -6.596  -9.135  12.930  0.00  0.00    +0.210 HD
ENDBRANCH   9   1
BRANCH  12  17
ATOM     17  C   UNL     1      -3.712 -10.806  14.771  0.00  0.00    +0.078 C 
ATOM     19  C   UNL     1      -2.195 -10.865  14.956  0.00  0.00    +0.017 C 
BRANCH  17  20
ATOM      2  O   UNL     1      -4.168 -13.005  15.601  0.00  0.00    -0.275 OA
ATOM      5  N   UNL     1      -5.345 -11.289  16.614  0.00  0.00    -0.302 N 
ATOM     20  C   UNL     1      -4.418 -11.798  15.697  0.00  0.00    +0.219 C 
BRANCH   5  27
ATOM     27  C   UNL     1      -6.051 -12.211  17.497  0.00  0.00    +0.104 C 
ATOM     30  C   UNL     1      -5.462 -12.203  18.892  0.00  0.00    +0.024 C 
ENDBRANCH   5  27
BRANCH   5  28
ATOM     28  C   UNL     1      -5.672  -9.879  16.816  0.00  0.00    +0.104 C 
ATOM     31  C   UNL     1      -7.164  -9.635  16.720  0.00  0.00    +0.024 C 
ENDBRANCH   5  28
ENDBRANCH  17  20
ENDBRANCH  12  17
TORSDOF 7
ENDMDL
MODEL 3
REMARK VINA RESULT:      -6.4     23.544     26.213
REMARK  Name = 28962709
REMARK  12 active torsions:
REMARK  status: ('A' for Active; 'I' for Inactive)
REMARK    1  A    between atoms: O_1  and  C_9
REMARK    2  A    between atoms: N_4  and  C_13
REMARK    3  A    between atoms: N_5  and  C_27
REMARK    4  A    between atoms: N_5  and  C_28
REMARK    5  A    between atoms: C_6  and  C_16
REMARK    6  A    between atoms: C_8  and  C_18
REMARK    7  A    between atoms: C_12  and  C_17
REMARK    8  A    between atoms: C_17  and  C_19
REMARK    9  A    between atoms: C_17  and  C_20
REMARK   10  A    between atoms: C_21  and  C_22
REMARK   11  A    between atoms: C_27  and  C_30
REMARK   12  A    between atoms: C_28  and  C_31
REMARK                            x       y       z     vdW  Elec       q    Type
REMARK                         _______ _______ _______ _____ _____    ______ ____
ROOT
ATOM      6  C   UNL     1       9.506   6.129   6.088  0.00  0.00    -0.027 C 
ATOM      7  C   UNL     1      10.558   7.186   5.611  0.00  0.00    +0.028 C 
ATOM      8  C   UNL     1      10.131   8.635   6.043  0.00  0.00    +0.012 C 
ATOM      9  C   UNL     1      10.892   7.009   4.102  0.00  0.00    +0.122 C 
ATOM     10  C   UNL     1      10.013   4.707   5.748  0.00  0.00    +0.007 C 
ATOM     11  C   UNL     1       9.361   6.222   7.624  0.00  0.00    +0.009 C 
ATOM     12  C   UNL     1      11.296   5.559   3.748  0.00  0.00    +0.029 C 
ATOM     13  C   UNL     1       9.913   8.696   7.580  0.00  0.00    +0.076 C 
ATOM     14  C   UNL     1      10.302   4.519   4.264  0.00  0.00    +0.007 C 
ATOM     15  C   UNL     1       8.972   7.613   8.105  0.00  0.00    +0.023 C 
ATOM     16  C   UNL     1       8.119   6.334   5.429  0.00  0.00    +0.011 C 
ATOM     18  C   UNL     1      11.137   9.723   5.630  0.00  0.00    +0.010 C 
ENDROOT
BRANCH  13   4
ATOM      3  O   UNL     1      11.314  10.734   9.103  0.00  0.00    -0.276 OA
ATOM      4  N   UNL     1       9.406   9.987   7.999  0.00  0.00    -0.312 N 
ATOM     21  C   UNL     1      10.156  10.893   8.726  0.00  0.00    +0.216 C 
ATOM     32  H   UNL     1       8.435  10.201   7.785  0.00  0.00    +0.149 HD
BRANCH  21  22
ATOM     22  C   UNL     1       9.398  12.159   9.006  0.00  0.00    +0.075 C 
ATOM     23  C   UNL     1       8.443  11.977  10.188  0.00  0.00    +0.013 C 
ATOM     24  C   UNL     1      10.372  13.322   9.205  0.00  0.00    +0.013 C 
ATOM     25  C   UNL     1       9.146  11.985  11.545  0.00  0.00    +0.001 C 
ATOM     26  C   UNL     1      11.061  13.299  10.567  0.00  0.00    +0.001 C 
ATOM     29  C   UNL     1      10.054  13.200  11.707  0.00  0.00    +0.000 C 
ENDBRANCH  21  22
ENDBRANCH  13   4
BRANCH   9   1
ATOM      1  O   UNL     1      12.001   7.839   3.757  0.00  0.00    -0.391 OA
ATOM     33  H   UNL     1      12.461   7.430   3.003  0.00  0.00    +0.210 HD
ENDBRANCH   9   1
BRANCH  12  17
ATOM     17  C   UNL     1      11.493   5.375   2.238  0.00  0.00    +0.078 C 
ATOM     19  C   UNL     1      10.164   4.970   1.597  0.00  0.00    +0.017 C 
BRANCH  17  20
ATOM      2  O   UNL     1      12.274   3.121   2.031  0.00  0.00    -0.275 OA
ATOM      5  N   UNL     1      13.871   4.766   1.717  0.00  0.00    -0.302 N 
ATOM     20  C   UNL     1      12.571   4.319   1.981  0.00  0.00    +0.219 C 
BRANCH   5  27
ATOM     27  C   UNL     1      14.927   3.785   1.488  0.00  0.00    +0.104 C 
ATOM     30  C   UNL     1      15.709   4.096   0.230  0.00  0.00    +0.024 C 
ENDBRANCH   5  27
BRANCH   5  28
ATOM     28  C   UNL     1      14.298   6.159   1.605  0.00  0.00    +0.104 C 
ATOM     31  C   UNL     1      15.011   6.624   2.858  0.00  0.00    +0.024 C 
ENDBRANCH   5  28
ENDBRANCH  17  20
ENDBRANCH  12  17
TORSDOF 7
ENDMDL
MODEL 4
REMARK VINA RESULT:      -6.4     29.584     32.560
REMARK  Name = 28962709
REMARK  12 active torsions:
REMARK  status: ('A' for Active; 'I' for Inactive)
REMARK    1  A    between atoms: O_1  and  C_9
REMARK    2  A    between atoms: N_4  and  C_13
REMARK    3  A    between atoms: N_5  and  C_27
REMARK    4  A    between atoms: N_5  and  C_28
REMARK    5  A    between atoms: C_6  and  C_16
REMARK    6  A    between atoms: C_8  and  C_18
REMARK    7  A    between atoms: C_12  and  C_17
REMARK    8  A    between atoms: C_17  and  C_19
REMARK    9  A    between atoms: C_17  and  C_20
REMARK   10  A    between atoms: C_21  and  C_22
REMARK   11  A    between atoms: C_27  and  C_30
REMARK   12  A    between atoms: C_28  and  C_31
REMARK                            x       y       z     vdW  Elec       q    Type
REMARK                         _______ _______ _______ _____ _____    ______ ____
ROOT
ATOM      6  C   UNL     1      20.196   7.842  21.918  0.00  0.00    -0.027 C 
ATOM      7  C   UNL     1      20.056   6.785  20.772  0.00  0.00    +0.028 C 
ATOM      8  C   UNL     1      18.580   6.256  20.676  0.00  0.00    +0.012 C 
ATOM      9  C   UNL     1      21.154   5.689  20.879  0.00  0.00    +0.122 C 
ATOM     10  C   UNL     1      21.629   8.425  21.911  0.00  0.00    +0.007 C 
ATOM     11  C   UNL     1      19.213   9.006  21.652  0.00  0.00    +0.009 C 
ATOM     12  C   UNL     1      22.579   6.281  20.978  0.00  0.00    +0.029 C 
ATOM     13  C   UNL     1      17.594   7.441  20.485  0.00  0.00    +0.076 C 
ATOM     14  C   UNL     1      22.705   7.357  22.056  0.00  0.00    +0.007 C 
ATOM     15  C   UNL     1      17.766   8.549  21.523  0.00  0.00    +0.023 C 
ATOM     16  C   UNL     1      19.909   7.241  23.317  0.00  0.00    +0.011 C 
ATOM     18  C   UNL     1      18.365   5.231  19.548  0.00  0.00    +0.010 C 
ENDROOT
BRANCH  13   4
ATOM      3  O   UNL     1      15.370   8.523  18.964  0.00  0.00    -0.276 OA
ATOM      4  N   UNL     1      16.214   7.001  20.508  0.00  0.00    -0.312 N 
ATOM     21  C   UNL     1      15.222   7.585  19.742  0.00  0.00    +0.216 C 
ATOM     32  H   UNL     1      15.969   6.261  21.161  0.00  0.00    +0.149 HD
BRANCH  21  22
ATOM     22  C   UNL     1      13.890   6.920  19.940  0.00  0.00    +0.075 C 
ATOM     23  C   UNL     1      13.378   7.129  21.366  0.00  0.00    +0.013 C 
ATOM     24  C   UNL     1      12.899   7.402  18.878  0.00  0.00    +0.013 C 
ATOM     25  C   UNL     1      12.822   8.532  21.613  0.00  0.00    +0.001 C 
ATOM     26  C   UNL     1      12.367   8.807  19.151  0.00  0.00    +0.001 C 
ATOM     29  C   UNL     1      11.796   8.930  20.558  0.00  0.00    +0.000 C 
ENDBRANCH  21  22
ENDBRANCH  13   4
BRANCH   9   1
ATOM      1  O   UNL     1      21.131   4.872  19.707  0.00  0.00    -0.391 OA
ATOM     33  H   UNL     1      21.859   5.156  19.128  0.00  0.00    +0.210 HD
ENDBRANCH   9   1
BRANCH  12  17
ATOM     17  C   UNL     1      23.634   5.193  21.214  0.00  0.00    +0.078 C 
ATOM     19  C   UNL     1      24.121   5.263  22.662  0.00  0.00    +0.017 C 
BRANCH  17  20
ATOM      2  O   UNL     1      25.235   6.508  20.016  0.00  0.00    -0.275 OA
ATOM      5  N   UNL     1      25.301   4.233  19.603  0.00  0.00    -0.302 N 
ATOM     20  C   UNL     1      24.795   5.375  20.234  0.00  0.00    +0.219 C 
BRANCH   5  27
ATOM     27  C   UNL     1      26.394   4.375  18.646  0.00  0.00    +0.104 C 
ATOM     30  C   UNL     1      27.737   4.122  19.299  0.00  0.00    +0.024 C 
ENDBRANCH   5  27
BRANCH   5  28
ATOM     28  C   UNL     1      24.862   2.857  19.829  0.00  0.00    +0.104 C 
ATOM     31  C   UNL     1      25.560   2.242  21.026  0.00  0.00    +0.024 C 
ENDBRANCH   5  28
ENDBRANCH  17  20
ENDBRANCH  12  17
TORSDOF 7
ENDMDL
MODEL 5
REMARK VINA RESULT:      -6.3     29.414     31.886
REMARK  Name = 28962709
REMARK  12 active torsions:
REMARK  status: ('A' for Active; 'I' for Inactive)
REMARK    1  A    between atoms: O_1  and  C_9
REMARK    2  A    between atoms: N_4  and  C_13
REMARK    3  A    between atoms: N_5  and  C_27
REMARK    4  A    between atoms: N_5  and  C_28
REMARK    5  A    between atoms: C_6  and  C_16
REMARK    6  A    between atoms: C_8  and  C_18
REMARK    7  A    between atoms: C_12  and  C_17
REMARK    8  A    between atoms: C_17  and  C_19
REMARK    9  A    between atoms: C_17  and  C_20
REMARK   10  A    between atoms: C_21  and  C_22
REMARK   11  A    between atoms: C_27  and  C_30
REMARK   12  A    between atoms: C_28  and  C_31
REMARK                            x       y       z     vdW  Elec       q    Type
REMARK                         _______ _______ _______ _____ _____    ______ ____
ROOT
ATOM      6  C   UNL     1      20.634   7.740  21.979  0.00  0.00    -0.027 C 
ATOM      7  C   UNL     1      19.725   6.584  21.443  0.00  0.00    +0.028 C 
ATOM      8  C   UNL     1      20.584   5.488  20.717  0.00  0.00    +0.012 C 
ATOM      9  C   UNL     1      18.525   7.143  20.627  0.00  0.00    +0.122 C 
ATOM     10  C   UNL     1      19.774   8.741  22.786  0.00  0.00    +0.007 C 
ATOM     11  C   UNL     1      21.689   7.146  22.941  0.00  0.00    +0.009 C 
ATOM     12  C   UNL     1      17.730   8.221  21.399  0.00  0.00    +0.029 C 
ATOM     13  C   UNL     1      21.690   4.952  21.668  0.00  0.00    +0.076 C 
ATOM     14  C   UNL     1      18.621   9.321  21.976  0.00  0.00    +0.007 C 
ATOM     15  C   UNL     1      22.538   6.057  22.298  0.00  0.00    +0.023 C 
ATOM     16  C   UNL     1      21.354   8.506  20.841  0.00  0.00    +0.011 C 
ATOM     18  C   UNL     1      19.755   4.305  20.188  0.00  0.00    +0.010 C 
ENDROOT
BRANCH  13   4
ATOM      3  O   UNL     1      22.853   2.521  22.749  0.00  0.00    -0.276 OA
ATOM      4  N   UNL     1      22.575   4.024  20.994  0.00  0.00    -0.312 N 
ATOM     21  C   UNL     1      23.078   2.887  21.599  0.00  0.00    +0.216 C 
ATOM     32  H   UNL     1      22.870   4.259  20.050  0.00  0.00    +0.149 HD
BRANCH  21  22
ATOM     22  C   UNL     1      23.948   2.090  20.669  0.00  0.00    +0.075 C 
ATOM     23  C   UNL     1      24.857   3.006  19.847  0.00  0.00    +0.013 C 
ATOM     24  C   UNL     1      24.727   1.033  21.455  0.00  0.00    +0.013 C 
ATOM     25  C   UNL     1      26.043   3.557  20.638  0.00  0.00    +0.001 C 
ATOM     26  C   UNL     1      25.902   1.615  22.238  0.00  0.00    +0.001 C 
ATOM     29  C   UNL     1      26.815   2.450  21.348  0.00  0.00    +0.000 C 
ENDBRANCH  21  22
ENDBRANCH  13   4
BRANCH   9   1
ATOM      1  O   UNL     1      17.608   6.086  20.340  0.00  0.00    -0.391 OA
ATOM     33  H   UNL     1      16.876   6.456  19.817  0.00  0.00    +0.210 HD
ENDBRANCH   9   1
BRANCH  12  17
ATOM     17  C   UNL     1      16.634   8.852  20.531  0.00  0.00    +0.078 C 
ATOM     19  C   UNL     1      16.722  10.376  20.629  0.00  0.00    +0.017 C 
BRANCH  17  20
ATOM      2  O   UNL     1      14.909   8.520  22.157  0.00  0.00    -0.275 OA
ATOM      5  N   UNL     1      14.461   7.696  20.042  0.00  0.00    -0.302 N 
ATOM     20  C   UNL     1      15.261   8.351  20.985  0.00  0.00    +0.219 C 
BRANCH   5  27
ATOM     27  C   UNL     1      13.155   7.187  20.449  0.00  0.00    +0.104 C 
ATOM     30  C   UNL     1      12.124   8.294  20.507  0.00  0.00    +0.024 C 
ENDBRANCH   5  27
BRANCH   5  28
ATOM     28  C   UNL     1      14.786   7.487  18.632  0.00  0.00    +0.104 C 
ATOM     31  C   UNL     1      14.260   8.615  17.768  0.00  0.00    +0.024 C 
ENDBRANCH   5  28
ENDBRANCH  17  20
ENDBRANCH  12  17
TORSDOF 7
ENDMDL
MODEL 6
REMARK VINA RESULT:      -5.8     28.930     31.500
REMARK  Name = 28962709
REMARK  12 active torsions:
REMARK  status: ('A' for Active; 'I' for Inactive)
REMARK    1  A    between atoms: O_1  and  C_9
REMARK    2  A    between atoms: N_4  and  C_13
REMARK    3  A    between atoms: N_5  and  C_27
REMARK    4  A    between atoms: N_5  and  C_28
REMARK    5  A    between atoms: C_6  and  C_16
REMARK    6  A    between atoms: C_8  and  C_18
REMARK    7  A    between atoms: C_12  and  C_17
REMARK    8  A    between atoms: C_17  and  C_19
REMARK    9  A    between atoms: C_17  and  C_20
REMARK   10  A    between atoms: C_21  and  C_22
REMARK   11  A    between atoms: C_27  and  C_30
REMARK   12  A    between atoms: C_28  and  C_31
REMARK                            x       y       z     vdW  Elec       q    Type
REMARK                         _______ _______ _______ _____ _____    ______ ____
ROOT
ATOM      6  C   UNL     1      14.497   7.742  20.496  0.00  0.00    -0.027 C 
ATOM      7  C   UNL     1      15.236   8.631  21.551  0.00  0.00    +0.028 C 
ATOM      8  C   UNL     1      14.580  10.056  21.640  0.00  0.00    +0.012 C 
ATOM      9  C   UNL     1      16.775   8.616  21.322  0.00  0.00    +0.122 C 
ATOM     10  C   UNL     1      15.093   6.314  20.516  0.00  0.00    +0.007 C 
ATOM     11  C   UNL     1      13.005   7.634  20.887  0.00  0.00    +0.009 C 
ATOM     12  C   UNL     1      17.351   7.183  21.237  0.00  0.00    +0.029 C 
ATOM     13  C   UNL     1      13.064   9.932  21.957  0.00  0.00    +0.076 C 
ATOM     14  C   UNL     1      16.593   6.294  20.252  0.00  0.00    +0.007 C 
ATOM     15  C   UNL     1      12.320   8.988  21.014  0.00  0.00    +0.023 C 
ATOM     16  C   UNL     1      14.609   8.308  19.059  0.00  0.00    +0.011 C 
ATOM     18  C   UNL     1      15.242  10.976  22.680  0.00  0.00    +0.010 C 
ENDROOT
BRANCH  13   4
ATOM      3  O   UNL     1      10.967  10.875  23.730  0.00  0.00    -0.276 OA
ATOM      4  N   UNL     1      12.403  11.220  21.932  0.00  0.00    -0.312 N 
ATOM     21  C   UNL     1      11.410  11.577  22.825  0.00  0.00    +0.216 C 
ATOM     32  H   UNL     1      12.657  11.863  21.186  0.00  0.00    +0.149 HD
BRANCH  21  22
ATOM     22  C   UNL     1      10.914  12.975  22.591  0.00  0.00    +0.075 C 
ATOM     23  C   UNL     1      10.162  13.503  23.814  0.00  0.00    +0.013 C 
ATOM     24  C   UNL     1      12.075  13.881  22.173  0.00  0.00    +0.013 C 
ATOM     25  C   UNL     1      11.082  13.919  24.962  0.00  0.00    +0.001 C 
ATOM     26  C   UNL     1      12.977  14.274  23.340  0.00  0.00    +0.001 C 
ATOM     29  C   UNL     1      12.179  14.869  24.494  0.00  0.00    +0.000 C 
ENDBRANCH  21  22
ENDBRANCH  13   4
BRANCH   9   1
ATOM      1  O   UNL     1      17.428   9.255  22.419  0.00  0.00    -0.391 OA
ATOM     33  H   UNL     1      17.232  10.207  22.374  0.00  0.00    +0.210 HD
ENDBRANCH   9   1
BRANCH  12  17
ATOM     17  C   UNL     1      18.842   7.189  20.880  0.00  0.00    +0.078 C 
ATOM     19  C   UNL     1      19.172   5.946  20.051  0.00  0.00    +0.017 C 
BRANCH  17  20
ATOM      2  O   UNL     1      19.508   6.374  23.031  0.00  0.00    -0.275 OA
ATOM      5  N   UNL     1      20.605   8.275  22.298  0.00  0.00    -0.302 N 
ATOM     20  C   UNL     1      19.680   7.234  22.160  0.00  0.00    +0.219 C 
BRANCH   5  27
ATOM     27  C   UNL     1      21.405   8.359  23.516  0.00  0.00    +0.104 C 
ATOM     30  C   UNL     1      22.762   7.713  23.332  0.00  0.00    +0.024 C 
ENDBRANCH   5  27
BRANCH   5  28
ATOM     28  C   UNL     1      20.895   9.308  21.305  0.00  0.00    +0.104 C 
ATOM     31  C   UNL     1      20.631  10.695  21.855  0.00  0.00    +0.024 C 
ENDBRANCH   5  28
ENDBRANCH  17  20
ENDBRANCH  12  17
TORSDOF 7
ENDMDL
MODEL 7
REMARK VINA RESULT:      -5.8     23.591     26.662
REMARK  Name = 28962709
REMARK  12 active torsions:
REMARK  status: ('A' for Active; 'I' for Inactive)
REMARK    1  A    between atoms: O_1  and  C_9
REMARK    2  A    between atoms: N_4  and  C_13
REMARK    3  A    between atoms: N_5  and  C_27
REMARK    4  A    between atoms: N_5  and  C_28
REMARK    5  A    between atoms: C_6  and  C_16
REMARK    6  A    between atoms: C_8  and  C_18
REMARK    7  A    between atoms: C_12  and  C_17
REMARK    8  A    between atoms: C_17  and  C_19
REMARK    9  A    between atoms: C_17  and  C_20
REMARK   10  A    between atoms: C_21  and  C_22
REMARK   11  A    between atoms: C_27  and  C_30
REMARK   12  A    between atoms: C_28  and  C_31
REMARK                            x       y       z     vdW  Elec       q    Type
REMARK                         _______ _______ _______ _____ _____    ______ ____
ROOT
ATOM      6  C   UNL     1       9.900   6.524   6.190  0.00  0.00    -0.027 C 
ATOM      7  C   UNL     1      10.519   7.410   5.058  0.00  0.00    +0.028 C 
ATOM      8  C   UNL     1      11.563   6.593   4.216  0.00  0.00    +0.012 C 
ATOM      9  C   UNL     1      11.029   8.768   5.621  0.00  0.00    +0.122 C 
ATOM     10  C   UNL     1       8.796   7.321   6.925  0.00  0.00    +0.007 C 
ATOM     11  C   UNL     1       9.236   5.282   5.551  0.00  0.00    +0.009 C 
ATOM     12  C   UNL     1       9.952   9.513   6.445  0.00  0.00    +0.029 C 
ATOM     13  C   UNL     1      10.905   5.309   3.641  0.00  0.00    +0.076 C 
ATOM     14  C   UNL     1       9.303   8.633   7.512  0.00  0.00    +0.007 C 
ATOM     15  C   UNL     1      10.196   4.463   4.699  0.00  0.00    +0.023 C 
ATOM     16  C   UNL     1      10.955   6.062   7.227  0.00  0.00    +0.011 C 
ATOM     18  C   UNL     1      12.192   7.398   3.065  0.00  0.00    +0.010 C 
ENDROOT
BRANCH  13   4
ATOM      3  O   UNL     1      10.736   4.279   0.932  0.00  0.00    -0.276 OA
ATOM      4  N   UNL     1      11.868   4.472   2.956  0.00  0.00    -0.312 N 
ATOM     21  C   UNL     1      11.696   4.030   1.657  0.00  0.00    +0.216 C 
ATOM     32  H   UNL     1      12.679   4.162   3.485  0.00  0.00    +0.149 HD
BRANCH  21  22
ATOM     22  C   UNL     1      12.854   3.201   1.183  0.00  0.00    +0.075 C 
ATOM     23  C   UNL     1      12.897   3.138  -0.345  0.00  0.00    +0.013 C 
ATOM     24  C   UNL     1      14.158   3.722   1.792  0.00  0.00    +0.013 C 
ATOM     25  C   UNL     1      13.426   4.418  -0.992  0.00  0.00    +0.001 C 
ATOM     26  C   UNL     1      14.657   5.004   1.127  0.00  0.00    +0.001 C 
ATOM     29  C   UNL     1      14.756   4.852  -0.386  0.00  0.00    +0.000 C 
ENDBRANCH  21  22
ENDBRANCH  13   4
BRANCH   9   1
ATOM      1  O   UNL     1      11.385   9.630   4.540  0.00  0.00    -0.391 OA
ATOM     33  H   UNL     1      11.755   9.081   3.826  0.00  0.00    +0.210 HD
ENDBRANCH   9   1
BRANCH  12  17
ATOM     17  C   UNL     1      10.513  10.782   7.099  0.00  0.00    +0.078 C 
ATOM     19  C   UNL     1      11.218  10.413   8.405  0.00  0.00    +0.017 C 
BRANCH  17  20
ATOM      2  O   UNL     1       8.836  11.818   8.458  0.00  0.00    -0.275 OA
ATOM      5  N   UNL     1       8.988  12.602   6.287  0.00  0.00    -0.302 N 
ATOM     20  C   UNL     1       9.379  11.779   7.349  0.00  0.00    +0.219 C 
BRANCH   5  27
ATOM     27  C   UNL     1       7.896  13.549   6.486  0.00  0.00    +0.104 C 
ATOM     30  C   UNL     1       6.668  13.154   5.693  0.00  0.00    +0.024 C 
ENDBRANCH   5  27
BRANCH   5  28
ATOM     28  C   UNL     1       9.598  12.645   4.959  0.00  0.00    +0.104 C 
ATOM     31  C   UNL     1      10.571  13.799   4.832  0.00  0.00    +0.024 C 
ENDBRANCH   5  28
ENDBRANCH  17  20
ENDBRANCH  12  17
TORSDOF 7
ENDMDL
MODEL 8
REMARK VINA RESULT:      -5.8      1.456      2.121
REMARK  Name = 28962709
REMARK  12 active torsions:
REMARK  status: ('A' for Active; 'I' for Inactive)
REMARK    1  A    between atoms: O_1  and  C_9
REMARK    2  A    between atoms: N_4  and  C_13
REMARK    3  A    between atoms: N_5  and  C_27
REMARK    4  A    between atoms: N_5  and  C_28
REMARK    5  A    between atoms: C_6  and  C_16
REMARK    6  A    between atoms: C_8  and  C_18
REMARK    7  A    between atoms: C_12  and  C_17
REMARK    8  A    between atoms: C_17  and  C_19
REMARK    9  A    between atoms: C_17  and  C_20
REMARK   10  A    between atoms: C_21  and  C_22
REMARK   11  A    between atoms: C_27  and  C_30
REMARK   12  A    between atoms: C_28  and  C_31
REMARK                            x       y       z     vdW  Elec       q    Type
REMARK                         _______ _______ _______ _____ _____    ______ ____
ROOT
ATOM      6  C   UNL     1      -2.885 -10.888  13.094  0.00  0.00    -0.027 C 
ATOM      7  C   UNL     1      -4.254 -10.168  13.336  0.00  0.00    +0.028 C 
ATOM      8  C   UNL     1      -4.907 -10.646  14.683  0.00  0.00    +0.012 C 
ATOM      9  C   UNL     1      -5.168 -10.258  12.081  0.00  0.00    +0.122 C 
ATOM     10  C   UNL     1      -2.217 -10.312  11.823  0.00  0.00    +0.007 C 
ATOM     11  C   UNL     1      -1.947 -10.600  14.289  0.00  0.00    +0.009 C 
ATOM     12  C   UNL     1      -4.459  -9.779  10.792  0.00  0.00    +0.029 C 
ATOM     13  C   UNL     1      -3.925 -10.423  15.866  0.00  0.00    +0.076 C 
ATOM     14  C   UNL     1      -3.094 -10.436  10.584  0.00  0.00    +0.007 C 
ATOM     15  C   UNL     1      -2.539 -11.020  15.628  0.00  0.00    +0.023 C 
ATOM     16  C   UNL     1      -3.042 -12.420  12.924  0.00  0.00    +0.011 C 
ATOM     18  C   UNL     1      -6.246  -9.956  14.998  0.00  0.00    +0.010 C 
ENDROOT
BRANCH  13   4
ATOM      3  O   UNL     1      -4.847 -13.130  16.370  0.00  0.00    -0.276 OA
ATOM      4  N   UNL     1      -4.448 -10.958  17.106  0.00  0.00    -0.312 N 
ATOM     21  C   UNL     1      -4.864 -12.270  17.246  0.00  0.00    +0.216 C 
ATOM     32  H   UNL     1      -4.555 -10.315  17.886  0.00  0.00    +0.149 HD
BRANCH  21  22
ATOM     22  C   UNL     1      -5.338 -12.567  18.640  0.00  0.00    +0.075 C 
ATOM     23  C   UNL     1      -5.229 -11.329  19.533  0.00  0.00    +0.013 C 
ATOM     24  C   UNL     1      -6.753 -13.148  18.601  0.00  0.00    +0.013 C 
ATOM     25  C   UNL     1      -6.327 -10.297  19.278  0.00  0.00    +0.001 C 
ATOM     26  C   UNL     1      -7.825 -12.092  18.340  0.00  0.00    +0.001 C 
ATOM     29  C   UNL     1      -7.716 -10.924  19.313  0.00  0.00    +0.000 C 
ENDBRANCH  21  22
ENDBRANCH  13   4
BRANCH   9   1
ATOM      1  O   UNL     1      -6.307  -9.415  12.258  0.00  0.00    -0.391 OA
ATOM     33  H   UNL     1      -7.042  -9.965  12.582  0.00  0.00    +0.210 HD
ENDBRANCH   9   1
BRANCH  12  17
ATOM     17  C   UNL     1      -5.329  -9.998   9.548  0.00  0.00    +0.078 C 
ATOM     19  C   UNL     1      -4.457 -10.516   8.403  0.00  0.00    +0.017 C 
BRANCH  17  20
ATOM      2  O   UNL     1      -5.596  -7.620   9.614  0.00  0.00    -0.275 OA
ATOM      5  N   UNL     1      -7.137  -8.764   8.322  0.00  0.00    -0.302 N 
ATOM     20  C   UNL     1      -6.021  -8.689   9.164  0.00  0.00    +0.219 C 
BRANCH   5  27
ATOM     27  C   UNL     1      -7.833  -7.536   7.953  0.00  0.00    +0.104 C 
ATOM     30  C   UNL     1      -9.040  -7.297   8.835  0.00  0.00    +0.024 C 
ENDBRANCH   5  27
BRANCH   5  28
ATOM     28  C   UNL     1      -7.682  -9.979   7.719  0.00  0.00    +0.104 C 
ATOM     31  C   UNL     1      -8.081  -9.751   6.275  0.00  0.00    +0.024 C 
ENDBRANCH   5  28
ENDBRANCH  17  20
ENDBRANCH  12  17
TORSDOF 7
ENDMDL
MODEL 9
REMARK VINA RESULT:      -5.8     26.461     29.208
REMARK  Name = 28962709
REMARK  12 active torsions:
REMARK  status: ('A' for Active; 'I' for Inactive)
REMARK    1  A    between atoms: O_1  and  C_9
REMARK    2  A    between atoms: N_4  and  C_13
REMARK    3  A    between atoms: N_5  and  C_27
REMARK    4  A    between atoms: N_5  and  C_28
REMARK    5  A    between atoms: C_6  and  C_16
REMARK    6  A    between atoms: C_8  and  C_18
REMARK    7  A    between atoms: C_12  and  C_17
REMARK    8  A    between atoms: C_17  and  C_19
REMARK    9  A    between atoms: C_17  and  C_20
REMARK   10  A    between atoms: C_21  and  C_22
REMARK   11  A    between atoms: C_27  and  C_30
REMARK   12  A    between atoms: C_28  and  C_31
REMARK                            x       y       z     vdW  Elec       q    Type
REMARK                         _______ _______ _______ _____ _____    ______ ____
ROOT
ATOM      6  C   UNL     1      22.012  -7.412  24.069  0.00  0.00    -0.027 C 
ATOM      7  C   UNL     1      21.247  -6.992  22.769  0.00  0.00    +0.028 C 
ATOM      8  C   UNL     1      20.009  -6.090  23.116  0.00  0.00    +0.012 C 
ATOM      9  C   UNL     1      20.946  -8.224  21.869  0.00  0.00    +0.122 C 
ATOM     10  C   UNL     1      23.286  -8.202  23.686  0.00  0.00    +0.007 C 
ATOM     11  C   UNL     1      22.457  -6.139  24.825  0.00  0.00    +0.009 C 
ATOM     12  C   UNL     1      22.207  -9.070  21.576  0.00  0.00    +0.029 C 
ATOM     13  C   UNL     1      20.458  -4.852  23.941  0.00  0.00    +0.076 C 
ATOM     14  C   UNL     1      22.990  -9.432  22.838  0.00  0.00    +0.007 C 
ATOM     15  C   UNL     1      21.299  -5.210  25.166  0.00  0.00    +0.023 C 
ATOM     16  C   UNL     1      21.147  -8.289  25.009  0.00  0.00    +0.011 C 
ATOM     18  C   UNL     1      19.226  -5.616  21.879  0.00  0.00    +0.010 C 
ENDROOT
BRANCH  13   4
ATOM      3  O   UNL     1      20.470  -2.068  24.764  0.00  0.00    -0.276 OA
ATOM      4  N   UNL     1      19.328  -4.058  24.377  0.00  0.00    -0.312 N 
ATOM     21  C   UNL     1      19.436  -2.732  24.751  0.00  0.00    +0.216 C 
ATOM     32  H   UNL     1      18.429  -4.526  24.455  0.00  0.00    +0.149 HD
BRANCH  21  22
ATOM     22  C   UNL     1      18.110  -2.142  25.135  0.00  0.00    +0.075 C 
ATOM     23  C   UNL     1      17.789  -0.911  24.286  0.00  0.00    +0.013 C 
ATOM     24  C   UNL     1      17.018  -3.212  25.064  0.00  0.00    +0.013 C 
ATOM     25  C   UNL     1      17.334  -1.252  22.867  0.00  0.00    +0.001 C 
ATOM     26  C   UNL     1      16.589  -3.534  23.634  0.00  0.00    +0.001 C 
ATOM     29  C   UNL     1      16.204  -2.276  22.864  0.00  0.00    +0.000 C 
ENDBRANCH  21  22
ENDBRANCH  13   4
BRANCH   9   1
ATOM      1  O   UNL     1      20.447  -7.783  20.606  0.00  0.00    -0.391 OA
ATOM     33  H   UNL     1      20.276  -8.569  20.058  0.00  0.00    +0.210 HD
ENDBRANCH   9   1
BRANCH  12  17
ATOM     17  C   UNL     1      21.868 -10.348  20.799  0.00  0.00    +0.078 C 
ATOM     19  C   UNL     1      22.111 -11.566  21.692  0.00  0.00    +0.017 C 
BRANCH  17  20
ATOM      2  O   UNL     1      23.925 -10.174  19.587  0.00  0.00    -0.275 OA
ATOM      5  N   UNL     1      22.070 -10.752  18.330  0.00  0.00    -0.302 N 
ATOM     20  C   UNL     1      22.716 -10.422  19.527  0.00  0.00    +0.219 C 
BRANCH   5  27
ATOM     27  C   UNL     1      22.847 -10.809  17.096  0.00  0.00    +0.104 C 
ATOM     30  C   UNL     1      23.393 -12.200  16.850  0.00  0.00    +0.024 C 
ENDBRANCH   5  27
BRANCH   5  28
ATOM     28  C   UNL     1      20.657 -11.093  18.179  0.00  0.00    +0.104 C 
ATOM     31  C   UNL     1      20.422 -12.579  18.356  0.00  0.00    +0.024 C 
ENDBRANCH   5  28
ENDBRANCH  17  20
ENDBRANCH  12  17
TORSDOF 7
ENDMDL
MODEL 10
REMARK VINA RESULT:      -5.7     19.370     22.122
REMARK  Name = 28962709
REMARK  12 active torsions:
REMARK  status: ('A' for Active; 'I' for Inactive)
REMARK    1  A    between atoms: O_1  and  C_9
REMARK    2  A    between atoms: N_4  and  C_13
REMARK    3  A    between atoms: N_5  and  C_27
REMARK    4  A    between atoms: N_5  and  C_28
REMARK    5  A    between atoms: C_6  and  C_16
REMARK    6  A    between atoms: C_8  and  C_18
REMARK    7  A    between atoms: C_12  and  C_17
REMARK    8  A    between atoms: C_17  and  C_19
REMARK    9  A    between atoms: C_17  and  C_20
REMARK   10  A    between atoms: C_21  and  C_22
REMARK   11  A    between atoms: C_27  and  C_30
REMARK   12  A    between atoms: C_28  and  C_31
REMARK                            x       y       z     vdW  Elec       q    Type
REMARK                         _______ _______ _______ _____ _____    ______ ____
ROOT
ATOM      6  C   UNL     1     -15.802   7.106  20.998  0.00  0.00    -0.027 C 
ATOM      7  C   UNL     1     -14.507   6.581  21.705  0.00  0.00    +0.028 C 
ATOM      8  C   UNL     1     -13.274   6.646  20.733  0.00  0.00    +0.012 C 
ATOM      9  C   UNL     1     -14.753   5.202  22.381  0.00  0.00    +0.122 C 
ATOM     10  C   UNL     1     -16.968   7.135  22.015  0.00  0.00    +0.007 C 
ATOM     11  C   UNL     1     -15.560   8.555  20.517  0.00  0.00    +0.009 C 
ATOM     12  C   UNL     1     -15.985   5.209  23.316  0.00  0.00    +0.029 C 
ATOM     13  C   UNL     1     -13.088   8.092  20.196  0.00  0.00    +0.076 C 
ATOM     14  C   UNL     1     -17.237   5.777  22.649  0.00  0.00    +0.007 C 
ATOM     15  C   UNL     1     -14.359   8.685  19.590  0.00  0.00    +0.023 C 
ATOM     16  C   UNL     1     -16.216   6.228  19.790  0.00  0.00    +0.011 C 
ATOM     18  C   UNL     1     -11.959   6.170  21.373  0.00  0.00    +0.010 C 
ENDROOT
BRANCH  13   4
ATOM      3  O   UNL     1     -11.235  10.284  19.752  0.00  0.00    -0.276 OA
ATOM      4  N   UNL     1     -12.032   8.166  19.208  0.00  0.00    -0.312 N 
ATOM     21  C   UNL     1     -11.197   9.260  19.074  0.00  0.00    +0.216 C 
ATOM     32  H   UNL     1     -11.945   7.390  18.556  0.00  0.00    +0.149 HD
BRANCH  21  22
ATOM     22  C   UNL     1     -10.176   9.064  17.990  0.00  0.00    +0.075 C 
ATOM     23  C   UNL     1     -10.664   8.051  16.953  0.00  0.00    +0.013 C 
ATOM     24  C   UNL     1      -9.802  10.413  17.371  0.00  0.00    +0.013 C 
ATOM     25  C   UNL     1     -11.712   8.617  15.995  0.00  0.00    +0.001 C 
ATOM     26  C   UNL     1     -10.870  10.953  16.424  0.00  0.00    +0.001 C 
ATOM     29  C   UNL     1     -11.255   9.928  15.364  0.00  0.00    +0.000 C 
ENDBRANCH  21  22
ENDBRANCH  13   4
BRANCH   9   1
ATOM      1  O   UNL     1     -13.628   4.859  23.190  0.00  0.00    -0.391 OA
ATOM     33  H   UNL     1     -13.188   4.091  22.785  0.00  0.00    +0.210 HD
ENDBRANCH   9   1
BRANCH  12  17
ATOM     17  C   UNL     1     -16.288   3.811  23.870  0.00  0.00    +0.078 C 
ATOM     19  C   UNL     1     -17.435   3.186  23.074  0.00  0.00    +0.017 C 
BRANCH  17  20
ATOM      2  O   UNL     1     -16.876   5.013  25.855  0.00  0.00    -0.275 OA
ATOM      5  N   UNL     1     -16.657   2.723  26.101  0.00  0.00    -0.302 N 
ATOM     20  C   UNL     1     -16.639   3.908  25.356  0.00  0.00    +0.219 C 
BRANCH   5  27
ATOM     27  C   UNL     1     -16.968   2.783  27.525  0.00  0.00    +0.104 C 
ATOM     30  C   UNL     1     -15.709   2.831  28.365  0.00  0.00    +0.024 C 
ENDBRANCH   5  27
BRANCH   5  28
ATOM     28  C   UNL     1     -16.425   1.376  25.583  0.00  0.00    +0.104 C 
ATOM     31  C   UNL     1     -17.680   0.530  25.653  0.00  0.00    +0.024 C 
ENDBRANCH   5  28
ENDBRANCH  17  20
ENDBRANCH  12  17
TORSDOF 7
ENDMDL
