MODEL 1
REMARK VINA RESULT:      -7.1      0.000      0.000
REMARK  Name = 11913357
REMARK  5 active torsions:
REMARK  status: ('A' for Active; 'I' for Inactive)
REMARK    1  A    between atoms: N_5  and  C_12
REMARK    2  A    between atoms: N_6  and  C_13
REMARK    3  A    between atoms: N_7  and  C_18
REMARK    4  A    between atoms: C_18  and  C_23
REMARK    5  A    between atoms: C_19  and  C_22
REMARK                            x       y       z     vdW  Elec       q    Type
REMARK                         _______ _______ _______ _____ _____    ______ ____
ROOT
ATOM      2  O   UNL     1      -4.394  -8.907  10.121  0.00  0.00    -0.370 OA
ATOM      3  O   UNL     1      -5.947 -11.590  10.064  0.00  0.00    -0.370 OA
ATOM     10  C   UNL     1      -4.590 -11.260  10.408  0.00  0.00    +0.171 C 
ATOM     11  C   UNL     1      -4.147 -10.162   9.461  0.00  0.00    +0.171 C 
ATOM     12  C   UNL     1      -4.541 -10.611  11.771  0.00  0.00    +0.130 C 
ATOM     13  C   UNL     1      -5.060 -10.315   8.264  0.00  0.00    +0.131 C 
ATOM     14  C   UNL     1      -4.849  -9.159  11.459  0.00  0.00    +0.185 C 
ATOM     15  C   UNL     1      -6.336 -10.833   8.908  0.00  0.00    +0.185 C 
ENDROOT
BRANCH  12   5
ATOM      5  N   UNL     1      -3.212 -10.734  12.331  0.00  0.00    -0.306 N 
ATOM      8  N   UNL     1      -4.005 -10.582  14.533  0.00  0.00    -0.214 NA
ATOM      9  N   UNL     1      -1.654 -10.847  14.081  0.00  0.00    -0.223 NA
ATOM     16  C   UNL     1      -2.949 -10.721  13.689  0.00  0.00    +0.216 A 
ATOM     19  C   UNL     1      -3.713 -10.572  15.850  0.00  0.00    +0.076 A 
ATOM     20  C   UNL     1      -1.433 -10.830  15.412  0.00  0.00    +0.116 A 
ATOM     21  C   UNL     1      -2.433 -10.694  16.352  0.00  0.00    +0.048 A 
ATOM     29  H   UNL     1      -2.424 -10.890  11.711  0.00  0.00    +0.149 HD
BRANCH  19  22
ATOM      1  F   UNL     1      -5.827 -11.228  20.143  0.00  0.00    -0.205 F 
ATOM     22  C   UNL     1      -4.848 -10.426  16.729  0.00  0.00    +0.003 A 
ATOM     24  C   UNL     1      -4.789 -10.906  18.039  0.00  0.00    +0.048 A 
ATOM     25  C   UNL     1      -6.012  -9.802  16.272  0.00  0.00    +0.010 A 
ATOM     26  C   UNL     1      -5.886 -10.765  18.888  0.00  0.00    +0.124 A 
ATOM     27  C   UNL     1      -7.109  -9.660  17.121  0.00  0.00    +0.003 A 
ATOM     28  C   UNL     1      -7.047 -10.141  18.429  0.00  0.00    +0.038 A 
ENDBRANCH  19  22
ENDBRANCH  12   5
BRANCH  13   6
ATOM      4  O   UNL     1      -5.632 -10.574   5.434  0.00  0.00    -0.253 OA
ATOM      6  N   UNL     1      -4.531 -11.316   7.340  0.00  0.00    -0.292 N 
ATOM      7  N   UNL     1      -4.222 -12.414   5.340  0.00  0.00    -0.300 N 
ATOM     17  C   UNL     1      -4.866 -11.362   5.987  0.00  0.00    +0.300 C 
ATOM     30  H   UNL     1      -3.838 -11.973   7.686  0.00  0.00    +0.151 HD
ATOM     31  H   UNL     1      -3.607 -13.017   5.879  0.00  0.00    +0.150 HD
BRANCH   7  18
ATOM     18  C   UNL     1      -4.392 -12.689   3.934  0.00  0.00    +0.102 C 
ATOM     23  C   UNL     1      -3.089 -12.536   3.177  0.00  0.00    +0.024 C 
ENDBRANCH   7  18
ENDBRANCH  13   6
TORSDOF 4
ENDMDL
MODEL 2
REMARK VINA RESULT:      -7.0      4.589      8.692
REMARK  Name = 11913357
REMARK  5 active torsions:
REMARK  status: ('A' for Active; 'I' for Inactive)
REMARK    1  A    between atoms: N_5  and  C_12
REMARK    2  A    between atoms: N_6  and  C_13
REMARK    3  A    between atoms: N_7  and  C_18
REMARK    4  A    between atoms: C_18  and  C_23
REMARK    5  A    between atoms: C_19  and  C_22
REMARK                            x       y       z     vdW  Elec       q    Type
REMARK                         _______ _______ _______ _____ _____    ______ ____
ROOT
ATOM      2  O   UNL     1      -6.798 -11.390  18.559  0.00  0.00    -0.370 OA
ATOM      3  O   UNL     1      -7.599 -11.252  15.568  0.00  0.00    -0.370 OA
ATOM     10  C   UNL     1      -6.496 -10.696  16.305  0.00  0.00    +0.171 C 
ATOM     11  C   UNL     1      -7.031 -10.288  17.664  0.00  0.00    +0.171 C 
ATOM     12  C   UNL     1      -5.483 -11.772  16.616  0.00  0.00    +0.130 C 
ATOM     13  C   UNL     1      -8.516 -10.101  17.436  0.00  0.00    +0.131 C 
ATOM     14  C   UNL     1      -6.047 -12.405  17.875  0.00  0.00    +0.185 C 
ATOM     15  C   UNL     1      -8.797 -11.126  16.349  0.00  0.00    +0.185 C 
ENDROOT
BRANCH  12   5
ATOM      5  N   UNL     1      -4.194 -11.175  16.889  0.00  0.00    -0.306 N 
ATOM      8  N   UNL     1      -3.636 -11.073  14.612  0.00  0.00    -0.214 NA
ATOM      9  N   UNL     1      -2.110 -10.274  16.296  0.00  0.00    -0.223 NA
ATOM     16  C   UNL     1      -3.286 -10.830  15.903  0.00  0.00    +0.216 A 
ATOM     19  C   UNL     1      -2.727 -10.726  13.677  0.00  0.00    +0.076 A 
ATOM     20  C   UNL     1      -1.248  -9.951  15.310  0.00  0.00    +0.116 A 
ATOM     21  C   UNL     1      -1.506 -10.155  13.971  0.00  0.00    +0.048 A 
ATOM     29  H   UNL     1      -3.946 -10.942  17.844  0.00  0.00    +0.149 HD
BRANCH  19  22
ATOM      1  F   UNL     1      -3.829  -9.178   9.237  0.00  0.00    -0.205 F 
ATOM     22  C   UNL     1      -3.119 -10.991  12.314  0.00  0.00    +0.003 A 
ATOM     24  C   UNL     1      -3.288  -9.936  11.414  0.00  0.00    +0.048 A 
ATOM     25  C   UNL     1      -3.332 -12.305  11.889  0.00  0.00    +0.010 A 
ATOM     26  C   UNL     1      -3.667 -10.192  10.097  0.00  0.00    +0.124 A 
ATOM     27  C   UNL     1      -3.711 -12.561  10.571  0.00  0.00    +0.003 A 
ATOM     28  C   UNL     1      -3.878 -11.506   9.675  0.00  0.00    +0.038 A 
ENDBRANCH  19  22
ENDBRANCH  12   5
BRANCH  13   6
ATOM      4  O   UNL     1     -11.060  -8.713  17.429  0.00  0.00    -0.253 OA
ATOM      6  N   UNL     1      -8.792  -8.758  16.932  0.00  0.00    -0.292 N 
ATOM      7  N   UNL     1     -10.037  -6.889  16.425  0.00  0.00    -0.300 N 
ATOM     17  C   UNL     1     -10.056  -8.171  16.971  0.00  0.00    +0.300 C 
ATOM     30  H   UNL     1      -8.014  -8.201  16.592  0.00  0.00    +0.151 HD
ATOM     31  H   UNL     1      -9.160  -6.522  16.068  0.00  0.00    +0.150 HD
BRANCH   7  18
ATOM     18  C   UNL     1     -11.213  -6.057  16.341  0.00  0.00    +0.102 C 
ATOM     23  C   UNL     1     -11.636  -5.836  14.903  0.00  0.00    +0.024 C 
ENDBRANCH   7  18
ENDBRANCH  13   6
TORSDOF 4
ENDMDL
MODEL 3
REMARK VINA RESULT:      -6.8     31.451     33.039
REMARK  Name = 11913357
REMARK  5 active torsions:
REMARK  status: ('A' for Active; 'I' for Inactive)
REMARK    1  A    between atoms: N_5  and  C_12
REMARK    2  A    between atoms: N_6  and  C_13
REMARK    3  A    between atoms: N_7  and  C_18
REMARK    4  A    between atoms: C_18  and  C_23
REMARK    5  A    between atoms: C_19  and  C_22
REMARK                            x       y       z     vdW  Elec       q    Type
REMARK                         _______ _______ _______ _____ _____    ______ ____
ROOT
ATOM      2  O   UNL     1      -0.257  11.088  38.234  0.00  0.00    -0.370 OA
ATOM      3  O   UNL     1      -2.597  10.628  36.253  0.00  0.00    -0.370 OA
ATOM     10  C   UNL     1      -1.436   9.846  36.584  0.00  0.00    +0.171 C 
ATOM     11  C   UNL     1      -0.298  10.820  36.821  0.00  0.00    +0.171 C 
ATOM     12  C   UNL     1      -1.627   9.171  37.921  0.00  0.00    +0.130 C 
ATOM     13  C   UNL     1      -0.711  12.063  36.062  0.00  0.00    +0.131 C 
ATOM     14  C   UNL     1      -1.217  10.254  38.902  0.00  0.00    +0.185 C 
ATOM     15  C   UNL     1      -2.225  12.013  36.179  0.00  0.00    +0.185 C 
ENDROOT
BRANCH  12   5
ATOM      5  N   UNL     1      -0.742   8.032  38.032  0.00  0.00    -0.306 N 
ATOM      8  N   UNL     1      -2.057   7.031  39.697  0.00  0.00    -0.214 NA
ATOM      9  N   UNL     1      -0.044   5.969  38.906  0.00  0.00    -0.223 NA
ATOM     16  C   UNL     1      -0.953   6.979  38.904  0.00  0.00    +0.216 A 
ATOM     19  C   UNL     1      -2.232   5.989  40.536  0.00  0.00    +0.076 A 
ATOM     20  C   UNL     1      -0.281   4.959  39.769  0.00  0.00    +0.116 A 
ATOM     21  C   UNL     1      -1.369   4.915  40.616  0.00  0.00    +0.048 A 
ATOM     29  H   UNL     1       0.055   7.959  37.408  0.00  0.00    +0.149 HD
BRANCH  19  22
ATOM      1  F   UNL     1      -6.187   8.320  42.035  0.00  0.00    -0.205 F 
ATOM     22  C   UNL     1      -3.409   6.063  41.368  0.00  0.00    +0.003 A 
ATOM     24  C   UNL     1      -4.248   7.178  41.298  0.00  0.00    +0.048 A 
ATOM     25  C   UNL     1      -3.714   5.020  42.245  0.00  0.00    +0.010 A 
ATOM     26  C   UNL     1      -5.385   7.250  42.102  0.00  0.00    +0.124 A 
ATOM     27  C   UNL     1      -4.852   5.092  43.049  0.00  0.00    +0.003 A 
ATOM     28  C   UNL     1      -5.687   6.206  42.978  0.00  0.00    +0.038 A 
ENDBRANCH  19  22
ENDBRANCH  12   5
BRANCH  13   6
ATOM      4  O   UNL     1       0.688  14.043  34.474  0.00  0.00    -0.253 OA
ATOM      6  N   UNL     1      -0.320  11.959  34.657  0.00  0.00    -0.292 N 
ATOM      7  N   UNL     1       0.602  12.611  32.651  0.00  0.00    -0.300 N 
ATOM     17  C   UNL     1       0.353  12.970  33.974  0.00  0.00    +0.300 C 
ATOM     30  H   UNL     1      -0.493  11.084  34.172  0.00  0.00    +0.151 HD
ATOM     31  H   UNL     1       0.287  11.702  32.324  0.00  0.00    +0.150 HD
BRANCH   7  18
ATOM     18  C   UNL     1       1.286  13.475  31.720  0.00  0.00    +0.102 C 
ATOM     23  C   UNL     1       1.935  12.685  30.603  0.00  0.00    +0.024 C 
ENDBRANCH   7  18
ENDBRANCH  13   6
TORSDOF 4
ENDMDL
MODEL 4
REMARK VINA RESULT:      -6.6      6.103      9.588
REMARK  Name = 11913357
REMARK  5 active torsions:
REMARK  status: ('A' for Active; 'I' for Inactive)
REMARK    1  A    between atoms: N_5  and  C_12
REMARK    2  A    between atoms: N_6  and  C_13
REMARK    3  A    between atoms: N_7  and  C_18
REMARK    4  A    between atoms: C_18  and  C_23
REMARK    5  A    between atoms: C_19  and  C_22
REMARK                            x       y       z     vdW  Elec       q    Type
REMARK                         _______ _______ _______ _____ _____    ______ ____
ROOT
ATOM      2  O   UNL     1     -10.318 -10.115  15.588  0.00  0.00    -0.370 OA
ATOM      3  O   UNL     1     -10.197  -7.022  15.778  0.00  0.00    -0.370 OA
ATOM     10  C   UNL     1     -10.088  -8.062  16.766  0.00  0.00    +0.171 C 
ATOM     11  C   UNL     1     -11.058  -9.157  16.367  0.00  0.00    +0.171 C 
ATOM     12  C   UNL     1      -8.732  -8.722  16.681  0.00  0.00    +0.130 C 
ATOM     13  C   UNL     1     -12.078  -8.451  15.501  0.00  0.00    +0.131 C 
ATOM     14  C   UNL     1      -8.930  -9.746  15.579  0.00  0.00    +0.185 C 
ATOM     15  C   UNL     1     -11.237  -7.365  14.849  0.00  0.00    +0.185 C 
ENDROOT
BRANCH  12   5
ATOM      5  N   UNL     1      -8.423  -9.381  17.931  0.00  0.00    -0.306 N 
ATOM      8  N   UNL     1      -6.296 -10.036  17.187  0.00  0.00    -0.214 NA
ATOM      9  N   UNL     1      -7.062 -10.605  19.399  0.00  0.00    -0.223 NA
ATOM     16  C   UNL     1      -7.224 -10.027  18.180  0.00  0.00    +0.216 A 
ATOM     19  C   UNL     1      -5.140 -10.674  17.463  0.00  0.00    +0.076 A 
ATOM     20  C   UNL     1      -5.882 -11.225  19.608  0.00  0.00    +0.116 A 
ATOM     21  C   UNL     1      -4.875 -11.293  18.668  0.00  0.00    +0.048 A 
ATOM     29  H   UNL     1      -9.087  -9.335  18.695  0.00  0.00    +0.149 HD
BRANCH  19  22
ATOM      1  F   UNL     1      -0.555 -10.642  15.945  0.00  0.00    -0.205 F 
ATOM     22  C   UNL     1      -4.168 -10.671  16.396  0.00  0.00    +0.003 A 
ATOM     24  C   UNL     1      -2.803 -10.659  16.690  0.00  0.00    +0.048 A 
ATOM     25  C   UNL     1      -4.590 -10.680  15.064  0.00  0.00    +0.010 A 
ATOM     26  C   UNL     1      -1.864 -10.655  15.659  0.00  0.00    +0.124 A 
ATOM     27  C   UNL     1      -3.650 -10.677  14.033  0.00  0.00    +0.003 A 
ATOM     28  C   UNL     1      -2.288 -10.664  14.330  0.00  0.00    +0.038 A 
ENDBRANCH  19  22
ENDBRANCH  12   5
BRANCH  13   6
ATOM      4  O   UNL     1     -14.798  -7.821  14.725  0.00  0.00    -0.253 OA
ATOM      6  N   UNL     1     -13.118  -7.841  16.328  0.00  0.00    -0.292 N 
ATOM      7  N   UNL     1     -15.191  -6.991  16.855  0.00  0.00    -0.300 N 
ATOM     17  C   UNL     1     -14.405  -7.574  15.863  0.00  0.00    +0.300 C 
ATOM     30  H   UNL     1     -12.912  -7.659  17.305  0.00  0.00    +0.151 HD
ATOM     31  H   UNL     1     -14.781  -6.823  17.769  0.00  0.00    +0.150 HD
BRANCH   7  18
ATOM     18  C   UNL     1     -16.567  -6.614  16.642  0.00  0.00    +0.102 C 
ATOM     23  C   UNL     1     -17.195  -6.065  17.907  0.00  0.00    +0.024 C 
ENDBRANCH   7  18
ENDBRANCH  13   6
TORSDOF 4
ENDMDL
MODEL 5
REMARK VINA RESULT:      -6.6      7.372      8.590
REMARK  Name = 11913357
REMARK  5 active torsions:
REMARK  status: ('A' for Active; 'I' for Inactive)
REMARK    1  A    between atoms: N_5  and  C_12
REMARK    2  A    between atoms: N_6  and  C_13
REMARK    3  A    between atoms: N_7  and  C_18
REMARK    4  A    between atoms: C_18  and  C_23
REMARK    5  A    between atoms: C_19  and  C_22
REMARK                            x       y       z     vdW  Elec       q    Type
REMARK                         _______ _______ _______ _____ _____    ______ ____
ROOT
ATOM      2  O   UNL     1     -11.013  -5.818  16.312  0.00  0.00    -0.370 OA
ATOM      3  O   UNL     1     -12.586  -8.049  14.842  0.00  0.00    -0.370 OA
ATOM     10  C   UNL     1     -11.192  -7.694  14.861  0.00  0.00    +0.171 C 
ATOM     11  C   UNL     1     -11.121  -6.180  14.924  0.00  0.00    +0.171 C 
ATOM     12  C   UNL     1     -10.558  -8.145  16.155  0.00  0.00    +0.130 C 
ATOM     13  C   UNL     1     -12.451  -5.723  14.363  0.00  0.00    +0.131 C 
ATOM     14  C   UNL     1     -10.893  -7.010  17.104  0.00  0.00    +0.185 C 
ATOM     15  C   UNL     1     -13.375  -6.850  14.794  0.00  0.00    +0.185 C 
ENDROOT
BRANCH  12   5
ATOM      5  N   UNL     1      -9.124  -8.256  15.991  0.00  0.00    -0.306 N 
ATOM      8  N   UNL     1      -8.971 -10.008  17.544  0.00  0.00    -0.214 NA
ATOM      9  N   UNL     1      -7.008  -9.173  16.425  0.00  0.00    -0.223 NA
ATOM     16  C   UNL     1      -8.344  -9.173  16.674  0.00  0.00    +0.216 A 
ATOM     19  C   UNL     1      -8.180 -10.888  18.193  0.00  0.00    +0.076 A 
ATOM     20  C   UNL     1      -6.278 -10.079  17.107  0.00  0.00    +0.116 A 
ATOM     21  C   UNL     1      -6.815 -10.970  18.012  0.00  0.00    +0.048 A 
ATOM     29  H   UNL     1      -8.655  -7.674  15.306  0.00  0.00    +0.149 HD
BRANCH  19  22
ATOM      1  F   UNL     1     -12.055 -12.005  20.852  0.00  0.00    -0.205 F 
ATOM     22  C   UNL     1      -8.866 -11.766  19.111  0.00  0.00    +0.003 A 
ATOM     24  C   UNL     1     -10.156 -11.457  19.547  0.00  0.00    +0.048 A 
ATOM     25  C   UNL     1      -8.240 -12.929  19.567  0.00  0.00    +0.010 A 
ATOM     26  C   UNL     1     -10.818 -12.305  20.434  0.00  0.00    +0.124 A 
ATOM     27  C   UNL     1      -8.902 -13.778  20.455  0.00  0.00    +0.003 A 
ATOM     28  C   UNL     1     -10.190 -13.466  20.888  0.00  0.00    +0.038 A 
ENDBRANCH  19  22
ENDBRANCH  12   5
BRANCH  13   6
ATOM      4  O   UNL     1     -12.326  -3.345  12.712  0.00  0.00    -0.253 OA
ATOM      6  N   UNL     1     -12.397  -5.659  12.904  0.00  0.00    -0.292 N 
ATOM      7  N   UNL     1     -12.297  -4.687  10.820  0.00  0.00    -0.300 N 
ATOM     17  C   UNL     1     -12.339  -4.461  12.194  0.00  0.00    +0.300 C 
ATOM     30  H   UNL     1     -12.336  -6.529  12.385  0.00  0.00    +0.151 HD
ATOM     31  H   UNL     1     -12.313  -5.645  10.481  0.00  0.00    +0.150 HD
BRANCH   7  18
ATOM     18  C   UNL     1     -12.233  -3.619   9.852  0.00  0.00    +0.102 C 
ATOM     23  C   UNL     1     -10.862  -3.529   9.214  0.00  0.00    +0.024 C 
ENDBRANCH   7  18
ENDBRANCH  13   6
TORSDOF 4
ENDMDL
MODEL 6
REMARK VINA RESULT:      -6.5     26.745     30.816
REMARK  Name = 11913357
REMARK  5 active torsions:
REMARK  status: ('A' for Active; 'I' for Inactive)
REMARK    1  A    between atoms: N_5  and  C_12
REMARK    2  A    between atoms: N_6  and  C_13
REMARK    3  A    between atoms: N_7  and  C_18
REMARK    4  A    between atoms: C_18  and  C_23
REMARK    5  A    between atoms: C_19  and  C_22
REMARK                            x       y       z     vdW  Elec       q    Type
REMARK                         _______ _______ _______ _____ _____    ______ ____
ROOT
ATOM      2  O   UNL     1      19.219  -2.359  32.004  0.00  0.00    -0.370 OA
ATOM      3  O   UNL     1      16.749  -2.327  30.131  0.00  0.00    -0.370 OA
ATOM     10  C   UNL     1      18.060  -1.743  30.021  0.00  0.00    +0.171 C 
ATOM     11  C   UNL     1      18.461  -1.290  31.412  0.00  0.00    +0.171 C 
ATOM     12  C   UNL     1      19.075  -2.805  29.674  0.00  0.00    +0.130 C 
ATOM     13  C   UNL     1      17.144  -1.115  32.138  0.00  0.00    +0.131 C 
ATOM     14  C   UNL     1      19.416  -3.395  31.030  0.00  0.00    +0.185 C 
ATOM     15  C   UNL     1      16.280  -2.177  31.479  0.00  0.00    +0.185 C 
ENDROOT
BRANCH  12   5
ATOM      5  N   UNL     1      20.247  -2.196  29.083  0.00  0.00    -0.306 N 
ATOM      8  N   UNL     1      19.325  -2.254  26.926  0.00  0.00    -0.214 NA
ATOM      9  N   UNL     1      21.524  -1.346  27.307  0.00  0.00    -0.223 NA
ATOM     16  C   UNL     1      20.369  -1.924  27.731  0.00  0.00    +0.216 A 
ATOM     19  C   UNL     1      19.478  -1.976  25.615  0.00  0.00    +0.076 A 
ATOM     20  C   UNL     1      21.610  -1.095  25.984  0.00  0.00    +0.116 A 
ATOM     21  C   UNL     1      20.609  -1.391  25.082  0.00  0.00    +0.048 A 
ATOM     29  H   UNL     1      21.009  -1.898  29.682  0.00  0.00    +0.149 HD
BRANCH  19  22
ATOM      1  F   UNL     1      16.110  -0.798  22.360  0.00  0.00    -0.205 F 
ATOM     22  C   UNL     1      18.358  -2.333  24.778  0.00  0.00    +0.003 A 
ATOM     24  C   UNL     1      17.762  -1.374  23.955  0.00  0.00    +0.048 A 
ATOM     25  C   UNL     1      17.866  -3.641  24.787  0.00  0.00    +0.010 A 
ATOM     26  C   UNL     1      16.680  -1.720  23.147  0.00  0.00    +0.124 A 
ATOM     27  C   UNL     1      16.783  -3.986  23.978  0.00  0.00    +0.003 A 
ATOM     28  C   UNL     1      16.190  -3.026  23.158  0.00  0.00    +0.038 A 
ENDBRANCH  19  22
ENDBRANCH  12   5
BRANCH  13   6
ATOM      4  O   UNL     1      18.051   1.421  33.208  0.00  0.00    -0.253 OA
ATOM      6  N   UNL     1      16.586   0.210  31.875  0.00  0.00    -0.292 N 
ATOM      7  N   UNL     1      16.374   2.497  32.021  0.00  0.00    -0.300 N 
ATOM     17  C   UNL     1      17.092   1.379  32.439  0.00  0.00    +0.300 C 
ATOM     30  H   UNL     1      15.831   0.290  31.200  0.00  0.00    +0.151 HD
ATOM     31  H   UNL     1      15.593   2.367  31.384  0.00  0.00    +0.150 HD
BRANCH   7  18
ATOM     18  C   UNL     1      16.688   3.837  32.454  0.00  0.00    +0.102 C 
ATOM     23  C   UNL     1      16.879   4.772  31.278  0.00  0.00    +0.024 C 
ENDBRANCH   7  18
ENDBRANCH  13   6
TORSDOF 4
ENDMDL
MODEL 7
REMARK VINA RESULT:      -6.4     23.983     26.587
REMARK  Name = 11913357
REMARK  5 active torsions:
REMARK  status: ('A' for Active; 'I' for Inactive)
REMARK    1  A    between atoms: N_5  and  C_12
REMARK    2  A    between atoms: N_6  and  C_13
REMARK    3  A    between atoms: N_7  and  C_18
REMARK    4  A    between atoms: C_18  and  C_23
REMARK    5  A    between atoms: C_19  and  C_22
REMARK                            x       y       z     vdW  Elec       q    Type
REMARK                         _______ _______ _______ _____ _____    ______ ____
ROOT
ATOM      2  O   UNL     1      10.552   4.779   4.890  0.00  0.00    -0.370 OA
ATOM      3  O   UNL     1       9.488   7.158   3.212  0.00  0.00    -0.370 OA
ATOM     10  C   UNL     1      10.816   6.748   3.584  0.00  0.00    +0.171 C 
ATOM     11  C   UNL     1      10.731   6.202   4.997  0.00  0.00    +0.171 C 
ATOM     12  C   UNL     1      11.246   5.561   2.756  0.00  0.00    +0.130 C 
ATOM     13  C   UNL     1       9.488   6.847   5.570  0.00  0.00    +0.131 C 
ATOM     14  C   UNL     1      10.639   4.393   3.510  0.00  0.00    +0.185 C 
ATOM     15  C   UNL     1       8.611   6.986   4.336  0.00  0.00    +0.185 C 
ENDROOT
BRANCH  12   5
ATOM      5  N   UNL     1      12.689   5.460   2.749  0.00  0.00    -0.306 N 
ATOM      8  N   UNL     1      12.730   4.624   0.557  0.00  0.00    -0.214 NA
ATOM      9  N   UNL     1      14.772   4.956   1.792  0.00  0.00    -0.223 NA
ATOM     16  C   UNL     1      13.419   4.999   1.667  0.00  0.00    +0.216 A 
ATOM     19  C   UNL     1      13.473   4.180  -0.478  0.00  0.00    +0.076 A 
ATOM     20  C   UNL     1      15.452   4.503   0.719  0.00  0.00    +0.116 A 
ATOM     21  C   UNL     1      14.850   4.097  -0.454  0.00  0.00    +0.048 A 
ATOM     29  H   UNL     1      13.215   5.787   3.552  0.00  0.00    +0.149 HD
BRANCH  19  22
ATOM      1  F   UNL     1      10.234   1.320  -2.637  0.00  0.00    -0.205 F 
ATOM     22  C   UNL     1      12.722   3.787  -1.647  0.00  0.00    +0.003 A 
ATOM     24  C   UNL     1      11.821   2.722  -1.577  0.00  0.00    +0.048 A 
ATOM     25  C   UNL     1      12.894   4.472  -2.852  0.00  0.00    +0.010 A 
ATOM     26  C   UNL     1      11.096   2.343  -2.706  0.00  0.00    +0.124 A 
ATOM     27  C   UNL     1      12.169   4.092  -3.982  0.00  0.00    +0.003 A 
ATOM     28  C   UNL     1      11.270   3.028  -3.909  0.00  0.00    +0.038 A 
ENDBRANCH  19  22
ENDBRANCH  12   5
BRANCH  13   6
ATOM      4  O   UNL     1       8.618   7.967   8.097  0.00  0.00    -0.253 OA
ATOM      6  N   UNL     1       9.798   8.170   6.107  0.00  0.00    -0.292 N 
ATOM      7  N   UNL     1       9.774   9.917   7.606  0.00  0.00    -0.300 N 
ATOM     17  C   UNL     1       9.330   8.624   7.340  0.00  0.00    +0.300 C 
ATOM     30  H   UNL     1      10.434   8.766   5.586  0.00  0.00    +0.151 HD
ATOM     31  H   UNL     1      10.360  10.385   6.920  0.00  0.00    +0.150 HD
BRANCH   7  18
ATOM     18  C   UNL     1       9.437  10.627   8.817  0.00  0.00    +0.102 C 
ATOM     23  C   UNL     1      10.677  11.113   9.539  0.00  0.00    +0.024 C 
ENDBRANCH   7  18
ENDBRANCH  13   6
TORSDOF 4
ENDMDL
MODEL 8
REMARK VINA RESULT:      -6.4      2.712      4.013
REMARK  Name = 11913357
REMARK  5 active torsions:
REMARK  status: ('A' for Active; 'I' for Inactive)
REMARK    1  A    between atoms: N_5  and  C_12
REMARK    2  A    between atoms: N_6  and  C_13
REMARK    3  A    between atoms: N_7  and  C_18
REMARK    4  A    between atoms: C_18  and  C_23
REMARK    5  A    between atoms: C_19  and  C_22
REMARK                            x       y       z     vdW  Elec       q    Type
REMARK                         _______ _______ _______ _____ _____    ______ ____
ROOT
ATOM      2  O   UNL     1      -5.820 -11.206  10.709  0.00  0.00    -0.370 OA
ATOM      3  O   UNL     1      -4.448  -8.432  10.532  0.00  0.00    -0.370 OA
ATOM     10  C   UNL     1      -5.802  -8.830  10.810  0.00  0.00    +0.171 C 
ATOM     11  C   UNL     1      -6.100 -10.029   9.930  0.00  0.00    +0.171 C 
ATOM     12  C   UNL     1      -5.909  -9.370  12.216  0.00  0.00    +0.130 C 
ATOM     13  C   UNL     1      -5.112  -9.907   8.790  0.00  0.00    +0.131 C 
ATOM     14  C   UNL     1      -5.483 -10.817  12.050  0.00  0.00    +0.185 C 
ATOM     15  C   UNL     1      -3.925  -9.248   9.474  0.00  0.00    +0.185 C 
ENDROOT
BRANCH  12   5
ATOM      5  N   UNL     1      -7.280  -9.299  12.671  0.00  0.00    -0.306 N 
ATOM      8  N   UNL     1      -6.723 -10.051  14.822  0.00  0.00    -0.214 NA
ATOM      9  N   UNL     1      -9.002  -9.519  14.250  0.00  0.00    -0.223 NA
ATOM     16  C   UNL     1      -7.681  -9.633  13.953  0.00  0.00    +0.216 A 
ATOM     19  C   UNL     1      -7.148 -10.368  16.062  0.00  0.00    +0.076 A 
ATOM     20  C   UNL     1      -9.357  -9.852  15.508  0.00  0.00    +0.116 A 
ATOM     21  C   UNL     1      -8.465 -10.288  16.466  0.00  0.00    +0.048 A 
ATOM     29  H   UNL     1      -7.994  -8.939  12.046  0.00  0.00    +0.149 HD
BRANCH  19  22
ATOM      1  F   UNL     1      -2.488 -11.098  17.102  0.00  0.00    -0.205 F 
ATOM     22  C   UNL     1      -6.115 -10.808  16.970  0.00  0.00    +0.003 A 
ATOM     24  C   UNL     1      -4.772 -10.739  16.592  0.00  0.00    +0.048 A 
ATOM     25  C   UNL     1      -6.455 -11.305  18.231  0.00  0.00    +0.010 A 
ATOM     26  C   UNL     1      -3.775 -11.164  17.468  0.00  0.00    +0.124 A 
ATOM     27  C   UNL     1      -5.457 -11.730  19.108  0.00  0.00    +0.003 A 
ATOM     28  C   UNL     1      -4.117 -11.660  18.727  0.00  0.00    +0.038 A 
ENDBRANCH  19  22
ENDBRANCH  12   5
BRANCH  13   6
ATOM      4  O   UNL     1      -6.803 -10.634   6.551  0.00  0.00    -0.253 OA
ATOM      6  N   UNL     1      -5.637  -9.023   7.751  0.00  0.00    -0.292 N 
ATOM      7  N   UNL     1      -6.803  -8.419   5.860  0.00  0.00    -0.300 N 
ATOM     17  C   UNL     1      -6.446  -9.467   6.706  0.00  0.00    +0.300 C 
ATOM     30  H   UNL     1      -5.453  -8.027   7.826  0.00  0.00    +0.151 HD
ATOM     31  H   UNL     1      -6.460  -7.486   6.066  0.00  0.00    +0.150 HD
BRANCH   7  18
ATOM     18  C   UNL     1      -7.639  -8.602   4.698  0.00  0.00    +0.102 C 
ATOM     23  C   UNL     1      -8.882  -7.740   4.768  0.00  0.00    +0.024 C 
ENDBRANCH   7  18
ENDBRANCH  13   6
TORSDOF 4
ENDMDL
MODEL 9
REMARK VINA RESULT:      -6.4     23.131     24.601
REMARK  Name = 11913357
REMARK  5 active torsions:
REMARK  status: ('A' for Active; 'I' for Inactive)
REMARK    1  A    between atoms: N_5  and  C_12
REMARK    2  A    between atoms: N_6  and  C_13
REMARK    3  A    between atoms: N_7  and  C_18
REMARK    4  A    between atoms: C_18  and  C_23
REMARK    5  A    between atoms: C_19  and  C_22
REMARK                            x       y       z     vdW  Elec       q    Type
REMARK                         _______ _______ _______ _____ _____    ______ ____
ROOT
ATOM      2  O   UNL     1       6.281  12.079   1.902  0.00  0.00    -0.370 OA
ATOM      3  O   UNL     1       5.310  10.693   4.500  0.00  0.00    -0.370 OA
ATOM     10  C   UNL     1       5.886  10.184   3.284  0.00  0.00    +0.171 C 
ATOM     11  C   UNL     1       5.335  11.023   2.147  0.00  0.00    +0.171 C 
ATOM     12  C   UNL     1       7.371  10.458   3.256  0.00  0.00    +0.130 C 
ATOM     13  C   UNL     1       4.045  11.591   2.698  0.00  0.00    +0.131 C 
ATOM     14  C   UNL     1       7.437  11.879   2.730  0.00  0.00    +0.185 C 
ATOM     15  C   UNL     1       4.370  11.728   4.177  0.00  0.00    +0.185 C 
ENDROOT
BRANCH  12   5
ATOM      5  N   UNL     1       8.024   9.551   2.338  0.00  0.00    -0.306 N 
ATOM      8  N   UNL     1       8.661   8.089   4.059  0.00  0.00    -0.214 NA
ATOM      9  N   UNL     1       9.232   7.622   1.765  0.00  0.00    -0.223 NA
ATOM     16  C   UNL     1       8.658   8.386   2.732  0.00  0.00    +0.216 A 
ATOM     19  C   UNL     1       9.287   6.946   4.408  0.00  0.00    +0.076 A 
ATOM     20  C   UNL     1       9.840   6.493   2.184  0.00  0.00    +0.116 A 
ATOM     21  C   UNL     1       9.900   6.101   3.505  0.00  0.00    +0.048 A 
ATOM     29  H   UNL     1       7.983   9.737   1.342  0.00  0.00    +0.149 HD
BRANCH  19  22
ATOM      1  F   UNL     1      10.059   3.899   8.075  0.00  0.00    -0.205 F 
ATOM     22  C   UNL     1       9.277   6.649   5.820  0.00  0.00    +0.003 A 
ATOM     24  C   UNL     1       9.682   5.393   6.276  0.00  0.00    +0.048 A 
ATOM     25  C   UNL     1       8.862   7.618   6.737  0.00  0.00    +0.010 A 
ATOM     26  C   UNL     1       9.671   5.106   7.641  0.00  0.00    +0.124 A 
ATOM     27  C   UNL     1       8.852   7.331   8.102  0.00  0.00    +0.003 A 
ATOM     28  C   UNL     1       9.257   6.076   8.554  0.00  0.00    +0.038 A 
ENDBRANCH  19  22
ENDBRANCH  12   5
BRANCH  13   6
ATOM      4  O   UNL     1       1.223  12.193   2.420  0.00  0.00    -0.253 OA
ATOM      6  N   UNL     1       2.949  10.641   2.519  0.00  0.00    -0.292 N 
ATOM      7  N   UNL     1       0.780   9.923   2.237  0.00  0.00    -0.300 N 
ATOM     17  C   UNL     1       1.615  11.027   2.395  0.00  0.00    +0.300 C 
ATOM     30  H   UNL     1       3.175   9.656   2.420  0.00  0.00    +0.151 HD
ATOM     31  H   UNL     1       1.192   8.994   2.229  0.00  0.00    +0.150 HD
BRANCH   7  18
ATOM     18  C   UNL     1      -0.650  10.038   2.084  0.00  0.00    +0.102 C 
ATOM     23  C   UNL     1      -1.106   9.544   0.727  0.00  0.00    +0.024 C 
ENDBRANCH   7  18
ENDBRANCH  13   6
TORSDOF 4
ENDMDL
MODEL 10
REMARK VINA RESULT:      -6.0     25.612     27.038
REMARK  Name = 11913357
REMARK  5 active torsions:
REMARK  status: ('A' for Active; 'I' for Inactive)
REMARK    1  A    between atoms: N_5  and  C_12
REMARK    2  A    between atoms: N_6  and  C_13
REMARK    3  A    between atoms: N_7  and  C_18
REMARK    4  A    between atoms: C_18  and  C_23
REMARK    5  A    between atoms: C_19  and  C_22
REMARK                            x       y       z     vdW  Elec       q    Type
REMARK                         _______ _______ _______ _____ _____    ______ ____
ROOT
ATOM      2  O   UNL     1      14.602   6.942   0.129  0.00  0.00    -0.370 OA
ATOM      3  O   UNL     1      14.258   3.949   0.862  0.00  0.00    -0.370 OA
ATOM     10  C   UNL     1      15.004   5.019   1.470  0.00  0.00    +0.171 C 
ATOM     11  C   UNL     1      15.546   5.877   0.343  0.00  0.00    +0.171 C 
ATOM     12  C   UNL     1      14.073   5.942   2.220  0.00  0.00    +0.130 C 
ATOM     13  C   UNL     1      15.569   4.949  -0.852  0.00  0.00    +0.131 C 
ATOM     14  C   UNL     1      13.572   6.868   1.127  0.00  0.00    +0.185 C 
ATOM     15  C   UNL     1      14.385   4.040  -0.565  0.00  0.00    +0.185 C 
ENDROOT
BRANCH  12   5
ATOM      5  N   UNL     1      14.812   6.690   3.213  0.00  0.00    -0.306 N 
ATOM      8  N   UNL     1      12.909   7.013   4.547  0.00  0.00    -0.214 NA
ATOM      9  N   UNL     1      15.049   7.897   5.211  0.00  0.00    -0.223 NA
ATOM     16  C   UNL     1      14.240   7.216   4.358  0.00  0.00    +0.216 A 
ATOM     19  C   UNL     1      12.384   7.539   5.673  0.00  0.00    +0.076 A 
ATOM     20  C   UNL     1      14.460   8.396   6.317  0.00  0.00    +0.116 A 
ATOM     21  C   UNL     1      13.118   8.247   6.603  0.00  0.00    +0.048 A 
ATOM     29  H   UNL     1      15.815   6.802   3.107  0.00  0.00    +0.149 HD
BRANCH  19  22
ATOM      1  F   UNL     1       8.508   7.202   8.534  0.00  0.00    -0.205 F 
ATOM     22  C   UNL     1      10.971   7.311   5.855  0.00  0.00    +0.003 A 
ATOM     24  C   UNL     1      10.409   7.369   7.132  0.00  0.00    +0.048 A 
ATOM     25  C   UNL     1      10.159   7.031   4.753  0.00  0.00    +0.010 A 
ATOM     26  C   UNL     1       9.044   7.148   7.308  0.00  0.00    +0.124 A 
ATOM     27  C   UNL     1       8.793   6.810   4.929  0.00  0.00    +0.003 A 
ATOM     28  C   UNL     1       8.235   6.868   6.205  0.00  0.00    +0.038 A 
ENDBRANCH  19  22
ENDBRANCH  12   5
BRANCH  13   6
ATOM      4  O   UNL     1      17.815   5.233  -2.661  0.00  0.00    -0.253 OA
ATOM      6  N   UNL     1      16.802   4.163  -0.866  0.00  0.00    -0.292 N 
ATOM      7  N   UNL     1      18.887   3.488  -1.571  0.00  0.00    -0.300 N 
ATOM     17  C   UNL     1      17.832   4.374  -1.781  0.00  0.00    +0.300 C 
ATOM     30  H   UNL     1      16.941   3.471  -0.136  0.00  0.00    +0.151 HD
ATOM     31  H   UNL     1      18.813   2.809  -0.819  0.00  0.00    +0.150 HD
BRANCH   7  18
ATOM     18  C   UNL     1      20.083   3.489  -2.378  0.00  0.00    +0.102 C 
ATOM     23  C   UNL     1      20.940   2.271  -2.103  0.00  0.00    +0.024 C 
ENDBRANCH   7  18
ENDBRANCH  13   6
TORSDOF 4
ENDMDL
