MODEL 1
REMARK VINA RESULT:      -6.9      0.000      0.000
REMARK  Name = 45783473
REMARK  10 active torsions:
REMARK  status: ('A' for Active; 'I' for Inactive)
REMARK    1  A    between atoms: O_2  and  C_29
REMARK    2  A    between atoms: O_2  and  C_30
REMARK    3  A    between atoms: N_3  and  C_13
REMARK    4  A    between atoms: N_7  and  C_26
REMARK    5  A    between atoms: N_7  and  C_28
REMARK    6  A    between atoms: C_9  and  C_14
REMARK    7  A    between atoms: C_13  and  C_15
REMARK    8  A    between atoms: C_18  and  C_21
REMARK    9  A    between atoms: C_22  and  C_27
REMARK   10  A    between atoms: C_28  and  C_29
REMARK                            x       y       z     vdW  Elec       q    Type
REMARK                         _______ _______ _______ _____ _____    ______ ____
ROOT
ATOM      1  O   UNL     1      15.115   8.939  19.662  0.00  0.00    -0.336 OA
ATOM      4  N   UNL     1      15.946   6.914  19.190  0.00  0.00    -0.190 NA
ATOM      5  N   UNL     1      16.294   8.818  20.409  0.00  0.00    -0.056 NA
ATOM     14  C   UNL     1      14.985   7.775  18.974  0.00  0.00    +0.245 A 
ATOM     18  C   UNL     1      16.726   7.598  20.077  0.00  0.00    +0.204 A 
ENDROOT
BRANCH  18  21
ATOM      6  N   UNL     1      19.656   7.076  22.305  0.00  0.00    -0.240 NA
ATOM     21  C   UNL     1      17.930   7.032  20.613  0.00  0.00    +0.041 A 
ATOM     23  C   UNL     1      18.537   5.935  20.011  0.00  0.00    +0.016 A 
ATOM     24  C   UNL     1      18.523   7.559  21.748  0.00  0.00    +0.124 A 
ATOM     25  C   UNL     1      19.703   5.409  20.554  0.00  0.00    +0.044 A 
ATOM     26  C   UNL     1      20.218   6.009  21.691  0.00  0.00    +0.119 A 
BRANCH  26   7
ATOM      7  N   UNL     1      21.406   5.461  22.234  0.00  0.00    -0.327 N 
ATOM     31  H   UNL     1      21.739   5.871  23.099  0.00  0.00    +0.148 HD
BRANCH   7  28
ATOM     28  C   UNL     1      22.116   4.391  21.610  0.00  0.00    +0.131 C 
BRANCH  28  29
ATOM     29  C   UNL     1      22.977   3.672  22.633  0.00  0.00    +0.178 C 
BRANCH  29   2
ATOM      2  O   UNL     1      22.210   3.416  23.803  0.00  0.00    -0.381 OA
ATOM     30  C   UNL     1      22.673   2.261  24.488  0.00  0.00    +0.194 C 
ENDBRANCH  29   2
ENDBRANCH  28  29
ENDBRANCH   7  28
ENDBRANCH  26   7
ENDBRANCH  18  21
BRANCH  14   9
ATOM      3  N   UNL     1      12.649   8.504  18.521  0.00  0.00    -0.287 NA
ATOM      9  C   UNL     1      13.770   7.655  18.076  0.00  0.00    +0.146 C 
ATOM     10  C   UNL     1      14.053   8.105  16.631  0.00  0.00    +0.030 C 
ATOM     11  C   UNL     1      13.003   9.165  16.332  0.00  0.00    +0.017 C 
ATOM     12  C   UNL     1      11.894   8.857  17.319  0.00  0.00    +0.085 C 
BRANCH   3  13
ATOM     13  C   UNL     1      11.810   7.868  19.528  0.00  0.00    +0.120 C 
BRANCH  13  15
ATOM     15  C   UNL     1      11.542   8.781  20.695  0.00  0.00    -0.033 A 
ATOM     16  C   UNL     1      11.983  10.103  20.662  0.00  0.00    +0.006 A 
ATOM     17  C   UNL     1      10.852   8.302  21.809  0.00  0.00    +0.006 A 
ATOM     19  C   UNL     1      11.735  10.948  21.744  0.00  0.00    +0.019 A 
ATOM     20  C   UNL     1      10.604   9.147  22.891  0.00  0.00    +0.019 A 
ATOM     22  C   UNL     1      11.044  10.470  22.858  0.00  0.00    +0.052 A 
BRANCH  22  27
ATOM      8  N   UNL     1      10.583  12.038  24.866  0.00  0.00    -0.191 NA
ATOM     27  C   UNL     1      10.790  11.336  23.966  0.00  0.00    +0.099 C 
ENDBRANCH  22  27
ENDBRANCH  13  15
ENDBRANCH   3  13
ENDBRANCH  14   9
TORSDOF 9
ENDMDL
MODEL 2
REMARK VINA RESULT:      -6.7      1.959      2.453
REMARK  Name = 45783473
REMARK  10 active torsions:
REMARK  status: ('A' for Active; 'I' for Inactive)
REMARK    1  A    between atoms: O_2  and  C_29
REMARK    2  A    between atoms: O_2  and  C_30
REMARK    3  A    between atoms: N_3  and  C_13
REMARK    4  A    between atoms: N_7  and  C_26
REMARK    5  A    between atoms: N_7  and  C_28
REMARK    6  A    between atoms: C_9  and  C_14
REMARK    7  A    between atoms: C_13  and  C_15
REMARK    8  A    between atoms: C_18  and  C_21
REMARK    9  A    between atoms: C_22  and  C_27
REMARK   10  A    between atoms: C_28  and  C_29
REMARK                            x       y       z     vdW  Elec       q    Type
REMARK                         _______ _______ _______ _____ _____    ______ ____
ROOT
ATOM      1  O   UNL     1      14.048   6.744  20.198  0.00  0.00    -0.336 OA
ATOM      4  N   UNL     1      15.787   7.435  18.968  0.00  0.00    -0.190 NA
ATOM      5  N   UNL     1      15.188   6.531  20.983  0.00  0.00    -0.056 NA
ATOM     14  C   UNL     1      14.490   7.278  19.029  0.00  0.00    +0.245 A 
ATOM     18  C   UNL     1      16.173   6.964  20.190  0.00  0.00    +0.204 A 
ENDROOT
BRANCH  18  21
ATOM      6  N   UNL     1      19.350   7.918  21.867  0.00  0.00    -0.240 NA
ATOM     21  C   UNL     1      17.551   6.937  20.586  0.00  0.00    +0.041 A 
ATOM     23  C   UNL     1      18.415   5.956  20.111  0.00  0.00    +0.016 A 
ATOM     24  C   UNL     1      18.063   7.886  21.455  0.00  0.00    +0.124 A 
ATOM     25  C   UNL     1      19.746   5.956  20.512  0.00  0.00    +0.044 A 
ATOM     26  C   UNL     1      20.160   6.949  21.384  0.00  0.00    +0.119 A 
BRANCH  26   7
ATOM      7  N   UNL     1      21.519   6.935  21.786  0.00  0.00    -0.327 N 
ATOM     31  H   UNL     1      21.708   7.189  22.748  0.00  0.00    +0.148 HD
BRANCH   7  28
ATOM     28  C   UNL     1      22.582   6.590  20.897  0.00  0.00    +0.131 C 
BRANCH  28  29
ATOM     29  C   UNL     1      23.337   7.840  20.480  0.00  0.00    +0.178 C 
BRANCH  29   2
ATOM      2  O   UNL     1      22.563   8.571  19.538  0.00  0.00    -0.381 OA
ATOM     30  C   UNL     1      23.329   9.589  18.910  0.00  0.00    +0.194 C 
ENDBRANCH  29   2
ENDBRANCH  28  29
ENDBRANCH   7  28
ENDBRANCH  26   7
ENDBRANCH  18  21
BRANCH  14   9
ATOM      3  N   UNL     1      12.558   8.719  18.409  0.00  0.00    -0.287 NA
ATOM      9  C   UNL     1      13.432   7.605  17.994  0.00  0.00    +0.146 C 
ATOM     10  C   UNL     1      14.036   8.059  16.653  0.00  0.00    +0.030 C 
ATOM     11  C   UNL     1      13.395   9.410  16.366  0.00  0.00    +0.017 C 
ATOM     12  C   UNL     1      12.117   9.379  17.180  0.00  0.00    +0.085 C 
BRANCH   3  13
ATOM     13  C   UNL     1      11.435   8.292  19.234  0.00  0.00    +0.120 C 
BRANCH  13  15
ATOM     15  C   UNL     1      11.404   9.012  20.556  0.00  0.00    -0.033 A 
ATOM     16  C   UNL     1      12.041  10.245  20.694  0.00  0.00    +0.006 A 
ATOM     17  C   UNL     1      10.735   8.446  21.642  0.00  0.00    +0.006 A 
ATOM     19  C   UNL     1      12.011  10.912  21.919  0.00  0.00    +0.019 A 
ATOM     20  C   UNL     1      10.706   9.113  22.867  0.00  0.00    +0.019 A 
ATOM     22  C   UNL     1      11.343  10.346  23.005  0.00  0.00    +0.052 A 
BRANCH  22  27
ATOM      8  N   UNL     1      11.287  11.584  25.278  0.00  0.00    -0.191 NA
ATOM     27  C   UNL     1      11.312  11.029  24.260  0.00  0.00    +0.099 C 
ENDBRANCH  22  27
ENDBRANCH  13  15
ENDBRANCH   3  13
ENDBRANCH  14   9
TORSDOF 9
ENDMDL
MODEL 3
REMARK VINA RESULT:      -6.3     27.251     31.735
REMARK  Name = 45783473
REMARK  10 active torsions:
REMARK  status: ('A' for Active; 'I' for Inactive)
REMARK    1  A    between atoms: O_2  and  C_29
REMARK    2  A    between atoms: O_2  and  C_30
REMARK    3  A    between atoms: N_3  and  C_13
REMARK    4  A    between atoms: N_7  and  C_26
REMARK    5  A    between atoms: N_7  and  C_28
REMARK    6  A    between atoms: C_9  and  C_14
REMARK    7  A    between atoms: C_13  and  C_15
REMARK    8  A    between atoms: C_18  and  C_21
REMARK    9  A    between atoms: C_22  and  C_27
REMARK   10  A    between atoms: C_28  and  C_29
REMARK                            x       y       z     vdW  Elec       q    Type
REMARK                         _______ _______ _______ _____ _____    ______ ____
ROOT
ATOM      1  O   UNL     1     -16.798   3.290  22.176  0.00  0.00    -0.336 OA
ATOM      4  N   UNL     1     -16.587   4.421  24.098  0.00  0.00    -0.190 NA
ATOM      5  N   UNL     1     -16.805   2.330  23.196  0.00  0.00    -0.056 NA
ATOM     14  C   UNL     1     -16.666   4.493  22.794  0.00  0.00    +0.245 A 
ATOM     18  C   UNL     1     -16.677   3.074  24.299  0.00  0.00    +0.204 A 
ENDROOT
BRANCH  18  21
ATOM      6  N   UNL     1     -16.005   2.718  27.938  0.00  0.00    -0.240 NA
ATOM     21  C   UNL     1     -16.635   2.504  25.614  0.00  0.00    +0.041 A 
ATOM     23  C   UNL     1     -17.153   1.238  25.863  0.00  0.00    +0.016 A 
ATOM     24  C   UNL     1     -16.077   3.197  26.675  0.00  0.00    +0.124 A 
ATOM     25  C   UNL     1     -17.097   0.711  27.149  0.00  0.00    +0.044 A 
ATOM     26  C   UNL     1     -16.518   1.484  28.142  0.00  0.00    +0.119 A 
BRANCH  26   7
ATOM      7  N   UNL     1     -16.470   0.935  29.447  0.00  0.00    -0.327 N 
ATOM     31  H   UNL     1     -17.242   0.335  29.714  0.00  0.00    +0.148 HD
BRANCH   7  28
ATOM     28  C   UNL     1     -15.403   1.202  30.357  0.00  0.00    +0.131 C 
BRANCH  28  29
ATOM     29  C   UNL     1     -14.833  -0.101  30.887  0.00  0.00    +0.178 C 
BRANCH  29   2
ATOM      2  O   UNL     1     -14.662  -1.016  29.813  0.00  0.00    -0.381 OA
ATOM     30  C   UNL     1     -13.334  -0.984  29.307  0.00  0.00    +0.194 C 
ENDBRANCH  29   2
ENDBRANCH  28  29
ENDBRANCH   7  28
ENDBRANCH  26   7
ENDBRANCH  18  21
BRANCH  14   9
ATOM      3  N   UNL     1     -15.309   5.928  21.280  0.00  0.00    -0.287 NA
ATOM      9  C   UNL     1     -16.633   5.713  21.895  0.00  0.00    +0.146 C 
ATOM     10  C   UNL     1     -17.604   5.601  20.706  0.00  0.00    +0.030 C 
ATOM     11  C   UNL     1     -16.746   5.827  19.469  0.00  0.00    +0.017 C 
ATOM     12  C   UNL     1     -15.551   6.593  20.000  0.00  0.00    +0.085 C 
BRANCH   3  13
ATOM     13  C   UNL     1     -14.397   6.685  22.127  0.00  0.00    +0.120 C 
BRANCH  13  15
ATOM     15  C   UNL     1     -13.400   7.471  21.318  0.00  0.00    -0.033 A 
ATOM     16  C   UNL     1     -12.284   6.835  20.776  0.00  0.00    +0.006 A 
ATOM     17  C   UNL     1     -13.594   8.837  21.110  0.00  0.00    +0.006 A 
ATOM     19  C   UNL     1     -11.361   7.564  20.026  0.00  0.00    +0.019 A 
ATOM     20  C   UNL     1     -12.670   9.566  20.361  0.00  0.00    +0.019 A 
ATOM     22  C   UNL     1     -11.555   8.930  19.818  0.00  0.00    +0.052 A 
BRANCH  22  27
ATOM      8  N   UNL     1      -9.841  10.283  18.427  0.00  0.00    -0.191 NA
ATOM     27  C   UNL     1     -10.609   9.676  19.050  0.00  0.00    +0.099 C 
ENDBRANCH  22  27
ENDBRANCH  13  15
ENDBRANCH   3  13
ENDBRANCH  14   9
TORSDOF 9
ENDMDL
MODEL 4
REMARK VINA RESULT:      -6.1     26.507     30.208
REMARK  Name = 45783473
REMARK  10 active torsions:
REMARK  status: ('A' for Active; 'I' for Inactive)
REMARK    1  A    between atoms: O_2  and  C_29
REMARK    2  A    between atoms: O_2  and  C_30
REMARK    3  A    between atoms: N_3  and  C_13
REMARK    4  A    between atoms: N_7  and  C_26
REMARK    5  A    between atoms: N_7  and  C_28
REMARK    6  A    between atoms: C_9  and  C_14
REMARK    7  A    between atoms: C_13  and  C_15
REMARK    8  A    between atoms: C_18  and  C_21
REMARK    9  A    between atoms: C_22  and  C_27
REMARK   10  A    between atoms: C_28  and  C_29
REMARK                            x       y       z     vdW  Elec       q    Type
REMARK                         _______ _______ _______ _____ _____    ______ ____
ROOT
ATOM      1  O   UNL     1      -5.357 -12.249  15.908  0.00  0.00    -0.336 OA
ATOM      4  N   UNL     1      -5.458 -10.058  15.458  0.00  0.00    -0.190 NA
ATOM      5  N   UNL     1      -6.670 -11.854  16.193  0.00  0.00    -0.056 NA
ATOM     14  C   UNL     1      -4.711 -11.133  15.482  0.00  0.00    +0.245 A 
ATOM     18  C   UNL     1      -6.651 -10.549  15.902  0.00  0.00    +0.204 A 
ENDROOT
BRANCH  18  21
ATOM      6  N   UNL     1      -9.742  -8.672  15.039  0.00  0.00    -0.240 NA
ATOM     21  C   UNL     1      -7.805  -9.710  16.046  0.00  0.00    +0.041 A 
ATOM     23  C   UNL     1      -8.120  -9.128  17.269  0.00  0.00    +0.016 A 
ATOM     24  C   UNL     1      -8.641  -9.454  14.972  0.00  0.00    +0.124 A 
ATOM     25  C   UNL     1      -9.244  -8.318  17.379  0.00  0.00    +0.044 A 
ATOM     26  C   UNL     1     -10.016  -8.124  16.245  0.00  0.00    +0.119 A 
BRANCH  26   7
ATOM      7  N   UNL     1     -11.160  -7.298  16.371  0.00  0.00    -0.327 N 
ATOM     31  H   UNL     1     -11.955  -7.698  16.856  0.00  0.00    +0.148 HD
BRANCH   7  28
ATOM     28  C   UNL     1     -11.214  -5.970  15.848  0.00  0.00    +0.131 C 
BRANCH  28  29
ATOM     29  C   UNL     1     -12.377  -5.840  14.880  0.00  0.00    +0.178 C 
BRANCH  29   2
ATOM      2  O   UNL     1     -12.021  -4.952  13.828  0.00  0.00    -0.381 OA
ATOM     30  C   UNL     1     -13.170  -4.405  13.197  0.00  0.00    +0.194 C 
ENDBRANCH  29   2
ENDBRANCH  28  29
ENDBRANCH   7  28
ENDBRANCH  26   7
ENDBRANCH  18  21
BRANCH  14   9
ATOM      3  N   UNL     1      -2.882 -10.509  13.914  0.00  0.00    -0.287 NA
ATOM      9  C   UNL     1      -3.253 -11.299  15.104  0.00  0.00    +0.146 C 
ATOM     10  C   UNL     1      -2.296 -10.816  16.208  0.00  0.00    +0.030 C 
ATOM     11  C   UNL     1      -1.385  -9.802  15.530  0.00  0.00    +0.017 C 
ATOM     12  C   UNL     1      -1.466 -10.176  14.063  0.00  0.00    +0.085 C 
BRANCH   3  13
ATOM     13  C   UNL     1      -3.153 -11.198  12.659  0.00  0.00    +0.120 C 
BRANCH  13  15
ATOM     15  C   UNL     1      -4.066 -10.401  11.766  0.00  0.00    -0.033 A 
ATOM     16  C   UNL     1      -5.443 -10.410  11.988  0.00  0.00    +0.006 A 
ATOM     17  C   UNL     1      -3.534  -9.652  10.716  0.00  0.00    +0.006 A 
ATOM     19  C   UNL     1      -6.288  -9.671  11.161  0.00  0.00    +0.019 A 
ATOM     20  C   UNL     1      -4.379  -8.913   9.889  0.00  0.00    +0.019 A 
ATOM     22  C   UNL     1      -5.756  -8.922  10.111  0.00  0.00    +0.052 A 
BRANCH  22  27
ATOM      8  N   UNL     1      -7.325  -7.550   8.575  0.00  0.00    -0.191 NA
ATOM     27  C   UNL     1      -6.622  -8.164   9.263  0.00  0.00    +0.099 C 
ENDBRANCH  22  27
ENDBRANCH  13  15
ENDBRANCH   3  13
ENDBRANCH  14   9
TORSDOF 9
ENDMDL
MODEL 5
REMARK VINA RESULT:      -6.0      5.631      9.659
REMARK  Name = 45783473
REMARK  10 active torsions:
REMARK  status: ('A' for Active; 'I' for Inactive)
REMARK    1  A    between atoms: O_2  and  C_29
REMARK    2  A    between atoms: O_2  and  C_30
REMARK    3  A    between atoms: N_3  and  C_13
REMARK    4  A    between atoms: N_7  and  C_26
REMARK    5  A    between atoms: N_7  and  C_28
REMARK    6  A    between atoms: C_9  and  C_14
REMARK    7  A    between atoms: C_13  and  C_15
REMARK    8  A    between atoms: C_18  and  C_21
REMARK    9  A    between atoms: C_22  and  C_27
REMARK   10  A    between atoms: C_28  and  C_29
REMARK                            x       y       z     vdW  Elec       q    Type
REMARK                         _______ _______ _______ _____ _____    ______ ____
ROOT
ATOM      1  O   UNL     1      14.817  10.537  14.573  0.00  0.00    -0.336 OA
ATOM      4  N   UNL     1      14.489  10.936  16.752  0.00  0.00    -0.190 NA
ATOM      5  N   UNL     1      14.290   9.356  15.109  0.00  0.00    -0.056 NA
ATOM     14  C   UNL     1      14.902  11.415  15.606  0.00  0.00    +0.245 A 
ATOM     18  C   UNL     1      14.123   9.670  16.397  0.00  0.00    +0.204 A 
ENDROOT
BRANCH  18  21
ATOM      6  N   UNL     1      11.699   7.503  18.202  0.00  0.00    -0.240 NA
ATOM     21  C   UNL     1      13.594   8.742  17.355  0.00  0.00    +0.041 A 
ATOM     23  C   UNL     1      14.406   8.187  18.338  0.00  0.00    +0.016 A 
ATOM     24  C   UNL     1      12.260   8.370  17.330  0.00  0.00    +0.124 A 
ATOM     25  C   UNL     1      13.866   7.290  19.253  0.00  0.00    +0.044 A 
ATOM     26  C   UNL     1      12.519   6.984  19.144  0.00  0.00    +0.119 A 
BRANCH  26   7
ATOM      7  N   UNL     1      11.983   6.068  20.082  0.00  0.00    -0.327 N 
ATOM     31  H   UNL     1      11.768   5.140  19.736  0.00  0.00    +0.148 HD
BRANCH   7  28
ATOM     28  C   UNL     1      11.746   6.414  21.447  0.00  0.00    +0.131 C 
BRANCH  28  29
ATOM     29  C   UNL     1      10.736   7.545  21.529  0.00  0.00    +0.178 C 
BRANCH  29   2
ATOM      2  O   UNL     1      11.103   8.433  22.576  0.00  0.00    -0.381 OA
ATOM     30  C   UNL     1      12.136   9.320  22.171  0.00  0.00    +0.194 C 
ENDBRANCH  29   2
ENDBRANCH  28  29
ENDBRANCH   7  28
ENDBRANCH  26   7
ENDBRANCH  18  21
BRANCH  14   9
ATOM      3  N   UNL     1      16.874  12.756  14.894  0.00  0.00    -0.287 NA
ATOM      9  C   UNL     1      15.450  12.789  15.282  0.00  0.00    +0.146 C 
ATOM     10  C   UNL     1      14.735  13.447  14.088  0.00  0.00    +0.030 C 
ATOM     11  C   UNL     1      15.843  13.804  13.107  0.00  0.00    +0.017 C 
ATOM     12  C   UNL     1      17.080  13.878  13.979  0.00  0.00    +0.085 C 
BRANCH   3  13
ATOM     13  C   UNL     1      17.782  12.802  16.032  0.00  0.00    +0.120 C 
BRANCH  13  15
ATOM     15  C   UNL     1      19.204  12.515  15.629  0.00  0.00    -0.033 A 
ATOM     16  C   UNL     1      20.245  13.284  16.148  0.00  0.00    +0.006 A 
ATOM     17  C   UNL     1      19.479  11.478  14.738  0.00  0.00    +0.006 A 
ATOM     19  C   UNL     1      21.562  13.018  15.775  0.00  0.00    +0.019 A 
ATOM     20  C   UNL     1      20.797  11.211  14.364  0.00  0.00    +0.019 A 
ATOM     22  C   UNL     1      21.838  11.980  14.883  0.00  0.00    +0.052 A 
BRANCH  22  27
ATOM      8  N   UNL     1      24.283  11.485  14.190  0.00  0.00    -0.191 NA
ATOM     27  C   UNL     1      23.187  11.707  14.501  0.00  0.00    +0.099 C 
ENDBRANCH  22  27
ENDBRANCH  13  15
ENDBRANCH   3  13
ENDBRANCH  14   9
TORSDOF 9
ENDMDL
MODEL 6
REMARK VINA RESULT:      -6.0     27.422     31.292
REMARK  Name = 45783473
REMARK  10 active torsions:
REMARK  status: ('A' for Active; 'I' for Inactive)
REMARK    1  A    between atoms: O_2  and  C_29
REMARK    2  A    between atoms: O_2  and  C_30
REMARK    3  A    between atoms: N_3  and  C_13
REMARK    4  A    between atoms: N_7  and  C_26
REMARK    5  A    between atoms: N_7  and  C_28
REMARK    6  A    between atoms: C_9  and  C_14
REMARK    7  A    between atoms: C_13  and  C_15
REMARK    8  A    between atoms: C_18  and  C_21
REMARK    9  A    between atoms: C_22  and  C_27
REMARK   10  A    between atoms: C_28  and  C_29
REMARK                            x       y       z     vdW  Elec       q    Type
REMARK                         _______ _______ _______ _____ _____    ______ ____
ROOT
ATOM      1  O   UNL     1      -8.189  -9.910   8.409  0.00  0.00    -0.336 OA
ATOM      4  N   UNL     1      -7.629  -7.760   8.121  0.00  0.00    -0.190 NA
ATOM      5  N   UNL     1      -9.297  -9.160   8.825  0.00  0.00    -0.056 NA
ATOM     14  C   UNL     1      -7.253  -9.009   8.011  0.00  0.00    +0.245 A 
ATOM     18  C   UNL     1      -8.890  -7.903   8.625  0.00  0.00    +0.204 A 
ENDROOT
BRANCH  18  21
ATOM      6  N   UNL     1     -11.744  -5.889   9.897  0.00  0.00    -0.240 NA
ATOM     21  C   UNL     1      -9.716  -6.768   8.919  0.00  0.00    +0.041 A 
ATOM     23  C   UNL     1      -9.334  -5.486   8.540  0.00  0.00    +0.016 A 
ATOM     24  C   UNL     1     -10.919  -6.915   9.590  0.00  0.00    +0.124 A 
ATOM     25  C   UNL     1     -10.156  -4.405   8.839  0.00  0.00    +0.044 A 
ATOM     26  C   UNL     1     -11.340  -4.657   9.513  0.00  0.00    +0.119 A 
BRANCH  26   7
ATOM      7  N   UNL     1     -12.166  -3.546   9.811  0.00  0.00    -0.327 N 
ATOM     31  H   UNL     1     -12.081  -2.742   9.201  0.00  0.00    +0.148 HD
BRANCH   7  28
ATOM     28  C   UNL     1     -13.075  -3.536  10.913  0.00  0.00    +0.131 C 
BRANCH  28  29
ATOM     29  C   UNL     1     -12.333  -3.204  12.196  0.00  0.00    +0.178 C 
BRANCH  29   2
ATOM      2  O   UNL     1     -12.967  -3.852  13.291  0.00  0.00    -0.381 OA
ATOM     30  C   UNL     1     -12.333  -5.083  13.607  0.00  0.00    +0.194 C 
ENDBRANCH  29   2
ENDBRANCH  28  29
ENDBRANCH   7  28
ENDBRANCH  26   7
ENDBRANCH  18  21
BRANCH  14   9
ATOM      3  N   UNL     1      -5.094 -10.099   8.596  0.00  0.00    -0.287 NA
ATOM      9  C   UNL     1      -5.942  -9.576   7.507  0.00  0.00    +0.146 C 
ATOM     10  C   UNL     1      -6.138 -10.770   6.555  0.00  0.00    +0.030 C 
ATOM     11  C   UNL     1      -5.315 -11.899   7.159  0.00  0.00    +0.017 C 
ATOM     12  C   UNL     1      -4.294 -11.178   8.016  0.00  0.00    +0.085 C 
BRANCH   3  13
ATOM     13  C   UNL     1      -4.265  -9.077   9.221  0.00  0.00    +0.120 C 
BRANCH  13  15
ATOM     15  C   UNL     1      -3.681  -9.548  10.526  0.00  0.00    -0.033 A 
ATOM     16  C   UNL     1      -2.299  -9.546  10.714  0.00  0.00    +0.006 A 
ATOM     17  C   UNL     1      -4.524  -9.985  11.549  0.00  0.00    +0.006 A 
ATOM     19  C   UNL     1      -1.759  -9.982  11.924  0.00  0.00    +0.019 A 
ATOM     20  C   UNL     1      -3.983 -10.422  12.759  0.00  0.00    +0.019 A 
ATOM     22  C   UNL     1      -2.601 -10.419  12.946  0.00  0.00    +0.052 A 
BRANCH  22  27
ATOM      8  N   UNL     1      -1.598 -11.228  15.192  0.00  0.00    -0.191 NA
ATOM     27  C   UNL     1      -2.047 -10.866  14.186  0.00  0.00    +0.099 C 
ENDBRANCH  22  27
ENDBRANCH  13  15
ENDBRANCH   3  13
ENDBRANCH  14   9
TORSDOF 9
ENDMDL
MODEL 7
REMARK VINA RESULT:      -5.9     26.865     30.187
REMARK  Name = 45783473
REMARK  10 active torsions:
REMARK  status: ('A' for Active; 'I' for Inactive)
REMARK    1  A    between atoms: O_2  and  C_29
REMARK    2  A    between atoms: O_2  and  C_30
REMARK    3  A    between atoms: N_3  and  C_13
REMARK    4  A    between atoms: N_7  and  C_26
REMARK    5  A    between atoms: N_7  and  C_28
REMARK    6  A    between atoms: C_9  and  C_14
REMARK    7  A    between atoms: C_13  and  C_15
REMARK    8  A    between atoms: C_18  and  C_21
REMARK    9  A    between atoms: C_22  and  C_27
REMARK   10  A    between atoms: C_28  and  C_29
REMARK                            x       y       z     vdW  Elec       q    Type
REMARK                         _______ _______ _______ _____ _____    ______ ____
ROOT
ATOM      1  O   UNL     1      -4.319 -13.151  15.559  0.00  0.00    -0.336 OA
ATOM      4  N   UNL     1      -4.555 -11.144  16.526  0.00  0.00    -0.190 NA
ATOM      5  N   UNL     1      -5.522 -13.202  16.274  0.00  0.00    -0.056 NA
ATOM     14  C   UNL     1      -3.814 -11.905  15.761  0.00  0.00    +0.245 A 
ATOM     18  C   UNL     1      -5.592 -11.983  16.817  0.00  0.00    +0.204 A 
ENDROOT
BRANCH  18  21
ATOM      6  N   UNL     1      -7.809 -11.701  19.788  0.00  0.00    -0.240 NA
ATOM     21  C   UNL     1      -6.681 -11.572  17.653  0.00  0.00    +0.041 A 
ATOM     23  C   UNL     1      -7.643 -10.681  17.191  0.00  0.00    +0.016 A 
ATOM     24  C   UNL     1      -6.807 -12.048  18.948  0.00  0.00    +0.124 A 
ATOM     25  C   UNL     1      -8.689 -10.300  18.025  0.00  0.00    +0.044 A 
ATOM     26  C   UNL     1      -8.726 -10.834  19.303  0.00  0.00    +0.119 A 
BRANCH  26   7
ATOM      7  N   UNL     1      -9.796 -10.436  20.142  0.00  0.00    -0.327 N 
ATOM     31  H   UNL     1      -9.602  -9.688  20.798  0.00  0.00    +0.148 HD
BRANCH   7  28
ATOM     28  C   UNL     1     -11.086 -11.045  20.087  0.00  0.00    +0.131 C 
BRANCH  28  29
ATOM     29  C   UNL     1     -12.149  -9.989  19.837  0.00  0.00    +0.178 C 
BRANCH  29   2
ATOM      2  O   UNL     1     -12.684 -10.155  18.531  0.00  0.00    -0.381 OA
ATOM     30  C   UNL     1     -12.216  -9.149  17.644  0.00  0.00    +0.194 C 
ENDBRANCH  29   2
ENDBRANCH  28  29
ENDBRANCH   7  28
ENDBRANCH  26   7
ENDBRANCH  18  21
BRANCH  14   9
ATOM      3  N   UNL     1      -2.655 -10.687  13.926  0.00  0.00    -0.287 NA
ATOM      9  C   UNL     1      -2.497 -11.592  15.081  0.00  0.00    +0.146 C 
ATOM     10  C   UNL     1      -1.506 -10.870  16.011  0.00  0.00    +0.030 C 
ATOM     11  C   UNL     1      -1.116  -9.600  15.269  0.00  0.00    +0.017 C 
ATOM     12  C   UNL     1      -1.408  -9.931  13.819  0.00  0.00    +0.085 C 
BRANCH   3  13
ATOM     13  C   UNL     1      -2.982 -11.384  12.689  0.00  0.00    +0.120 C 
BRANCH  13  15
ATOM     15  C   UNL     1      -3.898 -10.573  11.812  0.00  0.00    -0.033 A 
ATOM     16  C   UNL     1      -3.559 -10.332  10.482  0.00  0.00    +0.006 A 
ATOM     17  C   UNL     1      -5.090 -10.065  12.332  0.00  0.00    +0.006 A 
ATOM     19  C   UNL     1      -4.409  -9.581   9.669  0.00  0.00    +0.019 A 
ATOM     20  C   UNL     1      -5.939  -9.314  11.520  0.00  0.00    +0.019 A 
ATOM     22  C   UNL     1      -5.600  -9.073  10.189  0.00  0.00    +0.052 A 
BRANCH  22  27
ATOM      8  N   UNL     1      -7.177  -7.679   8.681  0.00  0.00    -0.191 NA
ATOM     27  C   UNL     1      -6.471  -8.304   9.357  0.00  0.00    +0.099 C 
ENDBRANCH  22  27
ENDBRANCH  13  15
ENDBRANCH   3  13
ENDBRANCH  14   9
TORSDOF 9
ENDMDL
MODEL 8
REMARK VINA RESULT:      -5.9     27.978     30.604
REMARK  Name = 45783473
REMARK  10 active torsions:
REMARK  status: ('A' for Active; 'I' for Inactive)
REMARK    1  A    between atoms: O_2  and  C_29
REMARK    2  A    between atoms: O_2  and  C_30
REMARK    3  A    between atoms: N_3  and  C_13
REMARK    4  A    between atoms: N_7  and  C_26
REMARK    5  A    between atoms: N_7  and  C_28
REMARK    6  A    between atoms: C_9  and  C_14
REMARK    7  A    between atoms: C_13  and  C_15
REMARK    8  A    between atoms: C_18  and  C_21
REMARK    9  A    between atoms: C_22  and  C_27
REMARK   10  A    between atoms: C_28  and  C_29
REMARK                            x       y       z     vdW  Elec       q    Type
REMARK                         _______ _______ _______ _____ _____    ______ ____
ROOT
ATOM      1  O   UNL     1      -8.719 -11.084  20.155  0.00  0.00    -0.336 OA
ATOM      4  N   UNL     1      -8.267 -11.912  18.124  0.00  0.00    -0.190 NA
ATOM      5  N   UNL     1      -7.438 -10.625  19.825  0.00  0.00    -0.056 NA
ATOM     14  C   UNL     1      -9.134 -11.834  19.101  0.00  0.00    +0.245 A 
ATOM     18  C   UNL     1      -7.242 -11.155  18.613  0.00  0.00    +0.204 A 
ENDROOT
BRANCH  18  21
ATOM      6  N   UNL     1      -4.945 -10.018  15.920  0.00  0.00    -0.240 NA
ATOM     21  C   UNL     1      -6.035 -10.948  17.866  0.00  0.00    +0.041 A 
ATOM     23  C   UNL     1      -4.818 -11.444  18.320  0.00  0.00    +0.016 A 
ATOM     24  C   UNL     1      -6.045 -10.247  16.672  0.00  0.00    +0.124 A 
ATOM     25  C   UNL     1      -3.664 -11.229  17.575  0.00  0.00    +0.044 A 
ATOM     26  C   UNL     1      -3.780 -10.516  16.392  0.00  0.00    +0.119 A 
BRANCH  26   7
ATOM      7  N   UNL     1      -2.596 -10.303  15.644  0.00  0.00    -0.327 N 
ATOM     31  H   UNL     1      -2.333  -9.338  15.479  0.00  0.00    +0.148 HD
BRANCH   7  28
ATOM     28  C   UNL     1      -1.802 -11.375  15.136  0.00  0.00    +0.131 C 
BRANCH  28  29
ATOM     29  C   UNL     1      -2.575 -12.135  14.073  0.00  0.00    +0.178 C 
BRANCH  29   2
ATOM      2  O   UNL     1      -1.822 -12.163  12.867  0.00  0.00    -0.381 OA
ATOM     30  C   UNL     1      -1.961 -10.952  12.137  0.00  0.00    +0.194 C 
ENDBRANCH  29   2
ENDBRANCH  28  29
ENDBRANCH   7  28
ENDBRANCH  26   7
ENDBRANCH  18  21
BRANCH  14   9
ATOM      3  N   UNL     1     -11.492 -11.824  18.305  0.00  0.00    -0.287 NA
ATOM      9  C   UNL     1     -10.513 -12.452  19.214  0.00  0.00    +0.146 C 
ATOM     10  C   UNL     1     -10.527 -13.944  18.834  0.00  0.00    +0.030 C 
ATOM     11  C   UNL     1     -11.587 -14.068  17.749  0.00  0.00    +0.017 C 
ATOM     12  C   UNL     1     -12.472 -12.858  17.974  0.00  0.00    +0.085 C 
BRANCH   3  13
ATOM     13  C   UNL     1     -12.119 -10.635  18.868  0.00  0.00    +0.120 C 
BRANCH  13  15
ATOM     15  C   UNL     1     -12.095  -9.478  17.905  0.00  0.00    -0.033 A 
ATOM     16  C   UNL     1     -10.918  -8.755  17.712  0.00  0.00    +0.006 A 
ATOM     17  C   UNL     1     -13.251  -9.130  17.206  0.00  0.00    +0.006 A 
ATOM     19  C   UNL     1     -10.896  -7.683  16.820  0.00  0.00    +0.019 A 
ATOM     20  C   UNL     1     -13.229  -8.058  16.313  0.00  0.00    +0.019 A 
ATOM     22  C   UNL     1     -12.052  -7.335  16.120  0.00  0.00    +0.052 A 
BRANCH  22  27
ATOM      8  N   UNL     1     -12.012  -5.346  14.463  0.00  0.00    -0.191 NA
ATOM     27  C   UNL     1     -12.030  -6.237  15.205  0.00  0.00    +0.099 C 
ENDBRANCH  22  27
ENDBRANCH  13  15
ENDBRANCH   3  13
ENDBRANCH  14   9
TORSDOF 9
ENDMDL
MODEL 9
REMARK VINA RESULT:      -5.8     26.738     30.301
REMARK  Name = 45783473
REMARK  10 active torsions:
REMARK  status: ('A' for Active; 'I' for Inactive)
REMARK    1  A    between atoms: O_2  and  C_29
REMARK    2  A    between atoms: O_2  and  C_30
REMARK    3  A    between atoms: N_3  and  C_13
REMARK    4  A    between atoms: N_7  and  C_26
REMARK    5  A    between atoms: N_7  and  C_28
REMARK    6  A    between atoms: C_9  and  C_14
REMARK    7  A    between atoms: C_13  and  C_15
REMARK    8  A    between atoms: C_18  and  C_21
REMARK    9  A    between atoms: C_22  and  C_27
REMARK   10  A    between atoms: C_28  and  C_29
REMARK                            x       y       z     vdW  Elec       q    Type
REMARK                         _______ _______ _______ _____ _____    ______ ____
ROOT
ATOM      1  O   UNL     1      -4.108 -11.072  17.893  0.00  0.00    -0.336 OA
ATOM      4  N   UNL     1      -5.506 -10.553  16.222  0.00  0.00    -0.190 NA
ATOM      5  N   UNL     1      -5.333 -10.757  18.494  0.00  0.00    -0.056 NA
ATOM     14  C   UNL     1      -4.297 -10.927  16.555  0.00  0.00    +0.245 A 
ATOM     18  C   UNL     1      -6.106 -10.462  17.444  0.00  0.00    +0.204 A 
ENDROOT
BRANCH  18  21
ATOM      6  N   UNL     1      -9.304  -8.656  16.873  0.00  0.00    -0.240 NA
ATOM     21  C   UNL     1      -7.479 -10.073  17.582  0.00  0.00    +0.041 A 
ATOM     23  C   UNL     1      -8.310 -10.690  18.511  0.00  0.00    +0.016 A 
ATOM     24  C   UNL     1      -8.020  -9.071  16.794  0.00  0.00    +0.124 A 
ATOM     25  C   UNL     1      -9.637 -10.291  18.623  0.00  0.00    +0.044 A 
ATOM     26  C   UNL     1     -10.082  -9.278  17.788  0.00  0.00    +0.119 A 
BRANCH  26   7
ATOM      7  N   UNL     1     -11.436  -8.883  17.911  0.00  0.00    -0.327 N 
ATOM     31  H   UNL     1     -11.614  -8.035  18.437  0.00  0.00    +0.148 HD
BRANCH   7  28
ATOM     28  C   UNL     1     -12.512  -9.628  17.339  0.00  0.00    +0.131 C 
BRANCH  28  29
ATOM     29  C   UNL     1     -13.100  -8.870  16.162  0.00  0.00    +0.178 C 
BRANCH  29   2
ATOM      2  O   UNL     1     -12.453  -7.610  16.038  0.00  0.00    -0.381 OA
ATOM     30  C   UNL     1     -13.383  -6.571  15.764  0.00  0.00    +0.194 C 
ENDBRANCH  29   2
ENDBRANCH  28  29
ENDBRANCH   7  28
ENDBRANCH  26   7
ENDBRANCH  18  21
BRANCH  14   9
ATOM      3  N   UNL     1      -3.230 -10.610  14.329  0.00  0.00    -0.287 NA
ATOM      9  C   UNL     1      -3.102 -11.215  15.669  0.00  0.00    +0.146 C 
ATOM     10  C   UNL     1      -1.791 -10.638  16.235  0.00  0.00    +0.030 C 
ATOM     11  C   UNL     1      -1.224  -9.771  15.120  0.00  0.00    +0.017 C 
ATOM     12  C   UNL     1      -1.870 -10.332  13.869  0.00  0.00    +0.085 C 
BRANCH   3  13
ATOM     13  C   UNL     1      -3.967 -11.445  13.390  0.00  0.00    +0.120 C 
BRANCH  13  15
ATOM     15  C   UNL     1      -4.687 -10.625  12.353  0.00  0.00    -0.033 A 
ATOM     16  C   UNL     1      -4.276 -10.667  11.021  0.00  0.00    +0.006 A 
ATOM     17  C   UNL     1      -5.766  -9.823  12.726  0.00  0.00    +0.006 A 
ATOM     19  C   UNL     1      -4.944  -9.907  10.061  0.00  0.00    +0.019 A 
ATOM     20  C   UNL     1      -6.433  -9.063  11.765  0.00  0.00    +0.019 A 
ATOM     22  C   UNL     1      -6.023  -9.105  10.433  0.00  0.00    +0.052 A 
BRANCH  22  27
ATOM      8  N   UNL     1      -7.263  -7.694   8.651  0.00  0.00    -0.191 NA
ATOM     27  C   UNL     1      -6.707  -8.326   9.449  0.00  0.00    +0.099 C 
ENDBRANCH  22  27
ENDBRANCH  13  15
ENDBRANCH   3  13
ENDBRANCH  14   9
TORSDOF 9
ENDMDL
MODEL 10
REMARK VINA RESULT:      -5.8     27.679     29.881
REMARK  Name = 45783473
REMARK  10 active torsions:
REMARK  status: ('A' for Active; 'I' for Inactive)
REMARK    1  A    between atoms: O_2  and  C_29
REMARK    2  A    between atoms: O_2  and  C_30
REMARK    3  A    between atoms: N_3  and  C_13
REMARK    4  A    between atoms: N_7  and  C_26
REMARK    5  A    between atoms: N_7  and  C_28
REMARK    6  A    between atoms: C_9  and  C_14
REMARK    7  A    between atoms: C_13  and  C_15
REMARK    8  A    between atoms: C_18  and  C_21
REMARK    9  A    between atoms: C_22  and  C_27
REMARK   10  A    between atoms: C_28  and  C_29
REMARK                            x       y       z     vdW  Elec       q    Type
REMARK                         _______ _______ _______ _____ _____    ______ ____
ROOT
ATOM      1  O   UNL     1      -7.483 -10.880  10.659  0.00  0.00    -0.336 OA
ATOM      4  N   UNL     1      -6.911  -9.052  11.818  0.00  0.00    -0.190 NA
ATOM      5  N   UNL     1      -7.677 -11.199  12.009  0.00  0.00    -0.056 NA
ATOM     14  C   UNL     1      -7.031  -9.600  10.636  0.00  0.00    +0.245 A 
ATOM     18  C   UNL     1      -7.319 -10.071  12.629  0.00  0.00    +0.204 A 
ENDROOT
BRANCH  18  21
ATOM      6  N   UNL     1      -6.156  -9.823  16.152  0.00  0.00    -0.240 NA
ATOM     21  C   UNL     1      -7.355  -9.929  14.056  0.00  0.00    +0.041 A 
ATOM     23  C   UNL     1      -8.561  -9.765  14.729  0.00  0.00    +0.016 A 
ATOM     24  C   UNL     1      -6.192  -9.950  14.806  0.00  0.00    +0.124 A 
ATOM     25  C   UNL     1      -8.565  -9.631  16.113  0.00  0.00    +0.044 A 
ATOM     26  C   UNL     1      -7.347  -9.666  16.772  0.00  0.00    +0.119 A 
BRANCH  26   7
ATOM      7  N   UNL     1      -7.367  -9.526  18.181  0.00  0.00    -0.327 N 
ATOM     31  H   UNL     1      -7.403  -8.580  18.541  0.00  0.00    +0.148 HD
BRANCH   7  28
ATOM     28  C   UNL     1      -7.333 -10.646  19.067  0.00  0.00    +0.131 C 
BRANCH  28  29
ATOM     29  C   UNL     1      -5.922 -10.853  19.589  0.00  0.00    +0.178 C 
BRANCH  29   2
ATOM      2  O   UNL     1      -5.322 -11.949  18.911  0.00  0.00    -0.381 OA
ATOM     30  C   UNL     1      -3.962 -12.113  19.286  0.00  0.00    +0.194 C 
ENDBRANCH  29   2
ENDBRANCH  28  29
ENDBRANCH   7  28
ENDBRANCH  26   7
ENDBRANCH  18  21
BRANCH  14   9
ATOM      3  N   UNL     1      -5.660  -9.722   8.562  0.00  0.00    -0.287 NA
ATOM      9  C   UNL     1      -6.742  -9.010   9.270  0.00  0.00    +0.146 C 
ATOM     10  C   UNL     1      -7.950  -9.092   8.320  0.00  0.00    +0.030 C 
ATOM     11  C   UNL     1      -7.435  -9.811   7.082  0.00  0.00    +0.017 C 
ATOM     12  C   UNL     1      -5.938  -9.583   7.133  0.00  0.00    +0.085 C 
BRANCH   3  13
ATOM     13  C   UNL     1      -4.330  -9.240   8.911  0.00  0.00    +0.120 C 
BRANCH  13  15
ATOM     15  C   UNL     1      -3.682 -10.093   9.969  0.00  0.00    -0.033 A 
ATOM     16  C   UNL     1      -4.001 -11.447  10.066  0.00  0.00    +0.006 A 
ATOM     17  C   UNL     1      -2.761  -9.529  10.852  0.00  0.00    +0.006 A 
ATOM     19  C   UNL     1      -3.401 -12.238  11.046  0.00  0.00    +0.019 A 
ATOM     20  C   UNL     1      -2.160 -10.319  11.832  0.00  0.00    +0.019 A 
ATOM     22  C   UNL     1      -2.479 -11.673  11.929  0.00  0.00    +0.052 A 
BRANCH  22  27
ATOM      8  N   UNL     1      -1.364 -13.140  13.747  0.00  0.00    -0.191 NA
ATOM     27  C   UNL     1      -1.864 -12.483  12.932  0.00  0.00    +0.099 C 
ENDBRANCH  22  27
ENDBRANCH  13  15
ENDBRANCH   3  13
ENDBRANCH  14   9
TORSDOF 9
ENDMDL
