MODEL 1
REMARK VINA RESULT:      -7.1      0.000      0.000
REMARK  Name = 75368604
REMARK  6 active torsions:
REMARK  status: ('A' for Active; 'I' for Inactive)
REMARK    1  A    between atoms: O_3  and  C_28
REMARK    2  A    between atoms: N_6  and  C_14
REMARK    3  A    between atoms: N_7  and  C_15
REMARK    4  A    between atoms: C_14  and  C_16
REMARK    5  A    between atoms: C_15  and  C_17
REMARK    6  A    between atoms: C_26  and  C_28
REMARK                            x       y       z     vdW  Elec       q    Type
REMARK                         _______ _______ _______ _____ _____    ______ ____
ROOT
ATOM      2  O   UNL     1      16.008   8.522   2.666  0.00  0.00    -0.252 OA
ATOM      5  N   UNL     1      14.359   7.594   4.056  0.00  0.00    -0.278 N 
ATOM      6  N   UNL     1      11.805   6.814   4.940  0.00  0.00    -0.295 NA
ATOM      7  N   UNL     1      15.952   8.866   4.999  0.00  0.00    -0.279 N 
ATOM      8  C   UNL     1      14.106   7.496   5.479  0.00  0.00    +0.109 C 
ATOM      9  C   UNL     1      12.623   7.717   5.773  0.00  0.00    +0.109 C 
ATOM     10  C   UNL     1      15.044   8.539   6.085  0.00  0.00    +0.133 C 
ATOM     11  C   UNL     1      13.514   6.862   3.136  0.00  0.00    +0.125 C 
ATOM     12  C   UNL     1      12.041   7.064   3.503  0.00  0.00    +0.104 C 
ATOM     13  C   UNL     1      15.505   8.345   3.767  0.00  0.00    +0.305 C 
ENDROOT
BRANCH   6  14
ATOM     14  C   UNL     1      10.386   6.975   5.257  0.00  0.00    +0.119 C 
BRANCH  14  16
ATOM     16  C   UNL     1      10.036   6.365   6.588  0.00  0.00    -0.033 A 
ATOM     18  C   UNL     1      10.310   5.019   6.832  0.00  0.00    +0.006 A 
ATOM     19  C   UNL     1       9.439   7.146   7.578  0.00  0.00    +0.006 A 
ATOM     22  C   UNL     1       9.986   4.454   8.065  0.00  0.00    +0.015 A 
ATOM     23  C   UNL     1       9.115   6.580   8.811  0.00  0.00    +0.015 A 
ATOM     26  C   UNL     1       9.389   5.235   9.055  0.00  0.00    +0.059 A 
BRANCH  26  28
ATOM      4  O   UNL     1       7.927   4.625  10.848  0.00  0.00    -0.245 OA
ATOM     28  C   UNL     1       9.053   4.645  10.342  0.00  0.00    +0.337 C 
BRANCH  28   3
ATOM      3  O   UNL     1      10.135   4.097  10.961  0.00  0.00    -0.477 OA
ATOM     29  H   UNL     1      10.789   4.780  11.223  0.00  0.00    +0.295 HD
ENDBRANCH  28   3
ENDBRANCH  26  28
ENDBRANCH  14  16
ENDBRANCH   6  14
BRANCH   7  15
ATOM     15  C   UNL     1      17.080   9.751   5.183  0.00  0.00    +0.144 C 
BRANCH  15  17
ATOM      1  F   UNL     1      21.931   6.913   5.584  0.00  0.00    -0.205 F 
ATOM     17  C   UNL     1      18.376   8.993   5.290  0.00  0.00    -0.030 A 
ATOM     20  C   UNL     1      18.934   8.739   6.543  0.00  0.00    +0.008 A 
ATOM     21  C   UNL     1      19.019   8.544   4.136  0.00  0.00    +0.008 A 
ATOM     24  C   UNL     1      20.135   8.036   6.642  0.00  0.00    +0.038 A 
ATOM     25  C   UNL     1      20.220   7.842   4.236  0.00  0.00    +0.038 A 
ATOM     27  C   UNL     1      20.778   7.589   5.489  0.00  0.00    +0.123 A 
ENDBRANCH  15  17
ENDBRANCH   7  15
TORSDOF 6
ENDMDL
MODEL 2
REMARK VINA RESULT:      -6.8     13.812     16.897
REMARK  Name = 75368604
REMARK  6 active torsions:
REMARK  status: ('A' for Active; 'I' for Inactive)
REMARK    1  A    between atoms: O_3  and  C_28
REMARK    2  A    between atoms: N_6  and  C_14
REMARK    3  A    between atoms: N_7  and  C_15
REMARK    4  A    between atoms: C_14  and  C_16
REMARK    5  A    between atoms: C_15  and  C_17
REMARK    6  A    between atoms: C_26  and  C_28
REMARK                            x       y       z     vdW  Elec       q    Type
REMARK                         _______ _______ _______ _____ _____    ______ ____
ROOT
ATOM      2  O   UNL     1      15.083   6.257  19.039  0.00  0.00    -0.252 OA
ATOM      5  N   UNL     1      17.140   6.933  19.946  0.00  0.00    -0.278 N 
ATOM      6  N   UNL     1      19.650   6.732  21.199  0.00  0.00    -0.295 NA
ATOM      7  N   UNL     1      15.315   8.152  20.424  0.00  0.00    -0.279 N 
ATOM      8  C   UNL     1      17.646   8.066  20.694  0.00  0.00    +0.109 C 
ATOM      9  C   UNL     1      18.607   7.597  21.785  0.00  0.00    +0.109 C 
ATOM     10  C   UNL     1      16.381   8.755  21.205  0.00  0.00    +0.133 C 
ATOM     11  C   UNL     1      18.071   5.940  19.452  0.00  0.00    +0.125 C 
ATOM     12  C   UNL     1      19.051   5.543  20.559  0.00  0.00    +0.104 C 
ATOM     13  C   UNL     1      15.762   7.019  19.714  0.00  0.00    +0.305 C 
ENDROOT
BRANCH   6  14
ATOM     14  C   UNL     1      20.611   6.326  22.226  0.00  0.00    +0.119 C 
BRANCH  14  16
ATOM     16  C   UNL     1      21.674   5.417  21.671  0.00  0.00    -0.033 A 
ATOM     18  C   UNL     1      22.583   5.901  20.729  0.00  0.00    +0.006 A 
ATOM     19  C   UNL     1      21.752   4.092  22.099  0.00  0.00    +0.006 A 
ATOM     22  C   UNL     1      23.568   5.058  20.215  0.00  0.00    +0.015 A 
ATOM     23  C   UNL     1      22.738   3.250  21.585  0.00  0.00    +0.015 A 
ATOM     26  C   UNL     1      23.646   3.732  20.643  0.00  0.00    +0.059 A 
BRANCH  26  28
ATOM      4  O   UNL     1      25.466   2.187  20.778  0.00  0.00    -0.245 OA
ATOM     28  C   UNL     1      24.675   2.854  20.107  0.00  0.00    +0.337 C 
BRANCH  28   3
ATOM      3  O   UNL     1      24.686   2.837  18.746  0.00  0.00    -0.477 OA
ATOM     29  H   UNL     1      25.592   2.950  18.387  0.00  0.00    +0.295 HD
ENDBRANCH  28   3
ENDBRANCH  26  28
ENDBRANCH  14  16
ENDBRANCH   6  14
BRANCH   7  15
ATOM     15  C   UNL     1      13.945   8.603  20.520  0.00  0.00    +0.144 C 
BRANCH  15  17
ATOM      1  F   UNL     1      11.705   9.609  15.449  0.00  0.00    -0.205 F 
ATOM     17  C   UNL     1      13.346   8.872  19.166  0.00  0.00    -0.030 A 
ATOM     20  C   UNL     1      13.981   9.747  18.284  0.00  0.00    +0.008 A 
ATOM     21  C   UNL     1      12.158   8.245  18.792  0.00  0.00    +0.008 A 
ATOM     24  C   UNL     1      13.426   9.996  17.029  0.00  0.00    +0.038 A 
ATOM     25  C   UNL     1      11.603   8.495  17.536  0.00  0.00    +0.038 A 
ATOM     27  C   UNL     1      12.237   9.370  16.655  0.00  0.00    +0.123 A 
ENDBRANCH  15  17
ENDBRANCH   7  15
TORSDOF 6
ENDMDL
MODEL 3
REMARK VINA RESULT:      -6.8     27.470     30.419
REMARK  Name = 75368604
REMARK  6 active torsions:
REMARK  status: ('A' for Active; 'I' for Inactive)
REMARK    1  A    between atoms: O_3  and  C_28
REMARK    2  A    between atoms: N_6  and  C_14
REMARK    3  A    between atoms: N_7  and  C_15
REMARK    4  A    between atoms: C_14  and  C_16
REMARK    5  A    between atoms: C_15  and  C_17
REMARK    6  A    between atoms: C_26  and  C_28
REMARK                            x       y       z     vdW  Elec       q    Type
REMARK                         _______ _______ _______ _____ _____    ______ ____
ROOT
ATOM      2  O   UNL     1     -12.759  -8.574  13.658  0.00  0.00    -0.252 OA
ATOM      5  N   UNL     1     -10.721  -8.365  14.805  0.00  0.00    -0.278 N 
ATOM      6  N   UNL     1      -8.469  -9.114  16.314  0.00  0.00    -0.295 NA
ATOM      7  N   UNL     1     -12.288  -6.788  15.124  0.00  0.00    -0.279 N 
ATOM      8  C   UNL     1     -10.074  -7.375  15.642  0.00  0.00    +0.109 C 
ATOM      9  C   UNL     1      -9.364  -8.051  16.813  0.00  0.00    +0.109 C 
ATOM     10  C   UNL     1     -11.213  -6.435  16.036  0.00  0.00    +0.133 C 
ATOM     11  C   UNL     1      -9.973  -9.530  14.380  0.00  0.00    +0.125 C 
ATOM     12  C   UNL     1      -9.231 -10.139  15.572  0.00  0.00    +0.104 C 
ATOM     13  C   UNL     1     -12.015  -7.982  14.428  0.00  0.00    +0.305 C 
ENDROOT
BRANCH   6  14
ATOM     14  C   UNL     1      -7.738  -9.727  17.424  0.00  0.00    +0.119 C 
BRANCH  14  16
ATOM     16  C   UNL     1      -6.336 -10.105  17.031  0.00  0.00    -0.033 A 
ATOM     18  C   UNL     1      -5.907  -9.924  15.716  0.00  0.00    +0.006 A 
ATOM     19  C   UNL     1      -5.464 -10.637  17.982  0.00  0.00    +0.006 A 
ATOM     22  C   UNL     1      -4.607 -10.274  15.352  0.00  0.00    +0.015 A 
ATOM     23  C   UNL     1      -4.165 -10.987  17.617  0.00  0.00    +0.015 A 
ATOM     26  C   UNL     1      -3.735 -10.806  16.303  0.00  0.00    +0.059 A 
BRANCH  26  28
ATOM      4  O   UNL     1      -2.028 -11.556  14.804  0.00  0.00    -0.245 OA
ATOM     28  C   UNL     1      -2.379 -11.170  15.923  0.00  0.00    +0.337 C 
BRANCH  28   3
ATOM      3  O   UNL     1      -1.499 -11.042  16.954  0.00  0.00    -0.477 OA
ATOM     29  H   UNL     1      -0.757 -10.441  16.726  0.00  0.00    +0.295 HD
ENDBRANCH  28   3
ENDBRANCH  26  28
ENDBRANCH  14  16
ENDBRANCH   6  14
BRANCH   7  15
ATOM     15  C   UNL     1     -13.532  -6.053  15.087  0.00  0.00    +0.144 C 
BRANCH  15  17
ATOM      1  F   UNL     1     -13.876  -2.725  10.554  0.00  0.00    -0.205 F 
ATOM     17  C   UNL     1     -13.624  -5.164  13.877  0.00  0.00    -0.030 A 
ATOM     20  C   UNL     1     -14.866  -4.898  13.299  0.00  0.00    +0.008 A 
ATOM     21  C   UNL     1     -12.467  -4.606  13.332  0.00  0.00    +0.008 A 
ATOM     24  C   UNL     1     -14.950  -4.074  12.177  0.00  0.00    +0.038 A 
ATOM     25  C   UNL     1     -12.552  -3.783  12.209  0.00  0.00    +0.038 A 
ATOM     27  C   UNL     1     -13.794  -3.517  11.631  0.00  0.00    +0.123 A 
ENDBRANCH  15  17
ENDBRANCH   7  15
TORSDOF 6
ENDMDL
MODEL 4
REMARK VINA RESULT:      -6.8     14.952     18.066
REMARK  Name = 75368604
REMARK  6 active torsions:
REMARK  status: ('A' for Active; 'I' for Inactive)
REMARK    1  A    between atoms: O_3  and  C_28
REMARK    2  A    between atoms: N_6  and  C_14
REMARK    3  A    between atoms: N_7  and  C_15
REMARK    4  A    between atoms: C_14  and  C_16
REMARK    5  A    between atoms: C_15  and  C_17
REMARK    6  A    between atoms: C_26  and  C_28
REMARK                            x       y       z     vdW  Elec       q    Type
REMARK                         _______ _______ _______ _____ _____    ______ ____
ROOT
ATOM      2  O   UNL     1      15.702   9.803  20.660  0.00  0.00    -0.252 OA
ATOM      5  N   UNL     1      17.218   8.036  20.967  0.00  0.00    -0.278 N 
ATOM      6  N   UNL     1      19.681   6.689  21.131  0.00  0.00    -0.295 NA
ATOM      7  N   UNL     1      15.375   7.656  19.740  0.00  0.00    -0.279 N 
ATOM      8  C   UNL     1      17.265   6.620  20.670  0.00  0.00    +0.109 C 
ATOM      9  C   UNL     1      18.656   6.226  20.174  0.00  0.00    +0.109 C 
ATOM     10  C   UNL     1      16.141   6.425  19.653  0.00  0.00    +0.133 C 
ATOM     11  C   UNL     1      18.263   8.625  21.778  0.00  0.00    +0.125 C 
ATOM     12  C   UNL     1      19.635   8.157  21.284  0.00  0.00    +0.104 C 
ATOM     13  C   UNL     1      16.053   8.645  20.483  0.00  0.00    +0.305 C 
ENDROOT
BRANCH   6  14
ATOM     14  C   UNL     1      21.012   6.264  20.695  0.00  0.00    +0.119 C 
BRANCH  14  16
ATOM     16  C   UNL     1      21.616   5.258  21.638  0.00  0.00    -0.033 A 
ATOM     18  C   UNL     1      22.057   5.661  22.899  0.00  0.00    +0.006 A 
ATOM     19  C   UNL     1      21.735   3.923  21.251  0.00  0.00    +0.006 A 
ATOM     22  C   UNL     1      22.616   4.729  23.772  0.00  0.00    +0.015 A 
ATOM     23  C   UNL     1      22.294   2.992  22.125  0.00  0.00    +0.015 A 
ATOM     26  C   UNL     1      22.736   3.394  23.385  0.00  0.00    +0.059 A 
BRANCH  26  28
ATOM      4  O   UNL     1      23.604   2.630  25.480  0.00  0.00    -0.245 OA
ATOM     28  C   UNL     1      23.318   2.421  24.297  0.00  0.00    +0.337 C 
BRANCH  28   3
ATOM      3  O   UNL     1      23.528   1.214  23.704  0.00  0.00    -0.477 OA
ATOM     29  H   UNL     1      23.870   1.312  22.789  0.00  0.00    +0.295 HD
ENDBRANCH  28   3
ENDBRANCH  26  28
ENDBRANCH  14  16
ENDBRANCH   6  14
BRANCH   7  15
ATOM     15  C   UNL     1      14.143   7.846  19.007  0.00  0.00    +0.144 C 
BRANCH  15  17
ATOM      1  F   UNL     1       9.621   7.291  22.322  0.00  0.00    -0.205 F 
ATOM     17  C   UNL     1      12.935   7.698  19.892  0.00  0.00    -0.030 A 
ATOM     20  C   UNL     1      12.729   6.512  20.598  0.00  0.00    +0.008 A 
ATOM     21  C   UNL     1      12.022   8.746  20.008  0.00  0.00    +0.008 A 
ATOM     24  C   UNL     1      11.609   6.375  21.419  0.00  0.00    +0.038 A 
ATOM     25  C   UNL     1      10.902   8.608  20.828  0.00  0.00    +0.038 A 
ATOM     27  C   UNL     1      10.696   7.422  21.533  0.00  0.00    +0.123 A 
ENDBRANCH  15  17
ENDBRANCH   7  15
TORSDOF 6
ENDMDL
MODEL 5
REMARK VINA RESULT:      -6.8     13.376     15.131
REMARK  Name = 75368604
REMARK  6 active torsions:
REMARK  status: ('A' for Active; 'I' for Inactive)
REMARK    1  A    between atoms: O_3  and  C_28
REMARK    2  A    between atoms: N_6  and  C_14
REMARK    3  A    between atoms: N_7  and  C_15
REMARK    4  A    between atoms: C_14  and  C_16
REMARK    5  A    between atoms: C_15  and  C_17
REMARK    6  A    between atoms: C_26  and  C_28
REMARK                            x       y       z     vdW  Elec       q    Type
REMARK                         _______ _______ _______ _____ _____    ______ ____
ROOT
ATOM      2  O   UNL     1      18.561   5.099  19.397  0.00  0.00    -0.252 OA
ATOM      5  N   UNL     1      17.249   6.669  20.549  0.00  0.00    -0.278 N 
ATOM      6  N   UNL     1      15.177   8.508  21.034  0.00  0.00    -0.295 NA
ATOM      7  N   UNL     1      19.484   6.855  20.672  0.00  0.00    -0.279 N 
ATOM      8  C   UNL     1      17.472   7.747  21.490  0.00  0.00    +0.109 C 
ATOM      9  C   UNL     1      16.584   8.943  21.150  0.00  0.00    +0.109 C 
ATOM     10  C   UNL     1      18.974   8.012  21.387  0.00  0.00    +0.133 C 
ATOM     11  C   UNL     1      15.893   6.262  20.248  0.00  0.00    +0.125 C 
ATOM     12  C   UNL     1      15.025   7.492  19.972  0.00  0.00    +0.104 C 
ATOM     13  C   UNL     1      18.445   6.080  20.118  0.00  0.00    +0.305 C 
ENDROOT
BRANCH   6  14
ATOM     14  C   UNL     1      14.311   9.657  20.767  0.00  0.00    +0.119 C 
BRANCH  14  16
ATOM     16  C   UNL     1      13.461   9.446  19.543  0.00  0.00    -0.033 A 
ATOM     18  C   UNL     1      13.916   9.878  18.296  0.00  0.00    +0.006 A 
ATOM     19  C   UNL     1      12.220   8.819  19.654  0.00  0.00    +0.006 A 
ATOM     22  C   UNL     1      13.128   9.683  17.162  0.00  0.00    +0.015 A 
ATOM     23  C   UNL     1      11.434   8.624  18.519  0.00  0.00    +0.015 A 
ATOM     26  C   UNL     1      11.887   9.056  17.273  0.00  0.00    +0.059 A 
BRANCH  26  28
ATOM      4  O   UNL     1      11.304   9.309  14.966  0.00  0.00    -0.245 OA
ATOM     28  C   UNL     1      11.067   8.852  16.088  0.00  0.00    +0.337 C 
BRANCH  28   3
ATOM      3  O   UNL     1       9.974   8.081  16.341  0.00  0.00    -0.477 OA
ATOM     29  H   UNL     1       9.659   8.187  17.265  0.00  0.00    +0.295 HD
ENDBRANCH  28   3
ENDBRANCH  26  28
ENDBRANCH  14  16
ENDBRANCH   6  14
BRANCH   7  15
ATOM     15  C   UNL     1      20.899   6.653  20.453  0.00  0.00    +0.144 C 
BRANCH  15  17
ATOM      1  F   UNL     1      22.997   2.661  23.830  0.00  0.00    -0.205 F 
ATOM     17  C   UNL     1      21.459   5.586  21.355  0.00  0.00    -0.030 A 
ATOM     20  C   UNL     1      21.867   5.911  22.649  0.00  0.00    +0.008 A 
ATOM     21  C   UNL     1      21.571   4.273  20.897  0.00  0.00    +0.008 A 
ATOM     24  C   UNL     1      22.387   4.922  23.485  0.00  0.00    +0.038 A 
ATOM     25  C   UNL     1      22.092   3.285  21.733  0.00  0.00    +0.038 A 
ATOM     27  C   UNL     1      22.500   3.610  23.027  0.00  0.00    +0.123 A 
ENDBRANCH  15  17
ENDBRANCH   7  15
TORSDOF 6
ENDMDL
MODEL 6
REMARK VINA RESULT:      -6.6     28.347     30.486
REMARK  Name = 75368604
REMARK  6 active torsions:
REMARK  status: ('A' for Active; 'I' for Inactive)
REMARK    1  A    between atoms: O_3  and  C_28
REMARK    2  A    between atoms: N_6  and  C_14
REMARK    3  A    between atoms: N_7  and  C_15
REMARK    4  A    between atoms: C_14  and  C_16
REMARK    5  A    between atoms: C_15  and  C_17
REMARK    6  A    between atoms: C_26  and  C_28
REMARK                            x       y       z     vdW  Elec       q    Type
REMARK                         _______ _______ _______ _____ _____    ______ ____
ROOT
ATOM      2  O   UNL     1     -13.221  -7.970  13.184  0.00  0.00    -0.252 OA
ATOM      5  N   UNL     1     -11.305  -7.972  14.541  0.00  0.00    -0.278 N 
ATOM      6  N   UNL     1      -9.416  -8.884  16.415  0.00  0.00    -0.295 NA
ATOM      7  N   UNL     1     -12.533  -6.094  14.436  0.00  0.00    -0.279 N 
ATOM      8  C   UNL     1     -10.551  -7.002  15.309  0.00  0.00    +0.109 C 
ATOM      9  C   UNL     1     -10.114  -7.602  16.644  0.00  0.00    +0.109 C 
ATOM     10  C   UNL     1     -11.501  -5.811  15.420  0.00  0.00    +0.133 C 
ATOM     11  C   UNL     1     -10.778  -9.311  14.381  0.00  0.00    +0.125 C 
ATOM     12  C   UNL     1     -10.298  -9.850  15.731  0.00  0.00    +0.104 C 
ATOM     13  C   UNL     1     -12.448  -7.416  13.953  0.00  0.00    +0.305 C 
ENDROOT
BRANCH   6  14
ATOM     14  C   UNL     1      -8.940  -9.437  17.684  0.00  0.00    +0.119 C 
BRANCH  14  16
ATOM     16  C   UNL     1      -7.496  -9.854  17.607  0.00  0.00    -0.033 A 
ATOM     18  C   UNL     1      -6.739  -9.541  16.478  0.00  0.00    +0.006 A 
ATOM     19  C   UNL     1      -6.915 -10.555  18.664  0.00  0.00    +0.006 A 
ATOM     22  C   UNL     1      -5.401  -9.928  16.407  0.00  0.00    +0.015 A 
ATOM     23  C   UNL     1      -5.577 -10.941  18.593  0.00  0.00    +0.015 A 
ATOM     26  C   UNL     1      -4.820 -10.629  17.464  0.00  0.00    +0.059 A 
BRANCH  26  28
ATOM      4  O   UNL     1      -2.637 -10.724  16.490  0.00  0.00    -0.245 OA
ATOM     28  C   UNL     1      -3.423 -11.031  17.391  0.00  0.00    +0.337 C 
BRANCH  28   3
ATOM      3  O   UNL     1      -3.050 -11.806  18.445  0.00  0.00    -0.477 OA
ATOM     29  H   UNL     1      -3.756 -11.861  19.125  0.00  0.00    +0.295 HD
ENDBRANCH  28   3
ENDBRANCH  26  28
ENDBRANCH  14  16
ENDBRANCH   6  14
BRANCH   7  15
ATOM     15  C   UNL     1     -13.587  -5.151  14.139  0.00  0.00    +0.144 C 
BRANCH  15  17
ATOM      1  F   UNL     1     -13.092  -3.012   8.950  0.00  0.00    -0.205 F 
ATOM     17  C   UNL     1     -13.455  -4.580  12.753  0.00  0.00    -0.030 A 
ATOM     20  C   UNL     1     -12.248  -4.011  12.345  0.00  0.00    +0.008 A 
ATOM     21  C   UNL     1     -14.539  -4.619  11.876  0.00  0.00    +0.008 A 
ATOM     24  C   UNL     1     -12.126  -3.482  11.061  0.00  0.00    +0.038 A 
ATOM     25  C   UNL     1     -14.417  -4.089  10.592  0.00  0.00    +0.038 A 
ATOM     27  C   UNL     1     -13.210  -3.520  10.184  0.00  0.00    +0.123 A 
ENDBRANCH  15  17
ENDBRANCH   7  15
TORSDOF 6
ENDMDL
MODEL 7
REMARK VINA RESULT:      -6.5     29.512     35.126
REMARK  Name = 75368604
REMARK  6 active torsions:
REMARK  status: ('A' for Active; 'I' for Inactive)
REMARK    1  A    between atoms: O_3  and  C_28
REMARK    2  A    between atoms: N_6  and  C_14
REMARK    3  A    between atoms: N_7  and  C_15
REMARK    4  A    between atoms: C_14  and  C_16
REMARK    5  A    between atoms: C_15  and  C_17
REMARK    6  A    between atoms: C_26  and  C_28
REMARK                            x       y       z     vdW  Elec       q    Type
REMARK                         _______ _______ _______ _____ _____    ______ ____
ROOT
ATOM      2  O   UNL     1     -18.321   5.262  26.482  0.00  0.00    -0.252 OA
ATOM      5  N   UNL     1     -16.691   5.422  24.799  0.00  0.00    -0.278 N 
ATOM      6  N   UNL     1     -15.544   6.031  22.304  0.00  0.00    -0.295 NA
ATOM      7  N   UNL     1     -16.841   3.503  25.956  0.00  0.00    -0.279 N 
ATOM      8  C   UNL     1     -15.582   4.623  24.321  0.00  0.00    +0.109 C 
ATOM      9  C   UNL     1     -15.534   4.638  22.794  0.00  0.00    +0.109 C 
ATOM     10  C   UNL     1     -15.832   3.249  24.942  0.00  0.00    +0.133 C 
ATOM     11  C   UNL     1     -16.882   6.756  24.270  0.00  0.00    +0.125 C 
ATOM     12  C   UNL     1     -16.767   6.735  22.743  0.00  0.00    +0.104 C 
ATOM     13  C   UNL     1     -17.399   4.791  25.831  0.00  0.00    +0.305 C 
ENDROOT
BRANCH   6  14
ATOM     14  C   UNL     1     -15.437   6.059  20.845  0.00  0.00    +0.119 C 
BRANCH  14  16
ATOM     16  C   UNL     1     -14.221   6.817  20.386  0.00  0.00    -0.033 A 
ATOM     18  C   UNL     1     -13.015   6.684  21.075  0.00  0.00    +0.006 A 
ATOM     19  C   UNL     1     -14.300   7.654  19.273  0.00  0.00    +0.006 A 
ATOM     22  C   UNL     1     -11.888   7.388  20.650  0.00  0.00    +0.015 A 
ATOM     23  C   UNL     1     -13.173   8.357  18.848  0.00  0.00    +0.015 A 
ATOM     26  C   UNL     1     -11.967   8.224  19.536  0.00  0.00    +0.059 A 
BRANCH  26  28
ATOM      4  O   UNL     1     -10.208   9.833  19.736  0.00  0.00    -0.245 OA
ATOM     28  C   UNL     1     -10.791   8.957  19.092  0.00  0.00    +0.337 C 
BRANCH  28   3
ATOM      3  O   UNL     1     -10.378   8.573  17.853  0.00  0.00    -0.477 OA
ATOM     29  H   UNL     1      -9.553   9.034  17.585  0.00  0.00    +0.295 HD
ENDBRANCH  28   3
ENDBRANCH  26  28
ENDBRANCH  14  16
ENDBRANCH   6  14
BRANCH   7  15
ATOM     15  C   UNL     1     -17.291   2.471  26.864  0.00  0.00    +0.144 C 
BRANCH  15  17
ATOM      1  F   UNL     1     -13.652   1.652  31.086  0.00  0.00    -0.205 F 
ATOM     17  C   UNL     1     -16.319   2.252  27.991  0.00  0.00    -0.030 A 
ATOM     20  C   UNL     1     -15.667   3.341  28.572  0.00  0.00    +0.008 A 
ATOM     21  C   UNL     1     -16.070   0.961  28.457  0.00  0.00    +0.008 A 
ATOM     24  C   UNL     1     -14.766   3.138  29.617  0.00  0.00    +0.038 A 
ATOM     25  C   UNL     1     -15.168   0.758  29.502  0.00  0.00    +0.038 A 
ATOM     27  C   UNL     1     -14.516   1.847  30.081  0.00  0.00    +0.123 A 
ENDBRANCH  15  17
ENDBRANCH   7  15
TORSDOF 6
ENDMDL
MODEL 8
REMARK VINA RESULT:      -6.3     37.037     38.769
REMARK  Name = 75368604
REMARK  6 active torsions:
REMARK  status: ('A' for Active; 'I' for Inactive)
REMARK    1  A    between atoms: O_3  and  C_28
REMARK    2  A    between atoms: N_6  and  C_14
REMARK    3  A    between atoms: N_7  and  C_15
REMARK    4  A    between atoms: C_14  and  C_16
REMARK    5  A    between atoms: C_15  and  C_17
REMARK    6  A    between atoms: C_26  and  C_28
REMARK                            x       y       z     vdW  Elec       q    Type
REMARK                         _______ _______ _______ _____ _____    ______ ____
ROOT
ATOM      2  O   UNL     1     -14.452  10.840  33.435  0.00  0.00    -0.252 OA
ATOM      5  N   UNL     1     -14.735   8.580  32.864  0.00  0.00    -0.278 N 
ATOM      6  N   UNL     1     -15.699   5.940  32.992  0.00  0.00    -0.295 NA
ATOM      7  N   UNL     1     -12.653   9.422  32.873  0.00  0.00    -0.279 N 
ATOM      8  C   UNL     1     -13.906   7.504  32.362  0.00  0.00    +0.109 C 
ATOM      9  C   UNL     1     -14.246   6.194  33.071  0.00  0.00    +0.109 C 
ATOM     10  C   UNL     1     -12.482   8.008  32.590  0.00  0.00    +0.133 C 
ATOM     11  C   UNL     1     -16.166   8.381  32.968  0.00  0.00    +0.125 C 
ATOM     12  C   UNL     1     -16.460   7.033  33.630  0.00  0.00    +0.104 C 
ATOM     13  C   UNL     1     -14.005   9.753  33.096  0.00  0.00    +0.305 C 
ENDROOT
BRANCH   6  14
ATOM     14  C   UNL     1     -16.026   4.659  33.616  0.00  0.00    +0.119 C 
BRANCH  14  16
ATOM     16  C   UNL     1     -15.617   3.494  32.754  0.00  0.00    -0.033 A 
ATOM     18  C   UNL     1     -14.975   2.395  33.326  0.00  0.00    +0.006 A 
ATOM     19  C   UNL     1     -15.880   3.514  31.385  0.00  0.00    +0.006 A 
ATOM     22  C   UNL     1     -14.596   1.317  32.527  0.00  0.00    +0.015 A 
ATOM     23  C   UNL     1     -15.501   2.435  30.587  0.00  0.00    +0.015 A 
ATOM     26  C   UNL     1     -14.859   1.336  31.157  0.00  0.00    +0.059 A 
BRANCH  26  28
ATOM      4  O   UNL     1     -15.223  -0.666  29.900  0.00  0.00    -0.245 OA
ATOM     28  C   UNL     1     -14.464   0.210  30.325  0.00  0.00    +0.337 C 
BRANCH  28   3
ATOM      3  O   UNL     1     -13.132   0.211  30.047  0.00  0.00    -0.477 OA
ATOM     29  H   UNL     1     -12.884   0.955  29.455  0.00  0.00    +0.295 HD
ENDBRANCH  28   3
ENDBRANCH  26  28
ENDBRANCH  14  16
ENDBRANCH   6  14
BRANCH   7  15
ATOM     15  C   UNL     1     -11.526  10.311  33.046  0.00  0.00    +0.144 C 
BRANCH  15  17
ATOM      1  F   UNL     1      -8.241   8.725  37.340  0.00  0.00    -0.205 F 
ATOM     17  C   UNL     1     -10.649   9.888  34.193  0.00  0.00    -0.030 A 
ATOM     20  C   UNL     1     -11.221   9.373  35.357  0.00  0.00    +0.008 A 
ATOM     21  C   UNL     1      -9.262  10.009  34.093  0.00  0.00    +0.008 A 
ATOM     24  C   UNL     1     -10.408   8.981  36.420  0.00  0.00    +0.038 A 
ATOM     25  C   UNL     1      -8.449   9.617  35.156  0.00  0.00    +0.038 A 
ATOM     27  C   UNL     1      -9.022   9.103  36.320  0.00  0.00    +0.123 A 
ENDBRANCH  15  17
ENDBRANCH   7  15
TORSDOF 6
ENDMDL
MODEL 9
REMARK VINA RESULT:      -6.3     26.488     29.292
REMARK  Name = 75368604
REMARK  6 active torsions:
REMARK  status: ('A' for Active; 'I' for Inactive)
REMARK    1  A    between atoms: O_3  and  C_28
REMARK    2  A    between atoms: N_6  and  C_14
REMARK    3  A    between atoms: N_7  and  C_15
REMARK    4  A    between atoms: C_14  and  C_16
REMARK    5  A    between atoms: C_15  and  C_17
REMARK    6  A    between atoms: C_26  and  C_28
REMARK                            x       y       z     vdW  Elec       q    Type
REMARK                         _______ _______ _______ _____ _____    ______ ____
ROOT
ATOM      2  O   UNL     1      -4.511 -11.569  18.929  0.00  0.00    -0.252 OA
ATOM      5  N   UNL     1      -6.373 -10.430  18.065  0.00  0.00    -0.278 N 
ATOM      6  N   UNL     1      -9.044  -9.943  17.328  0.00  0.00    -0.295 NA
ATOM      7  N   UNL     1      -4.458 -10.383  16.892  0.00  0.00    -0.279 N 
ATOM      8  C   UNL     1      -6.646  -9.533  16.961  0.00  0.00    +0.109 C 
ATOM      9  C   UNL     1      -7.980  -9.885  16.305  0.00  0.00    +0.109 C 
ATOM     10  C   UNL     1      -5.424  -9.691  16.056  0.00  0.00    +0.133 C 
ATOM     11  C   UNL     1      -7.406 -10.675  19.049  0.00  0.00    +0.125 C 
ATOM     12  C   UNL     1      -8.737 -10.965  18.350  0.00  0.00    +0.104 C 
ATOM     13  C   UNL     1      -5.046 -10.878  18.074  0.00  0.00    +0.305 C 
ENDROOT
BRANCH   6  14
ATOM     14  C   UNL     1     -10.337 -10.221  16.703  0.00  0.00    +0.119 C 
BRANCH  14  16
ATOM     16  C   UNL     1     -10.922  -8.994  16.057  0.00  0.00    -0.033 A 
ATOM     18  C   UNL     1     -11.419  -9.061  14.755  0.00  0.00    +0.006 A 
ATOM     19  C   UNL     1     -10.967  -7.789  16.759  0.00  0.00    +0.006 A 
ATOM     22  C   UNL     1     -11.961  -7.923  14.156  0.00  0.00    +0.015 A 
ATOM     23  C   UNL     1     -11.509  -6.653  16.160  0.00  0.00    +0.015 A 
ATOM     26  C   UNL     1     -12.006  -6.719  14.859  0.00  0.00    +0.059 A 
BRANCH  26  28
ATOM      4  O   UNL     1     -13.777  -5.301  14.101  0.00  0.00    -0.245 OA
ATOM     28  C   UNL     1     -12.572  -5.534  14.234  0.00  0.00    +0.337 C 
BRANCH  28   3
ATOM      3  O   UNL     1     -11.616  -4.672  13.793  0.00  0.00    -0.477 OA
ATOM     29  H   UNL     1     -11.028  -4.375  14.521  0.00  0.00    +0.295 HD
ENDBRANCH  28   3
ENDBRANCH  26  28
ENDBRANCH  14  16
ENDBRANCH   6  14
BRANCH   7  15
ATOM     15  C   UNL     1      -3.106 -10.639  16.449  0.00  0.00    +0.144 C 
BRANCH  15  17
ATOM      1  F   UNL     1      -2.972 -12.769  11.234  0.00  0.00    -0.205 F 
ATOM     17  C   UNL     1      -3.070 -11.207  15.056  0.00  0.00    -0.030 A 
ATOM     20  C   UNL     1      -3.671 -12.438  14.789  0.00  0.00    +0.008 A 
ATOM     21  C   UNL     1      -2.436 -10.504  14.031  0.00  0.00    +0.008 A 
ATOM     24  C   UNL     1      -3.637 -12.965  13.499  0.00  0.00    +0.038 A 
ATOM     25  C   UNL     1      -2.403 -11.032  12.740  0.00  0.00    +0.038 A 
ATOM     27  C   UNL     1      -3.003 -12.263  12.474  0.00  0.00    +0.123 A 
ENDBRANCH  15  17
ENDBRANCH   7  15
TORSDOF 6
ENDMDL
MODEL 10
REMARK VINA RESULT:      -6.2      1.315      1.712
REMARK  Name = 75368604
REMARK  6 active torsions:
REMARK  status: ('A' for Active; 'I' for Inactive)
REMARK    1  A    between atoms: O_3  and  C_28
REMARK    2  A    between atoms: N_6  and  C_14
REMARK    3  A    between atoms: N_7  and  C_15
REMARK    4  A    between atoms: C_14  and  C_16
REMARK    5  A    between atoms: C_15  and  C_17
REMARK    6  A    between atoms: C_26  and  C_28
REMARK                            x       y       z     vdW  Elec       q    Type
REMARK                         _______ _______ _______ _____ _____    ______ ____
ROOT
ATOM      2  O   UNL     1      16.547  10.741   3.574  0.00  0.00    -0.252 OA
ATOM      5  N   UNL     1      14.732   9.357   4.127  0.00  0.00    -0.278 N 
ATOM      6  N   UNL     1      12.063   8.538   4.465  0.00  0.00    -0.295 NA
ATOM      7  N   UNL     1      16.465   9.459   5.552  0.00  0.00    -0.279 N 
ATOM      8  C   UNL     1      14.421   8.377   5.147  0.00  0.00    +0.109 C 
ATOM      9  C   UNL     1      12.979   8.543   5.623  0.00  0.00    +0.109 C 
ATOM     10  C   UNL     1      15.483   8.620   6.218  0.00  0.00    +0.133 C 
ATOM     11  C   UNL     1      13.819   9.539   3.018  0.00  0.00    +0.125 C 
ATOM     12  C   UNL     1      12.382   9.641   3.535  0.00  0.00    +0.104 C 
ATOM     13  C   UNL     1      15.987   9.949   4.320  0.00  0.00    +0.305 C 
ENDROOT
BRANCH   6  14
ATOM     14  C   UNL     1      10.674   8.636   4.914  0.00  0.00    +0.119 C 
BRANCH  14  16
ATOM     16  C   UNL     1      10.357   7.623   5.981  0.00  0.00    -0.033 A 
ATOM     18  C   UNL     1      10.484   6.260   5.708  0.00  0.00    +0.006 A 
ATOM     19  C   UNL     1       9.936   8.045   7.242  0.00  0.00    +0.006 A 
ATOM     22  C   UNL     1      10.190   5.321   6.697  0.00  0.00    +0.015 A 
ATOM     23  C   UNL     1       9.643   7.106   8.230  0.00  0.00    +0.015 A 
ATOM     26  C   UNL     1       9.769   5.744   7.958  0.00  0.00    +0.059 A 
BRANCH  26  28
ATOM      4  O   UNL     1       8.804   4.981  10.009  0.00  0.00    -0.245 OA
ATOM     28  C   UNL     1       9.464   4.764   8.989  0.00  0.00    +0.337 C 
BRANCH  28   3
ATOM      3  O   UNL     1       9.994   3.540   8.715  0.00  0.00    -0.477 OA
ATOM     29  H   UNL     1       9.525   2.824   9.197  0.00  0.00    +0.295 HD
ENDBRANCH  28   3
ENDBRANCH  26  28
ENDBRANCH  14  16
ENDBRANCH   6  14
BRANCH   7  15
ATOM     15  C   UNL     1      17.706   9.839   6.189  0.00  0.00    +0.144 C 
BRANCH  15  17
ATOM      1  F   UNL     1      21.899   6.305   4.897  0.00  0.00    -0.205 F 
ATOM     17  C   UNL     1      18.826   8.895   5.844  0.00  0.00    -0.030 A 
ATOM     20  C   UNL     1      18.871   8.297   4.585  0.00  0.00    +0.008 A 
ATOM     21  C   UNL     1      19.820   8.618   6.784  0.00  0.00    +0.008 A 
ATOM     24  C   UNL     1      19.909   7.422   4.265  0.00  0.00    +0.038 A 
ATOM     25  C   UNL     1      20.857   7.742   6.464  0.00  0.00    +0.038 A 
ATOM     27  C   UNL     1      20.902   7.144   5.205  0.00  0.00    +0.123 A 
ENDBRANCH  15  17
ENDBRANCH   7  15
TORSDOF 6
ENDMDL
