MODEL 1
REMARK VINA RESULT:      -7.6      0.000      0.000
REMARK  Name = 11884078
REMARK  9 active torsions:
REMARK  status: ('A' for Active; 'I' for Inactive)
REMARK    1  A    between atoms: S_1  and  N_9
REMARK    2  A    between atoms: S_1  and  C_17
REMARK    3  A    between atoms: O_4  and  C_14
REMARK    4  A    between atoms: O_4  and  C_18
REMARK    5  A    between atoms: O_8  and  C_30
REMARK    6  A    between atoms: O_8  and  C_31
REMARK    7  A    between atoms: N_9  and  C_13
REMARK    8  A    between atoms: N_10  and  C_22
REMARK    9  A    between atoms: C_17  and  C_19
REMARK                            x       y       z     vdW  Elec       q    Type
REMARK                         _______ _______ _______ _____ _____    ______ ____
ROOT
ATOM      2  O   UNL     1      16.534   8.402  20.869  0.00  0.00    -0.369 OA
ATOM      3  O   UNL     1      16.067   5.955  19.063  0.00  0.00    -0.368 OA
ATOM     11  C   UNL     1      15.403   6.405  20.263  0.00  0.00    +0.171 C 
ATOM     12  C   UNL     1      16.472   6.997  21.161  0.00  0.00    +0.191 C 
ATOM     13  C   UNL     1      14.506   7.575  19.946  0.00  0.00    +0.133 C 
ATOM     14  C   UNL     1      17.718   6.274  20.708  0.00  0.00    +0.235 C 
ATOM     15  C   UNL     1      15.462   8.752  19.980  0.00  0.00    +0.183 C 
ATOM     16  C   UNL     1      17.481   6.134  19.222  0.00  0.00    +0.207 C 
ENDROOT
BRANCH  13   9
ATOM      9  N   UNL     1      13.482   7.730  21.007  0.00  0.00    -0.186 NA
ATOM     32  H   UNL     1      13.816   7.775  21.978  0.00  0.00    +0.148 HD
BRANCH   9   1
ATOM      1  S   UNL     1      11.893   7.199  20.702  0.00  0.00    +0.034 S 
ATOM      5  O   UNL     1      11.258   6.795  21.940  0.00  0.00    -0.158 OA
ATOM      6  O   UNL     1      11.926   6.306  19.559  0.00  0.00    -0.158 OA
BRANCH   1  17
ATOM     17  C   UNL     1      11.137   8.717  20.168  0.00  0.00    +0.220 C 
BRANCH  17  19
ATOM     19  C   UNL     1      11.414   9.756  21.211  0.00  0.00    -0.025 A 
ATOM     20  C   UNL     1      12.292  10.804  20.933  0.00  0.00    +0.005 A 
ATOM     21  C   UNL     1      10.796   9.676  22.458  0.00  0.00    +0.005 A 
ATOM     23  C   UNL     1      12.552  11.772  21.905  0.00  0.00    +0.000 A 
ATOM     24  C   UNL     1      11.055  10.645  23.429  0.00  0.00    +0.000 A 
ATOM     25  C   UNL     1      11.933  11.693  23.151  0.00  0.00    +0.000 A 
ENDBRANCH  17  19
ENDBRANCH   1  17
ENDBRANCH   9   1
ENDBRANCH  13   9
BRANCH  14   4
ATOM      4  O   UNL     1      18.909   6.974  20.993  0.00  0.00    -0.442 OA
BRANCH   4  18
ATOM      7  O   UNL     1      20.144   6.195  22.753  0.00  0.00    -0.226 OA
ATOM     10  N   UNL     1      20.662   5.627  20.542  0.00  0.00    -0.251 N 
ATOM     18  C   UNL     1      19.942   6.247  21.546  0.00  0.00    +0.405 C 
ATOM     33  H   UNL     1      20.338   5.791  19.591  0.00  0.00    +0.158 HD
BRANCH  10  22
ATOM     22  C   UNL     1      21.794   4.792  20.671  0.00  0.00    +0.037 A 
ATOM     26  C   UNL     1      23.062   5.283  20.359  0.00  0.00    +0.027 A 
ATOM     27  C   UNL     1      21.644   3.476  21.109  0.00  0.00    +0.027 A 
ATOM     28  C   UNL     1      24.180   4.459  20.485  0.00  0.00    +0.047 A 
ATOM     29  C   UNL     1      22.762   2.652  21.235  0.00  0.00    +0.047 A 
ATOM     30  C   UNL     1      24.030   3.143  20.923  0.00  0.00    +0.120 A 
BRANCH  30   8
ATOM      8  O   UNL     1      25.120   2.338  21.046  0.00  0.00    -0.495 OA
ATOM     31  C   UNL     1      24.909   1.036  21.590  0.00  0.00    +0.277 C 
ENDBRANCH  30   8
ENDBRANCH  10  22
ENDBRANCH   4  18
ENDBRANCH  14   4
TORSDOF 8
ENDMDL
MODEL 2
REMARK VINA RESULT:      -7.2      1.731      2.774
REMARK  Name = 11884078
REMARK  9 active torsions:
REMARK  status: ('A' for Active; 'I' for Inactive)
REMARK    1  A    between atoms: S_1  and  N_9
REMARK    2  A    between atoms: S_1  and  C_17
REMARK    3  A    between atoms: O_4  and  C_14
REMARK    4  A    between atoms: O_4  and  C_18
REMARK    5  A    between atoms: O_8  and  C_30
REMARK    6  A    between atoms: O_8  and  C_31
REMARK    7  A    between atoms: N_9  and  C_13
REMARK    8  A    between atoms: N_10  and  C_22
REMARK    9  A    between atoms: C_17  and  C_19
REMARK                            x       y       z     vdW  Elec       q    Type
REMARK                         _______ _______ _______ _____ _____    ______ ____
ROOT
ATOM      2  O   UNL     1      16.696   8.246  20.981  0.00  0.00    -0.369 OA
ATOM      3  O   UNL     1      16.472   5.834  19.084  0.00  0.00    -0.368 OA
ATOM     11  C   UNL     1      15.705   6.219  20.244  0.00  0.00    +0.171 C 
ATOM     12  C   UNL     1      16.679   6.831  21.232  0.00  0.00    +0.191 C 
ATOM     13  C   UNL     1      14.779   7.356  19.894  0.00  0.00    +0.133 C 
ATOM     14  C   UNL     1      17.986   6.179  20.852  0.00  0.00    +0.235 C 
ATOM     15  C   UNL     1      15.674   8.573  20.027  0.00  0.00    +0.183 C 
ATOM     16  C   UNL     1      17.862   6.072  19.349  0.00  0.00    +0.207 C 
ENDROOT
BRANCH  13   9
ATOM      9  N   UNL     1      13.676   7.434  20.882  0.00  0.00    -0.186 NA
ATOM     32  H   UNL     1      13.900   7.190  21.855  0.00  0.00    +0.148 HD
BRANCH   9   1
ATOM      1  S   UNL     1      12.070   7.275  20.338  0.00  0.00    +0.034 S 
ATOM      5  O   UNL     1      11.206   6.905  21.441  0.00  0.00    -0.158 OA
ATOM      6  O   UNL     1      12.081   6.500  19.112  0.00  0.00    -0.158 OA
BRANCH   1  17
ATOM     17  C   UNL     1      11.705   8.959  19.898  0.00  0.00    +0.220 C 
BRANCH  17  19
ATOM     19  C   UNL     1      11.751   9.060  18.404  0.00  0.00    -0.025 A 
ATOM     20  C   UNL     1      12.885   9.574  17.775  0.00  0.00    +0.005 A 
ATOM     21  C   UNL     1      10.660   8.641  17.642  0.00  0.00    +0.005 A 
ATOM     23  C   UNL     1      12.928   9.669  16.383  0.00  0.00    +0.000 A 
ATOM     24  C   UNL     1      10.704   8.735  16.251  0.00  0.00    +0.000 A 
ATOM     25  C   UNL     1      11.838   9.250  15.622  0.00  0.00    +0.000 A 
ENDBRANCH  17  19
ENDBRANCH   1  17
ENDBRANCH   9   1
ENDBRANCH  13   9
BRANCH  14   4
ATOM      4  O   UNL     1      19.119   6.923  21.239  0.00  0.00    -0.442 OA
BRANCH   4  18
ATOM      7  O   UNL     1      20.024   6.297  23.244  0.00  0.00    -0.226 OA
ATOM     10  N   UNL     1      20.972   5.635  21.208  0.00  0.00    -0.251 N 
ATOM     18  C   UNL     1      20.054   6.274  22.019  0.00  0.00    +0.405 C 
ATOM     33  H   UNL     1      20.829   5.733  20.205  0.00  0.00    +0.158 HD
BRANCH  10  22
ATOM     22  C   UNL     1      22.087   4.860  21.597  0.00  0.00    +0.037 A 
ATOM     26  C   UNL     1      21.904   3.557  22.060  0.00  0.00    +0.027 A 
ATOM     27  C   UNL     1      23.372   5.398  21.521  0.00  0.00    +0.027 A 
ATOM     28  C   UNL     1      23.004   2.792  22.445  0.00  0.00    +0.047 A 
ATOM     29  C   UNL     1      24.472   4.633  21.906  0.00  0.00    +0.047 A 
ATOM     30  C   UNL     1      24.289   3.330  22.369  0.00  0.00    +0.120 A 
BRANCH  30   8
ATOM      8  O   UNL     1      25.362   2.584  22.745  0.00  0.00    -0.495 OA
ATOM     31  C   UNL     1      26.063   1.887  21.715  0.00  0.00    +0.277 C 
ENDBRANCH  30   8
ENDBRANCH  10  22
ENDBRANCH   4  18
ENDBRANCH  14   4
TORSDOF 8
ENDMDL
MODEL 3
REMARK VINA RESULT:      -7.0     27.643     31.441
REMARK  Name = 11884078
REMARK  9 active torsions:
REMARK  status: ('A' for Active; 'I' for Inactive)
REMARK    1  A    between atoms: S_1  and  N_9
REMARK    2  A    between atoms: S_1  and  C_17
REMARK    3  A    between atoms: O_4  and  C_14
REMARK    4  A    between atoms: O_4  and  C_18
REMARK    5  A    between atoms: O_8  and  C_30
REMARK    6  A    between atoms: O_8  and  C_31
REMARK    7  A    between atoms: N_9  and  C_13
REMARK    8  A    between atoms: N_10  and  C_22
REMARK    9  A    between atoms: C_17  and  C_19
REMARK                            x       y       z     vdW  Elec       q    Type
REMARK                         _______ _______ _______ _____ _____    ______ ____
ROOT
ATOM      2  O   UNL     1     -12.673  -8.018  14.765  0.00  0.00    -0.369 OA
ATOM      3  O   UNL     1     -11.242  -5.764  16.295  0.00  0.00    -0.368 OA
ATOM     11  C   UNL     1     -11.451  -5.987  14.885  0.00  0.00    +0.171 C 
ATOM     12  C   UNL     1     -11.344  -7.482  14.655  0.00  0.00    +0.191 C 
ATOM     13  C   UNL     1     -12.877  -5.663  14.518  0.00  0.00    +0.133 C 
ATOM     14  C   UNL     1     -10.464  -7.928  15.797  0.00  0.00    +0.235 C 
ATOM     15  C   UNL     1     -13.614  -6.939  14.874  0.00  0.00    +0.183 C 
ATOM     16  C   UNL     1     -10.908  -7.014  16.916  0.00  0.00    +0.207 C 
ENDROOT
BRANCH  13   9
ATOM      9  N   UNL     1     -12.982  -5.413  13.061  0.00  0.00    -0.186 NA
ATOM     32  H   UNL     1     -12.525  -6.088  12.435  0.00  0.00    +0.148 HD
BRANCH   9   1
ATOM      1  S   UNL     1     -13.236  -3.820  12.515  0.00  0.00    +0.034 S 
ATOM      5  O   UNL     1     -11.992  -3.077  12.555  0.00  0.00    -0.158 OA
ATOM      6  O   UNL     1     -14.429  -3.305  13.160  0.00  0.00    -0.158 OA
BRANCH   1  17
ATOM     17  C   UNL     1     -13.641  -4.118  10.810  0.00  0.00    +0.220 C 
BRANCH  17  19
ATOM     19  C   UNL     1     -12.381  -4.520  10.106  0.00  0.00    -0.025 A 
ATOM     20  C   UNL     1     -12.083  -5.872   9.930  0.00  0.00    +0.005 A 
ATOM     21  C   UNL     1     -11.507  -3.545   9.626  0.00  0.00    +0.005 A 
ATOM     23  C   UNL     1     -10.909  -6.247   9.274  0.00  0.00    +0.000 A 
ATOM     24  C   UNL     1     -10.335  -3.921   8.970  0.00  0.00    +0.000 A 
ATOM     25  C   UNL     1     -10.036  -5.272   8.795  0.00  0.00    +0.000 A 
ENDBRANCH  17  19
ENDBRANCH   1  17
ENDBRANCH   9   1
ENDBRANCH  13   9
BRANCH  14   4
ATOM      4  O   UNL     1     -10.620  -9.289  16.130  0.00  0.00    -0.442 OA
BRANCH   4  18
ATOM      7  O   UNL     1      -9.491 -11.214  15.630  0.00  0.00    -0.226 OA
ATOM     10  N   UNL     1      -8.418  -9.380  16.614  0.00  0.00    -0.251 N 
ATOM     18  C   UNL     1      -9.488 -10.076  16.084  0.00  0.00    +0.405 C 
ATOM     33  H   UNL     1      -8.615  -8.438  16.943  0.00  0.00    +0.158 HD
BRANCH  10  22
ATOM     22  C   UNL     1      -7.082  -9.815  16.757  0.00  0.00    +0.037 A 
ATOM     26  C   UNL     1      -6.628 -10.281  17.991  0.00  0.00    +0.027 A 
ATOM     27  C   UNL     1      -6.215  -9.778  15.664  0.00  0.00    +0.027 A 
ATOM     28  C   UNL     1      -5.309 -10.710  18.132  0.00  0.00    +0.047 A 
ATOM     29  C   UNL     1      -4.896 -10.207  15.806  0.00  0.00    +0.047 A 
ATOM     30  C   UNL     1      -4.442 -10.673  17.040  0.00  0.00    +0.120 A 
BRANCH  30   8
ATOM      8  O   UNL     1      -3.155 -11.091  17.178  0.00  0.00    -0.495 OA
ATOM     31  C   UNL     1      -2.252 -10.776  16.119  0.00  0.00    +0.277 C 
ENDBRANCH  30   8
ENDBRANCH  10  22
ENDBRANCH   4  18
ENDBRANCH  14   4
TORSDOF 8
ENDMDL
MODEL 4
REMARK VINA RESULT:      -6.9     28.204     31.011
REMARK  Name = 11884078
REMARK  9 active torsions:
REMARK  status: ('A' for Active; 'I' for Inactive)
REMARK    1  A    between atoms: S_1  and  N_9
REMARK    2  A    between atoms: S_1  and  C_17
REMARK    3  A    between atoms: O_4  and  C_14
REMARK    4  A    between atoms: O_4  and  C_18
REMARK    5  A    between atoms: O_8  and  C_30
REMARK    6  A    between atoms: O_8  and  C_31
REMARK    7  A    between atoms: N_9  and  C_13
REMARK    8  A    between atoms: N_10  and  C_22
REMARK    9  A    between atoms: C_17  and  C_19
REMARK                            x       y       z     vdW  Elec       q    Type
REMARK                         _______ _______ _______ _____ _____    ______ ____
ROOT
ATOM      2  O   UNL     1      -6.447 -12.158  16.608  0.00  0.00    -0.369 OA
ATOM      3  O   UNL     1      -4.785 -10.636  18.703  0.00  0.00    -0.368 OA
ATOM     11  C   UNL     1      -4.468 -11.761  17.857  0.00  0.00    +0.171 C 
ATOM     12  C   UNL     1      -5.722 -12.608  17.764  0.00  0.00    +0.191 C 
ATOM     13  C   UNL     1      -4.240 -11.292  16.442  0.00  0.00    +0.133 C 
ATOM     14  C   UNL     1      -6.444 -12.269  19.045  0.00  0.00    +0.235 C 
ATOM     15  C   UNL     1      -5.647 -11.211  15.883  0.00  0.00    +0.183 C 
ATOM     16  C   UNL     1      -6.114 -10.804  19.217  0.00  0.00    +0.207 C 
ENDROOT
BRANCH  13   9
ATOM      9  N   UNL     1      -3.459 -12.306  15.692  0.00  0.00    -0.186 NA
ATOM     32  H   UNL     1      -3.158 -13.141  16.208  0.00  0.00    +0.148 HD
BRANCH   9   1
ATOM      1  S   UNL     1      -2.575 -11.815  14.322  0.00  0.00    +0.034 S 
ATOM      5  O   UNL     1      -1.394 -12.642  14.172  0.00  0.00    -0.158 OA
ATOM      6  O   UNL     1      -2.469 -10.369  14.344  0.00  0.00    -0.158 OA
BRANCH   1  17
ATOM     17  C   UNL     1      -3.713 -12.245  13.026  0.00  0.00    +0.220 C 
BRANCH  17  19
ATOM     19  C   UNL     1      -3.857 -11.052  12.132  0.00  0.00    -0.025 A 
ATOM     20  C   UNL     1      -5.028 -10.295  12.163  0.00  0.00    +0.005 A 
ATOM     21  C   UNL     1      -2.821 -10.697  11.268  0.00  0.00    +0.005 A 
ATOM     23  C   UNL     1      -5.164  -9.184  11.330  0.00  0.00    +0.000 A 
ATOM     24  C   UNL     1      -2.956  -9.585  10.436  0.00  0.00    +0.000 A 
ATOM     25  C   UNL     1      -4.128  -8.829  10.467  0.00  0.00    +0.000 A 
ENDBRANCH  17  19
ENDBRANCH   1  17
ENDBRANCH   9   1
ENDBRANCH  13   9
BRANCH  14   4
ATOM      4  O   UNL     1      -7.834 -12.497  18.985  0.00  0.00    -0.442 OA
BRANCH   4  18
ATOM      7  O   UNL     1      -9.036 -10.920  20.125  0.00  0.00    -0.226 OA
ATOM     10  N   UNL     1      -8.935 -10.935  17.786  0.00  0.00    -0.251 N 
ATOM     18  C   UNL     1      -8.651 -11.388  19.060  0.00  0.00    +0.405 C 
ATOM     33  H   UNL     1      -8.520 -11.460  17.020  0.00  0.00    +0.158 HD
BRANCH  10  22
ATOM     22  C   UNL     1      -9.732  -9.830  17.413  0.00  0.00    +0.037 A 
ATOM     26  C   UNL     1      -9.132  -8.673  16.916  0.00  0.00    +0.027 A 
ATOM     27  C   UNL     1     -11.120  -9.895  17.541  0.00  0.00    +0.027 A 
ATOM     28  C   UNL     1      -9.918  -7.581  16.549  0.00  0.00    +0.047 A 
ATOM     29  C   UNL     1     -11.906  -8.804  17.173  0.00  0.00    +0.047 A 
ATOM     30  C   UNL     1     -11.306  -7.647  16.677  0.00  0.00    +0.120 A 
BRANCH  30   8
ATOM      8  O   UNL     1     -12.073  -6.582  16.318  0.00  0.00    -0.495 OA
ATOM     31  C   UNL     1     -11.651  -5.831  15.180  0.00  0.00    +0.277 C 
ENDBRANCH  30   8
ENDBRANCH  10  22
ENDBRANCH   4  18
ENDBRANCH  14   4
TORSDOF 8
ENDMDL
MODEL 5
REMARK VINA RESULT:      -6.7      6.873     11.718
REMARK  Name = 11884078
REMARK  9 active torsions:
REMARK  status: ('A' for Active; 'I' for Inactive)
REMARK    1  A    between atoms: S_1  and  N_9
REMARK    2  A    between atoms: S_1  and  C_17
REMARK    3  A    between atoms: O_4  and  C_14
REMARK    4  A    between atoms: O_4  and  C_18
REMARK    5  A    between atoms: O_8  and  C_30
REMARK    6  A    between atoms: O_8  and  C_31
REMARK    7  A    between atoms: N_9  and  C_13
REMARK    8  A    between atoms: N_10  and  C_22
REMARK    9  A    between atoms: C_17  and  C_19
REMARK                            x       y       z     vdW  Elec       q    Type
REMARK                         _______ _______ _______ _____ _____    ______ ____
ROOT
ATOM      2  O   UNL     1      13.588   8.696  15.319  0.00  0.00    -0.369 OA
ATOM      3  O   UNL     1      14.243  10.758  17.507  0.00  0.00    -0.368 OA
ATOM     11  C   UNL     1      13.174   9.796  17.381  0.00  0.00    +0.171 C 
ATOM     12  C   UNL     1      12.802   9.743  15.912  0.00  0.00    +0.191 C 
ATOM     13  C   UNL     1      13.692   8.411  17.676  0.00  0.00    +0.133 C 
ATOM     14  C   UNL     1      13.219  11.106  15.417  0.00  0.00    +0.235 C 
ATOM     15  C   UNL     1      14.291   7.986  16.350  0.00  0.00    +0.183 C 
ATOM     16  C   UNL     1      14.467  11.370  16.229  0.00  0.00    +0.207 C 
ENDROOT
BRANCH  13   9
ATOM      9  N   UNL     1      12.566   7.514  18.029  0.00  0.00    -0.186 NA
ATOM     32  H   UNL     1      12.030   7.106  17.253  0.00  0.00    +0.148 HD
BRANCH   9   1
ATOM      1  S   UNL     1      11.816   7.692  19.547  0.00  0.00    +0.034 S 
ATOM      5  O   UNL     1      11.703   6.402  20.200  0.00  0.00    -0.158 OA
ATOM      6  O   UNL     1      10.653   8.543  19.382  0.00  0.00    -0.158 OA
BRANCH   1  17
ATOM     17  C   UNL     1      13.047   8.638  20.413  0.00  0.00    +0.220 C 
BRANCH  17  19
ATOM     19  C   UNL     1      12.339   9.700  21.196  0.00  0.00    -0.025 A 
ATOM     20  C   UNL     1      11.619   9.358  22.341  0.00  0.00    +0.005 A 
ATOM     21  C   UNL     1      12.400  11.030  20.781  0.00  0.00    +0.005 A 
ATOM     23  C   UNL     1      10.958  10.348  23.071  0.00  0.00    +0.000 A 
ATOM     24  C   UNL     1      11.741  12.020  21.512  0.00  0.00    +0.000 A 
ATOM     25  C   UNL     1      11.019  11.678  22.657  0.00  0.00    +0.000 A 
ENDBRANCH  17  19
ENDBRANCH   1  17
ENDBRANCH   9   1
ENDBRANCH  13   9
BRANCH  14   4
ATOM      4  O   UNL     1      13.470  11.149  14.030  0.00  0.00    -0.442 OA
BRANCH   4  18
ATOM      7  O   UNL     1      13.283  13.023  12.732  0.00  0.00    -0.226 OA
ATOM     10  N   UNL     1      11.413  11.740  13.316  0.00  0.00    -0.251 N 
ATOM     18  C   UNL     1      12.754  12.072  13.296  0.00  0.00    +0.405 C 
ATOM     33  H   UNL     1      11.165  10.906  13.844  0.00  0.00    +0.158 HD
BRANCH  10  22
ATOM     22  C   UNL     1      10.339  12.416  12.694  0.00  0.00    +0.037 A 
ATOM     26  C   UNL     1       9.955  13.679  13.146  0.00  0.00    +0.027 A 
ATOM     27  C   UNL     1       9.663  11.822  11.629  0.00  0.00    +0.027 A 
ATOM     28  C   UNL     1       8.895  14.347  12.533  0.00  0.00    +0.047 A 
ATOM     29  C   UNL     1       8.603  12.489  11.016  0.00  0.00    +0.047 A 
ATOM     30  C   UNL     1       8.219  13.752  11.468  0.00  0.00    +0.120 A 
BRANCH  30   8
ATOM      8  O   UNL     1       7.184  14.403  10.871  0.00  0.00    -0.495 OA
ATOM     31  C   UNL     1       6.431  13.675   9.902  0.00  0.00    +0.277 C 
ENDBRANCH  30   8
ENDBRANCH  10  22
ENDBRANCH   4  18
ENDBRANCH  14   4
TORSDOF 8
ENDMDL
MODEL 6
REMARK VINA RESULT:      -6.7      7.199     10.822
REMARK  Name = 11884078
REMARK  9 active torsions:
REMARK  status: ('A' for Active; 'I' for Inactive)
REMARK    1  A    between atoms: S_1  and  N_9
REMARK    2  A    between atoms: S_1  and  C_17
REMARK    3  A    between atoms: O_4  and  C_14
REMARK    4  A    between atoms: O_4  and  C_18
REMARK    5  A    between atoms: O_8  and  C_30
REMARK    6  A    between atoms: O_8  and  C_31
REMARK    7  A    between atoms: N_9  and  C_13
REMARK    8  A    between atoms: N_10  and  C_22
REMARK    9  A    between atoms: C_17  and  C_19
REMARK                            x       y       z     vdW  Elec       q    Type
REMARK                         _______ _______ _______ _____ _____    ______ ____
ROOT
ATOM      2  O   UNL     1      13.810  10.455  17.794  0.00  0.00    -0.369 OA
ATOM      3  O   UNL     1      13.833   8.389  15.514  0.00  0.00    -0.368 OA
ATOM     11  C   UNL     1      13.165   9.660  15.653  0.00  0.00    +0.171 C 
ATOM     12  C   UNL     1      12.745   9.780  17.105  0.00  0.00    +0.191 C 
ATOM     13  C   UNL     1      14.153  10.784  15.466  0.00  0.00    +0.133 C 
ATOM     14  C   UNL     1      12.626   8.338  17.532  0.00  0.00    +0.235 C 
ATOM     15  C   UNL     1      14.780  10.914  16.840  0.00  0.00    +0.183 C 
ATOM     16  C   UNL     1      13.749   7.684  16.761  0.00  0.00    +0.207 C 
ENDROOT
BRANCH  13   9
ATOM      9  N   UNL     1      13.437  12.036  15.121  0.00  0.00    -0.186 NA
ATOM     32  H   UNL     1      12.503  12.169  15.526  0.00  0.00    +0.148 HD
BRANCH   9   1
ATOM      1  S   UNL     1      13.831  12.836  13.670  0.00  0.00    +0.034 S 
ATOM      5  O   UNL     1      13.805  11.900  12.563  0.00  0.00    -0.158 OA
ATOM      6  O   UNL     1      14.996  13.666  13.912  0.00  0.00    -0.158 OA
BRANCH   1  17
ATOM     17  C   UNL     1      12.432  13.920  13.503  0.00  0.00    +0.220 C 
BRANCH  17  19
ATOM     19  C   UNL     1      11.546  13.360  12.432  0.00  0.00    -0.025 A 
ATOM     20  C   UNL     1      11.629  13.855  11.131  0.00  0.00    +0.005 A 
ATOM     21  C   UNL     1      10.640  12.345  12.736  0.00  0.00    +0.005 A 
ATOM     23  C   UNL     1      10.804  13.335  10.133  0.00  0.00    +0.000 A 
ATOM     24  C   UNL     1       9.816  11.824  11.738  0.00  0.00    +0.000 A 
ATOM     25  C   UNL     1       9.898  12.319  10.436  0.00  0.00    +0.000 A 
ENDBRANCH  17  19
ENDBRANCH   1  17
ENDBRANCH   9   1
ENDBRANCH  13   9
BRANCH  14   4
ATOM      4  O   UNL     1      12.759   8.151  18.924  0.00  0.00    -0.442 OA
BRANCH   4  18
ATOM      7  O   UNL     1      10.614   8.521  19.626  0.00  0.00    -0.226 OA
ATOM     10  N   UNL     1      12.436   9.612  20.612  0.00  0.00    -0.251 N 
ATOM     18  C   UNL     1      11.812   8.753  19.727  0.00  0.00    +0.405 C 
ATOM     33  H   UNL     1      13.449   9.670  20.543  0.00  0.00    +0.158 HD
BRANCH  10  22
ATOM     22  C   UNL     1      11.840  10.423  21.604  0.00  0.00    +0.037 A 
ATOM     26  C   UNL     1      11.660  11.787  21.374  0.00  0.00    +0.027 A 
ATOM     27  C   UNL     1      11.431   9.860  22.813  0.00  0.00    +0.027 A 
ATOM     28  C   UNL     1      11.072  12.588  22.353  0.00  0.00    +0.047 A 
ATOM     29  C   UNL     1      10.844  10.660  23.792  0.00  0.00    +0.047 A 
ATOM     30  C   UNL     1      10.664  12.025  23.562  0.00  0.00    +0.120 A 
BRANCH  30   8
ATOM      8  O   UNL     1      10.092  12.806  24.517  0.00  0.00    -0.495 OA
ATOM     31  C   UNL     1      10.111  14.216  24.300  0.00  0.00    +0.277 C 
ENDBRANCH  30   8
ENDBRANCH  10  22
ENDBRANCH   4  18
ENDBRANCH  14   4
TORSDOF 8
ENDMDL
MODEL 7
REMARK VINA RESULT:      -6.6     27.298     30.991
REMARK  Name = 11884078
REMARK  9 active torsions:
REMARK  status: ('A' for Active; 'I' for Inactive)
REMARK    1  A    between atoms: S_1  and  N_9
REMARK    2  A    between atoms: S_1  and  C_17
REMARK    3  A    between atoms: O_4  and  C_14
REMARK    4  A    between atoms: O_4  and  C_18
REMARK    5  A    between atoms: O_8  and  C_30
REMARK    6  A    between atoms: O_8  and  C_31
REMARK    7  A    between atoms: N_9  and  C_13
REMARK    8  A    between atoms: N_10  and  C_22
REMARK    9  A    between atoms: C_17  and  C_19
REMARK                            x       y       z     vdW  Elec       q    Type
REMARK                         _______ _______ _______ _____ _____    ______ ____
ROOT
ATOM      2  O   UNL     1     -11.173  -8.603  14.704  0.00  0.00    -0.369 OA
ATOM      3  O   UNL     1     -10.609  -7.410  17.484  0.00  0.00    -0.368 OA
ATOM     11  C   UNL     1     -10.382  -6.898  16.154  0.00  0.00    +0.171 C 
ATOM     12  C   UNL     1      -9.972  -8.077  15.293  0.00  0.00    +0.191 C 
ATOM     13  C   UNL     1     -11.686  -6.442  15.549  0.00  0.00    +0.133 C 
ATOM     14  C   UNL     1      -9.378  -9.030  16.302  0.00  0.00    +0.235 C 
ATOM     15  C   UNL     1     -12.272  -7.729  15.002  0.00  0.00    +0.183 C 
ATOM     16  C   UNL     1     -10.257  -8.801  17.510  0.00  0.00    +0.207 C 
ENDROOT
BRANCH  13   9
ATOM      9  N   UNL     1     -11.425  -5.497  14.437  0.00  0.00    -0.186 NA
ATOM     32  H   UNL     1     -10.705  -4.780  14.590  0.00  0.00    +0.148 HD
BRANCH   9   1
ATOM      1  S   UNL     1     -12.660  -5.199  13.303  0.00  0.00    +0.034 S 
ATOM      5  O   UNL     1     -13.936  -5.074  13.979  0.00  0.00    -0.158 OA
ATOM      6  O   UNL     1     -12.494  -6.125  12.199  0.00  0.00    -0.158 OA
BRANCH   1  17
ATOM     17  C   UNL     1     -12.189  -3.587  12.720  0.00  0.00    +0.220 C 
BRANCH  17  19
ATOM     19  C   UNL     1     -12.682  -3.449  11.312  0.00  0.00    -0.025 A 
ATOM     20  C   UNL     1     -11.792  -3.580  10.246  0.00  0.00    +0.005 A 
ATOM     21  C   UNL     1     -14.031  -3.191  11.067  0.00  0.00    +0.005 A 
ATOM     23  C   UNL     1     -12.251  -3.451   8.934  0.00  0.00    +0.000 A 
ATOM     24  C   UNL     1     -14.490  -3.063   9.756  0.00  0.00    +0.000 A 
ATOM     25  C   UNL     1     -13.599  -3.193   8.690  0.00  0.00    +0.000 A 
ENDBRANCH  17  19
ENDBRANCH   1  17
ENDBRANCH   9   1
ENDBRANCH  13   9
BRANCH  14   4
ATOM      4  O   UNL     1      -9.394 -10.376  15.882  0.00  0.00    -0.442 OA
BRANCH   4  18
ATOM      7  O   UNL     1      -8.139 -11.793  14.598  0.00  0.00    -0.226 OA
ATOM     10  N   UNL     1      -7.149 -10.281  16.086  0.00  0.00    -0.251 N 
ATOM     18  C   UNL     1      -8.199 -10.905  15.439  0.00  0.00    +0.405 C 
ATOM     33  H   UNL     1      -7.401  -9.560  16.759  0.00  0.00    +0.158 HD
BRANCH  10  22
ATOM     22  C   UNL     1      -5.765 -10.520  15.930  0.00  0.00    +0.037 A 
ATOM     26  C   UNL     1      -5.184 -10.447  14.664  0.00  0.00    +0.027 A 
ATOM     27  C   UNL     1      -4.980 -10.830  17.040  0.00  0.00    +0.027 A 
ATOM     28  C   UNL     1      -3.818 -10.684  14.509  0.00  0.00    +0.047 A 
ATOM     29  C   UNL     1      -3.615 -11.066  16.886  0.00  0.00    +0.047 A 
ATOM     30  C   UNL     1      -3.033 -10.993  15.620  0.00  0.00    +0.120 A 
BRANCH  30   8
ATOM      8  O   UNL     1      -1.701 -11.225  15.468  0.00  0.00    -0.495 OA
ATOM     31  C   UNL     1      -0.817 -10.141  15.754  0.00  0.00    +0.277 C 
ENDBRANCH  30   8
ENDBRANCH  10  22
ENDBRANCH   4  18
ENDBRANCH  14   4
TORSDOF 8
ENDMDL
MODEL 8
REMARK VINA RESULT:      -6.6      6.911     10.925
REMARK  Name = 11884078
REMARK  9 active torsions:
REMARK  status: ('A' for Active; 'I' for Inactive)
REMARK    1  A    between atoms: S_1  and  N_9
REMARK    2  A    between atoms: S_1  and  C_17
REMARK    3  A    between atoms: O_4  and  C_14
REMARK    4  A    between atoms: O_4  and  C_18
REMARK    5  A    between atoms: O_8  and  C_30
REMARK    6  A    between atoms: O_8  and  C_31
REMARK    7  A    between atoms: N_9  and  C_13
REMARK    8  A    between atoms: N_10  and  C_22
REMARK    9  A    between atoms: C_17  and  C_19
REMARK                            x       y       z     vdW  Elec       q    Type
REMARK                         _______ _______ _______ _____ _____    ______ ____
ROOT
ATOM      2  O   UNL     1      13.749  10.177  18.275  0.00  0.00    -0.369 OA
ATOM      3  O   UNL     1      13.993   7.963  16.152  0.00  0.00    -0.368 OA
ATOM     11  C   UNL     1      13.292   9.224  16.150  0.00  0.00    +0.171 C 
ATOM     12  C   UNL     1      12.755   9.431  17.553  0.00  0.00    +0.191 C 
ATOM     13  C   UNL     1      14.270  10.356  15.963  0.00  0.00    +0.133 C 
ATOM     14  C   UNL     1      12.630   8.018  18.069  0.00  0.00    +0.235 C 
ATOM     15  C   UNL     1      14.783  10.594  17.370  0.00  0.00    +0.183 C 
ATOM     16  C   UNL     1      13.824   7.341  17.434  0.00  0.00    +0.207 C 
ENDROOT
BRANCH  13   9
ATOM      9  N   UNL     1      13.560  11.564  15.477  0.00  0.00    -0.186 NA
ATOM     32  H   UNL     1      12.593  11.700  15.796  0.00  0.00    +0.148 HD
BRANCH   9   1
ATOM      1  S   UNL     1      14.056  12.276  14.012  0.00  0.00    +0.034 S 
ATOM      5  O   UNL     1      14.383  13.673  14.225  0.00  0.00    -0.158 OA
ATOM      6  O   UNL     1      13.118  11.884  12.977  0.00  0.00    -0.158 OA
BRANCH   1  17
ATOM     17  C   UNL     1      15.572  11.398  13.716  0.00  0.00    +0.220 C 
BRANCH  17  19
ATOM     19  C   UNL     1      16.422  12.244  12.818  0.00  0.00    -0.025 A 
ATOM     20  C   UNL     1      17.516  12.934  13.342  0.00  0.00    +0.005 A 
ATOM     21  C   UNL     1      16.120  12.343  11.460  0.00  0.00    +0.005 A 
ATOM     23  C   UNL     1      18.308  13.723  12.506  0.00  0.00    +0.000 A 
ATOM     24  C   UNL     1      16.912  13.131  10.625  0.00  0.00    +0.000 A 
ATOM     25  C   UNL     1      18.006  13.822  11.149  0.00  0.00    +0.000 A 
ENDBRANCH  17  19
ENDBRANCH   1  17
ENDBRANCH   9   1
ENDBRANCH  13   9
BRANCH  14   4
ATOM      4  O   UNL     1      12.655   7.929  19.476  0.00  0.00    -0.442 OA
BRANCH   4  18
ATOM      7  O   UNL     1      10.513   8.476  20.063  0.00  0.00    -0.226 OA
ATOM     10  N   UNL     1      12.359   9.618  20.941  0.00  0.00    -0.251 N 
ATOM     18  C   UNL     1      11.718   8.671  20.164  0.00  0.00    +0.405 C 
ATOM     33  H   UNL     1      13.375   9.626  20.892  0.00  0.00    +0.158 HD
BRANCH  10  22
ATOM     22  C   UNL     1      11.776  10.579  21.798  0.00  0.00    +0.037 A 
ATOM     26  C   UNL     1      11.337  10.206  23.068  0.00  0.00    +0.027 A 
ATOM     27  C   UNL     1      11.640  11.901  21.374  0.00  0.00    +0.027 A 
ATOM     28  C   UNL     1      10.761  11.154  23.914  0.00  0.00    +0.047 A 
ATOM     29  C   UNL     1      11.065  12.849  22.220  0.00  0.00    +0.047 A 
ATOM     30  C   UNL     1      10.625  12.475  23.490  0.00  0.00    +0.120 A 
BRANCH  30   8
ATOM      8  O   UNL     1      10.063  13.400  24.315  0.00  0.00    -0.495 OA
ATOM     31  C   UNL     1      10.609  13.516  25.628  0.00  0.00    +0.277 C 
ENDBRANCH  30   8
ENDBRANCH  10  22
ENDBRANCH   4  18
ENDBRANCH  14   4
TORSDOF 8
ENDMDL
MODEL 9
REMARK VINA RESULT:      -6.5      5.204      7.643
REMARK  Name = 11884078
REMARK  9 active torsions:
REMARK  status: ('A' for Active; 'I' for Inactive)
REMARK    1  A    between atoms: S_1  and  N_9
REMARK    2  A    between atoms: S_1  and  C_17
REMARK    3  A    between atoms: O_4  and  C_14
REMARK    4  A    between atoms: O_4  and  C_18
REMARK    5  A    between atoms: O_8  and  C_30
REMARK    6  A    between atoms: O_8  and  C_31
REMARK    7  A    between atoms: N_9  and  C_13
REMARK    8  A    between atoms: N_10  and  C_22
REMARK    9  A    between atoms: C_17  and  C_19
REMARK                            x       y       z     vdW  Elec       q    Type
REMARK                         _______ _______ _______ _____ _____    ______ ____
ROOT
ATOM      2  O   UNL     1      14.005  10.448  18.069  0.00  0.00    -0.369 OA
ATOM      3  O   UNL     1      13.158   8.084  16.291  0.00  0.00    -0.368 OA
ATOM     11  C   UNL     1      12.784   9.478  16.280  0.00  0.00    +0.171 C 
ATOM     12  C   UNL     1      12.711   9.925  17.727  0.00  0.00    +0.191 C 
ATOM     13  C   UNL     1      13.902  10.306  15.699  0.00  0.00    +0.133 C 
ATOM     14  C   UNL     1      12.418   8.636  18.454  0.00  0.00    +0.235 C 
ATOM     15  C   UNL     1      14.819  10.516  16.888  0.00  0.00    +0.183 C 
ATOM     16  C   UNL     1      13.210   7.630  17.650  0.00  0.00    +0.207 C 
ENDROOT
BRANCH  13   9
ATOM      9  N   UNL     1      13.376  11.612  15.234  0.00  0.00    -0.186 NA
ATOM     32  H   UNL     1      12.409  11.847  15.491  0.00  0.00    +0.148 HD
BRANCH   9   1
ATOM      1  S   UNL     1      14.062  12.331  13.851  0.00  0.00    +0.034 S 
ATOM      5  O   UNL     1      13.074  13.149  13.175  0.00  0.00    -0.158 OA
ATOM      6  O   UNL     1      14.801  11.312  13.129  0.00  0.00    -0.158 OA
BRANCH   1  17
ATOM     17  C   UNL     1      15.252  13.418  14.601  0.00  0.00    +0.220 C 
BRANCH  17  19
ATOM     19  C   UNL     1      16.612  12.991  14.143  0.00  0.00    -0.025 A 
ATOM     20  C   UNL     1      17.371  12.122  14.927  0.00  0.00    +0.005 A 
ATOM     21  C   UNL     1      17.120  13.462  12.932  0.00  0.00    +0.005 A 
ATOM     23  C   UNL     1      18.639  11.725  14.501  0.00  0.00    +0.000 A 
ATOM     24  C   UNL     1      18.388  13.064  12.506  0.00  0.00    +0.000 A 
ATOM     25  C   UNL     1      19.147  12.195  13.291  0.00  0.00    +0.000 A 
ENDBRANCH  17  19
ENDBRANCH   1  17
ENDBRANCH   9   1
ENDBRANCH  13   9
BRANCH  14   4
ATOM      4  O   UNL     1      12.805   8.654  19.810  0.00  0.00    -0.442 OA
BRANCH   4  18
ATOM      7  O   UNL     1      13.484   6.675  20.734  0.00  0.00    -0.226 OA
ATOM     10  N   UNL     1      15.018   8.226  19.885  0.00  0.00    -0.251 N 
ATOM     18  C   UNL     1      13.763   7.741  20.198  0.00  0.00    +0.405 C 
ATOM     33  H   UNL     1      15.048   9.140  19.438  0.00  0.00    +0.158 HD
BRANCH  10  22
ATOM     22  C   UNL     1      16.270   7.611  20.110  0.00  0.00    +0.037 A 
ATOM     26  C   UNL     1      17.125   8.107  21.095  0.00  0.00    +0.027 A 
ATOM     27  C   UNL     1      16.653   6.508  19.346  0.00  0.00    +0.027 A 
ATOM     28  C   UNL     1      18.361   7.500  21.316  0.00  0.00    +0.047 A 
ATOM     29  C   UNL     1      17.889   5.901  19.567  0.00  0.00    +0.047 A 
ATOM     30  C   UNL     1      18.743   6.397  20.552  0.00  0.00    +0.120 A 
BRANCH  30   8
ATOM      8  O   UNL     1      19.949   5.806  20.768  0.00  0.00    -0.495 OA
ATOM     31  C   UNL     1      21.108   6.627  20.636  0.00  0.00    +0.277 C 
ENDBRANCH  30   8
ENDBRANCH  10  22
ENDBRANCH   4  18
ENDBRANCH  14   4
TORSDOF 8
ENDMDL
MODEL 10
REMARK VINA RESULT:      -6.5     27.026     29.762
REMARK  Name = 11884078
REMARK  9 active torsions:
REMARK  status: ('A' for Active; 'I' for Inactive)
REMARK    1  A    between atoms: S_1  and  N_9
REMARK    2  A    between atoms: S_1  and  C_17
REMARK    3  A    between atoms: O_4  and  C_14
REMARK    4  A    between atoms: O_4  and  C_18
REMARK    5  A    between atoms: O_8  and  C_30
REMARK    6  A    between atoms: O_8  and  C_31
REMARK    7  A    between atoms: N_9  and  C_13
REMARK    8  A    between atoms: N_10  and  C_22
REMARK    9  A    between atoms: C_17  and  C_19
REMARK                            x       y       z     vdW  Elec       q    Type
REMARK                         _______ _______ _______ _____ _____    ______ ____
ROOT
ATOM      2  O   UNL     1      -3.957 -11.936  14.554  0.00  0.00    -0.369 OA
ATOM      3  O   UNL     1      -1.775 -10.912  16.467  0.00  0.00    -0.368 OA
ATOM     11  C   UNL     1      -3.122 -10.459  16.214  0.00  0.00    +0.171 C 
ATOM     12  C   UNL     1      -3.373 -10.635  14.729  0.00  0.00    +0.191 C 
ATOM     13  C   UNL     1      -4.110 -11.396  16.863  0.00  0.00    +0.133 C 
ATOM     14  C   UNL     1      -1.982 -10.562  14.150  0.00  0.00    +0.235 C 
ATOM     15  C   UNL     1      -4.244 -12.506  15.840  0.00  0.00    +0.183 C 
ATOM     16  C   UNL     1      -1.157 -11.247  15.216  0.00  0.00    +0.207 C 
ENDROOT
BRANCH  13   9
ATOM      9  N   UNL     1      -5.415 -10.714  17.037  0.00  0.00    -0.186 NA
ATOM     32  H   UNL     1      -5.475  -9.732  16.739  0.00  0.00    +0.148 HD
BRANCH   9   1
ATOM      1  S   UNL     1      -6.488 -11.283  18.231  0.00  0.00    +0.034 S 
ATOM      5  O   UNL     1      -6.823 -10.211  19.149  0.00  0.00    -0.158 OA
ATOM      6  O   UNL     1      -5.988 -12.552  18.723  0.00  0.00    -0.158 OA
BRANCH   1  17
ATOM     17  C   UNL     1      -7.926 -11.626  17.243  0.00  0.00    +0.220 C 
BRANCH  17  19
ATOM     19  C   UNL     1      -8.825 -10.430  17.314  0.00  0.00    -0.025 A 
ATOM     20  C   UNL     1      -8.553  -9.306  16.533  0.00  0.00    +0.005 A 
ATOM     21  C   UNL     1      -9.933 -10.439  18.161  0.00  0.00    +0.005 A 
ATOM     23  C   UNL     1      -9.390  -8.191  16.600  0.00  0.00    +0.000 A 
ATOM     24  C   UNL     1     -10.770  -9.325  18.226  0.00  0.00    +0.000 A 
ATOM     25  C   UNL     1     -10.497  -8.201  17.446  0.00  0.00    +0.000 A 
ENDBRANCH  17  19
ENDBRANCH   1  17
ENDBRANCH   9   1
ENDBRANCH  13   9
BRANCH  14   4
ATOM      4  O   UNL     1      -1.860 -11.197  12.896  0.00  0.00    -0.442 OA
BRANCH   4  18
ATOM      7  O   UNL     1      -1.605  -9.573  11.306  0.00  0.00    -0.226 OA
ATOM     10  N   UNL     1      -3.498 -10.949  11.365  0.00  0.00    -0.251 N 
ATOM     18  C   UNL     1      -2.270 -10.479  11.792  0.00  0.00    +0.405 C 
ATOM     33  H   UNL     1      -3.896 -11.716  11.902  0.00  0.00    +0.158 HD
BRANCH  10  22
ATOM     22  C   UNL     1      -4.271 -10.496  10.272  0.00  0.00    +0.037 A 
ATOM     26  C   UNL     1      -4.905  -9.255  10.333  0.00  0.00    +0.027 A 
ATOM     27  C   UNL     1      -4.401 -11.290   9.133  0.00  0.00    +0.027 A 
ATOM     28  C   UNL     1      -5.669  -8.808   9.255  0.00  0.00    +0.047 A 
ATOM     29  C   UNL     1      -5.165 -10.843   8.055  0.00  0.00    +0.047 A 
ATOM     30  C   UNL     1      -5.799  -9.602   8.116  0.00  0.00    +0.120 A 
BRANCH  30   8
ATOM      8  O   UNL     1      -6.545  -9.166   7.065  0.00  0.00    -0.495 OA
ATOM     31  C   UNL     1      -6.318  -9.793   5.803  0.00  0.00    +0.277 C 
ENDBRANCH  30   8
ENDBRANCH  10  22
ENDBRANCH   4  18
ENDBRANCH  14   4
TORSDOF 8
ENDMDL
