MODEL 1
REMARK VINA RESULT:      -8.0      0.000      0.000
REMARK  Name = 26744780
REMARK  7 active torsions:
REMARK  status: ('A' for Active; 'I' for Inactive)
REMARK    1  A    between atoms: O_6  and  C_26
REMARK    2  A    between atoms: N_7  and  C_17
REMARK    3  A    between atoms: C_12  and  C_18
REMARK    4  A    between atoms: C_17  and  C_19
REMARK    5  A    between atoms: C_22  and  C_25
REMARK    6  A    between atoms: C_23  and  C_26
REMARK    7  A    between atoms: C_31  and  C_32
REMARK                            x       y       z     vdW  Elec       q    Type
REMARK                         _______ _______ _______ _____ _____    ______ ____
ROOT
ATOM      7  N   UNL     1      12.650   8.171  18.629  0.00  0.00    -0.278 NA
ATOM      8  N   UNL     1      10.673   6.614  21.373  0.00  0.00    -0.347 N 
ATOM      9  N   UNL     1      10.675   8.671  22.250  0.00  0.00    -0.240 NA
ATOM     12  C   UNL     1      13.226   9.276  19.454  0.00  0.00    +0.152 C 
ATOM     13  C   UNL     1      12.220   9.762  20.558  0.00  0.00    +0.086 C 
ATOM     14  C   UNL     1      12.241   6.966  19.380  0.00  0.00    +0.140 C 
ATOM     15  C   UNL     1      11.475   7.374  20.577  0.00  0.00    +0.053 A 
ATOM     16  C   UNL     1      11.464   8.627  21.137  0.00  0.00    +0.065 A 
ATOM     20  C   UNL     1      10.213   7.441  22.368  0.00  0.00    +0.197 A 
ATOM     33  H   UNL     1      10.458   5.632  21.261  0.00  0.00    +0.167 HD
ENDROOT
BRANCH  12  18
ATOM      4  O   UNL     1      15.171   9.997  20.772  0.00  0.00    -0.336 OA
ATOM     10  N   UNL     1      15.419   7.988  19.814  0.00  0.00    -0.190 NA
ATOM     11  N   UNL     1      16.445   9.544  21.140  0.00  0.00    -0.056 NA
ATOM     18  C   UNL     1      14.636   9.021  19.993  0.00  0.00    +0.245 A 
ATOM     22  C   UNL     1      16.517   8.353  20.537  0.00  0.00    +0.202 A 
BRANCH  22  25
ATOM     25  C   UNL     1      17.671   7.506  20.636  0.00  0.00    +0.022 A 
ATOM     27  C   UNL     1      18.727   7.863  21.474  0.00  0.00    +0.012 A 
ATOM     28  C   UNL     1      17.735   6.327  19.895  0.00  0.00    +0.012 A 
ATOM     29  C   UNL     1      19.849   7.040  21.570  0.00  0.00    +0.013 A 
ATOM     30  C   UNL     1      18.857   5.504  19.991  0.00  0.00    +0.013 A 
ATOM     31  C   UNL     1      19.914   5.860  20.829  0.00  0.00    +0.055 A 
BRANCH  31  32
ATOM      1  F   UNL     1      21.648   4.929  22.189  0.00  0.00    -0.166 F 
ATOM      2  F   UNL     1      22.132   5.383  20.119  0.00  0.00    -0.166 F 
ATOM      3  F   UNL     1      20.869   3.680  20.597  0.00  0.00    -0.166 F 
ATOM     32  C   UNL     1      21.114   4.980  20.933  0.00  0.00    +0.417 C 
ENDBRANCH  31  32
ENDBRANCH  22  25
ENDBRANCH  12  18
BRANCH   7  17
ATOM     17  C   UNL     1      13.446   7.826  17.456  0.00  0.00    +0.160 C 
BRANCH  17  19
ATOM      5  O   UNL     1      14.680   9.398  16.068  0.00  0.00    -0.461 OA
ATOM     19  C   UNL     1      13.458   8.936  16.439  0.00  0.00    +0.119 A 
ATOM     21  C   UNL     1      12.463   9.615  15.775  0.00  0.00    +0.046 A 
ATOM     23  C   UNL     1      14.463  10.383  15.157  0.00  0.00    +0.131 A 
ATOM     24  C   UNL     1      13.116  10.555  14.942  0.00  0.00    +0.047 A 
BRANCH  23  26
ATOM     26  C   UNL     1      15.661  11.036  14.608  0.00  0.00    +0.230 C 
BRANCH  26   6
ATOM      6  O   UNL     1      15.796  10.732  13.218  0.00  0.00    -0.387 OA
ATOM     34  H   UNL     1      15.461  11.501  12.726  0.00  0.00    +0.210 HD
ENDBRANCH  26   6
ENDBRANCH  23  26
ENDBRANCH  17  19
ENDBRANCH   7  17
TORSDOF 7
ENDMDL
MODEL 2
REMARK VINA RESULT:      -7.9      2.464      4.971
REMARK  Name = 26744780
REMARK  7 active torsions:
REMARK  status: ('A' for Active; 'I' for Inactive)
REMARK    1  A    between atoms: O_6  and  C_26
REMARK    2  A    between atoms: N_7  and  C_17
REMARK    3  A    between atoms: C_12  and  C_18
REMARK    4  A    between atoms: C_17  and  C_19
REMARK    5  A    between atoms: C_22  and  C_25
REMARK    6  A    between atoms: C_23  and  C_26
REMARK    7  A    between atoms: C_31  and  C_32
REMARK                            x       y       z     vdW  Elec       q    Type
REMARK                         _______ _______ _______ _____ _____    ______ ____
ROOT
ATOM      7  N   UNL     1      13.504  10.124  19.629  0.00  0.00    -0.278 NA
ATOM      8  N   UNL     1      12.051   9.797  16.217  0.00  0.00    -0.347 N 
ATOM      9  N   UNL     1      10.956   8.051  17.085  0.00  0.00    -0.240 NA
ATOM     12  C   UNL     1      13.358   8.684  20.003  0.00  0.00    +0.152 C 
ATOM     13  C   UNL     1      12.075   8.045  19.363  0.00  0.00    +0.086 C 
ATOM     14  C   UNL     1      13.583  10.397  18.178  0.00  0.00    +0.140 C 
ATOM     15  C   UNL     1      12.529   9.629  17.480  0.00  0.00    +0.053 A 
ATOM     16  C   UNL     1      11.847   8.552  17.989  0.00  0.00    +0.065 A 
ATOM     20  C   UNL     1      11.104   8.821  16.024  0.00  0.00    +0.197 A 
ATOM     33  H   UNL     1      12.338  10.496  15.544  0.00  0.00    +0.167 HD
ENDROOT
BRANCH  12  18
ATOM      4  O   UNL     1      14.624   6.992  18.749  0.00  0.00    -0.336 OA
ATOM     10  N   UNL     1      15.702   7.784  20.545  0.00  0.00    -0.190 NA
ATOM     11  N   UNL     1      15.857   6.327  18.788  0.00  0.00    -0.056 NA
ATOM     18  C   UNL     1      14.615   7.830  19.817  0.00  0.00    +0.245 A 
ATOM     22  C   UNL     1      16.435   6.848  19.875  0.00  0.00    +0.202 A 
BRANCH  22  25
ATOM     25  C   UNL     1      17.741   6.455  20.317  0.00  0.00    +0.022 A 
ATOM     27  C   UNL     1      18.312   7.065  21.433  0.00  0.00    +0.012 A 
ATOM     28  C   UNL     1      18.441   5.463  19.630  0.00  0.00    +0.012 A 
ATOM     29  C   UNL     1      19.583   6.684  21.863  0.00  0.00    +0.013 A 
ATOM     30  C   UNL     1      19.712   5.082  20.060  0.00  0.00    +0.013 A 
ATOM     31  C   UNL     1      20.283   5.692  21.177  0.00  0.00    +0.055 A 
BRANCH  31  32
ATOM      1  F   UNL     1      21.625   4.346  22.628  0.00  0.00    -0.166 F 
ATOM      2  F   UNL     1      22.363   6.330  22.136  0.00  0.00    -0.166 F 
ATOM      3  F   UNL     1      22.415   4.745  20.649  0.00  0.00    -0.166 F 
ATOM     32  C   UNL     1      21.642   5.285  21.636  0.00  0.00    +0.417 C 
ENDBRANCH  31  32
ENDBRANCH  22  25
ENDBRANCH  12  18
BRANCH   7  17
ATOM     17  C   UNL     1      14.551  10.827  20.363  0.00  0.00    +0.160 C 
BRANCH  17  19
ATOM      5  O   UNL     1      12.843  11.046  22.082  0.00  0.00    -0.461 OA
ATOM     19  C   UNL     1      14.172  11.054  21.802  0.00  0.00    +0.119 A 
ATOM     21  C   UNL     1      14.905  11.280  22.944  0.00  0.00    +0.046 A 
ATOM     23  C   UNL     1      12.725  11.267  23.417  0.00  0.00    +0.131 A 
ATOM     24  C   UNL     1      13.965  11.417  23.994  0.00  0.00    +0.047 A 
BRANCH  23  26
ATOM     26  C   UNL     1      11.357  11.299  23.953  0.00  0.00    +0.230 C 
BRANCH  26   6
ATOM      6  O   UNL     1      11.328  10.742  25.269  0.00  0.00    -0.387 OA
ATOM     34  H   UNL     1      12.243  10.748  25.599  0.00  0.00    +0.210 HD
ENDBRANCH  26   6
ENDBRANCH  23  26
ENDBRANCH  17  19
ENDBRANCH   7  17
TORSDOF 7
ENDMDL
MODEL 3
REMARK VINA RESULT:      -7.1     27.560     29.619
REMARK  Name = 26744780
REMARK  7 active torsions:
REMARK  status: ('A' for Active; 'I' for Inactive)
REMARK    1  A    between atoms: O_6  and  C_26
REMARK    2  A    between atoms: N_7  and  C_17
REMARK    3  A    between atoms: C_12  and  C_18
REMARK    4  A    between atoms: C_17  and  C_19
REMARK    5  A    between atoms: C_22  and  C_25
REMARK    6  A    between atoms: C_23  and  C_26
REMARK    7  A    between atoms: C_31  and  C_32
REMARK                            x       y       z     vdW  Elec       q    Type
REMARK                         _______ _______ _______ _____ _____    ______ ____
ROOT
ATOM      7  N   UNL     1      -2.884 -12.155  15.049  0.00  0.00    -0.278 NA
ATOM      8  N   UNL     1      -4.142 -15.538  14.135  0.00  0.00    -0.347 N 
ATOM      9  N   UNL     1      -2.071 -15.862  13.358  0.00  0.00    -0.240 NA
ATOM     12  C   UNL     1      -1.821 -12.091  14.001  0.00  0.00    +0.152 C 
ATOM     13  C   UNL     1      -1.199 -13.505  13.718  0.00  0.00    +0.086 C 
ATOM     14  C   UNL     1      -4.017 -13.056  14.749  0.00  0.00    +0.140 C 
ATOM     15  C   UNL     1      -3.495 -14.346  14.249  0.00  0.00    +0.053 A 
ATOM     16  C   UNL     1      -2.231 -14.568  13.763  0.00  0.00    +0.065 A 
ATOM     20  C   UNL     1      -3.241 -16.422  13.593  0.00  0.00    +0.197 A 
ATOM     33  H   UNL     1      -5.100 -15.739  14.393  0.00  0.00    +0.167 HD
ENDROOT
BRANCH  12  18
ATOM      4  O   UNL     1      -1.555 -10.164  12.499  0.00  0.00    -0.336 OA
ATOM     10  N   UNL     1      -3.079 -11.652  11.805  0.00  0.00    -0.190 NA
ATOM     11  N   UNL     1      -2.067  -9.665  11.294  0.00  0.00    -0.056 NA
ATOM     18  C   UNL     1      -2.204 -11.336  12.726  0.00  0.00    +0.245 A 
ATOM     22  C   UNL     1      -2.959 -10.598  10.947  0.00  0.00    +0.202 A 
BRANCH  22  25
ATOM     25  C   UNL     1      -3.745 -10.506   9.751  0.00  0.00    +0.022 A 
ATOM     27  C   UNL     1      -4.165  -9.260   9.286  0.00  0.00    +0.012 A 
ATOM     28  C   UNL     1      -4.089 -11.663   9.052  0.00  0.00    +0.012 A 
ATOM     29  C   UNL     1      -4.930  -9.171   8.124  0.00  0.00    +0.013 A 
ATOM     30  C   UNL     1      -4.855 -11.574   7.890  0.00  0.00    +0.013 A 
ATOM     31  C   UNL     1      -5.275 -10.328   7.425  0.00  0.00    +0.055 A 
BRANCH  31  32
ATOM      1  F   UNL     1      -6.329  -8.947   5.780  0.00  0.00    -0.166 F 
ATOM      2  F   UNL     1      -7.324 -10.804   6.318  0.00  0.00    -0.166 F 
ATOM      3  F   UNL     1      -5.522 -10.843   5.102  0.00  0.00    -0.166 F 
ATOM     32  C   UNL     1      -6.093 -10.232   6.182  0.00  0.00    +0.417 C 
ENDBRANCH  31  32
ENDBRANCH  22  25
ENDBRANCH  12  18
BRANCH   7  17
ATOM     17  C   UNL     1      -3.347 -10.849  15.508  0.00  0.00    +0.160 C 
BRANCH  17  19
ATOM      5  O   UNL     1      -5.346 -10.458  16.839  0.00  0.00    -0.461 OA
ATOM     19  C   UNL     1      -4.078 -10.943  16.821  0.00  0.00    +0.119 A 
ATOM     21  C   UNL     1      -3.730 -11.431  18.060  0.00  0.00    +0.046 A 
ATOM     23  C   UNL     1      -5.814 -10.638  18.102  0.00  0.00    +0.131 A 
ATOM     24  C   UNL     1      -4.858 -11.233  18.891  0.00  0.00    +0.047 A 
BRANCH  23  26
ATOM     26  C   UNL     1      -7.188 -10.182  18.358  0.00  0.00    +0.230 C 
BRANCH  26   6
ATOM      6  O   UNL     1      -7.495 -10.295  19.749  0.00  0.00    -0.387 OA
ATOM     34  H   UNL     1      -8.340 -10.772  19.815  0.00  0.00    +0.210 HD
ENDBRANCH  26   6
ENDBRANCH  23  26
ENDBRANCH  17  19
ENDBRANCH   7  17
TORSDOF 7
ENDMDL
MODEL 4
REMARK VINA RESULT:      -7.0     14.356     17.833
REMARK  Name = 26744780
REMARK  7 active torsions:
REMARK  status: ('A' for Active; 'I' for Inactive)
REMARK    1  A    between atoms: O_6  and  C_26
REMARK    2  A    between atoms: N_7  and  C_17
REMARK    3  A    between atoms: C_12  and  C_18
REMARK    4  A    between atoms: C_17  and  C_19
REMARK    5  A    between atoms: C_22  and  C_25
REMARK    6  A    between atoms: C_23  and  C_26
REMARK    7  A    between atoms: C_31  and  C_32
REMARK                            x       y       z     vdW  Elec       q    Type
REMARK                         _______ _______ _______ _____ _____    ______ ____
ROOT
ATOM      7  N   UNL     1      12.225   7.600   6.000  0.00  0.00    -0.278 NA
ATOM      8  N   UNL     1      15.300   9.595   6.650  0.00  0.00    -0.347 N 
ATOM      9  N   UNL     1      14.400  11.050   5.210  0.00  0.00    -0.240 NA
ATOM     12  C   UNL     1      11.965   8.147   4.634  0.00  0.00    +0.152 C 
ATOM     13  C   UNL     1      12.397   9.653   4.520  0.00  0.00    +0.086 C 
ATOM     14  C   UNL     1      13.630   7.664   6.453  0.00  0.00    +0.140 C 
ATOM     15  C   UNL     1      14.176   9.006   6.156  0.00  0.00    +0.053 A 
ATOM     16  C   UNL     1      13.646   9.914   5.274  0.00  0.00    +0.065 A 
ATOM     20  C   UNL     1      15.393  10.827   6.050  0.00  0.00    +0.197 A 
ATOM     33  H   UNL     1      15.947   9.205   7.323  0.00  0.00    +0.167 HD
ENDROOT
BRANCH  12  18
ATOM      4  O   UNL     1      13.814   7.294   3.257  0.00  0.00    -0.336 OA
ATOM     10  N   UNL     1      11.800   6.524   2.650  0.00  0.00    -0.190 NA
ATOM     11  N   UNL     1      14.035   6.444   2.166  0.00  0.00    -0.056 NA
ATOM     18  C   UNL     1      12.473   7.284   3.477  0.00  0.00    +0.245 A 
ATOM     22  C   UNL     1      12.800   6.029   1.865  0.00  0.00    +0.202 A 
BRANCH  22  25
ATOM     25  C   UNL     1      12.533   5.122   0.787  0.00  0.00    +0.022 A 
ATOM     27  C   UNL     1      13.477   4.157   0.437  0.00  0.00    +0.012 A 
ATOM     28  C   UNL     1      11.328   5.204   0.089  0.00  0.00    +0.012 A 
ATOM     29  C   UNL     1      13.218   3.275  -0.612  0.00  0.00    +0.013 A 
ATOM     30  C   UNL     1      11.069   4.321  -0.960  0.00  0.00    +0.013 A 
ATOM     31  C   UNL     1      12.013   3.356  -1.310  0.00  0.00    +0.055 A 
BRANCH  31  32
ATOM      1  F   UNL     1      10.431   2.407  -2.831  0.00  0.00    -0.166 F 
ATOM      2  F   UNL     1      12.027   1.118  -2.112  0.00  0.00    -0.166 F 
ATOM      3  F   UNL     1      12.454   2.681  -3.562  0.00  0.00    -0.166 F 
ATOM     32  C   UNL     1      11.736   2.413  -2.431  0.00  0.00    +0.417 C 
ENDBRANCH  31  32
ENDBRANCH  22  25
ENDBRANCH  12  18
BRANCH   7  17
ATOM     17  C   UNL     1      11.649   6.279   6.232  0.00  0.00    +0.160 C 
BRANCH  17  19
ATOM      5  O   UNL     1      10.465   5.280   8.109  0.00  0.00    -0.461 OA
ATOM     19  C   UNL     1      10.533   6.323   7.242  0.00  0.00    +0.119 A 
ATOM     21  C   UNL     1       9.522   7.224   7.490  0.00  0.00    +0.046 A 
ATOM     23  C   UNL     1       9.401   5.517   8.920  0.00  0.00    +0.131 A 
ATOM     24  C   UNL     1       8.788   6.700   8.580  0.00  0.00    +0.047 A 
BRANCH  23  26
ATOM     26  C   UNL     1       9.132   4.505   9.953  0.00  0.00    +0.230 C 
BRANCH  26   6
ATOM      6  O   UNL     1      10.175   4.508  10.930  0.00  0.00    -0.387 OA
ATOM     34  H   UNL     1      10.529   5.413  10.964  0.00  0.00    +0.210 HD
ENDBRANCH  26   6
ENDBRANCH  23  26
ENDBRANCH  17  19
ENDBRANCH   7  17
TORSDOF 7
ENDMDL
MODEL 5
REMARK VINA RESULT:      -7.0      5.824     10.872
REMARK  Name = 26744780
REMARK  7 active torsions:
REMARK  status: ('A' for Active; 'I' for Inactive)
REMARK    1  A    between atoms: O_6  and  C_26
REMARK    2  A    between atoms: N_7  and  C_17
REMARK    3  A    between atoms: C_12  and  C_18
REMARK    4  A    between atoms: C_17  and  C_19
REMARK    5  A    between atoms: C_22  and  C_25
REMARK    6  A    between atoms: C_23  and  C_26
REMARK    7  A    between atoms: C_31  and  C_32
REMARK                            x       y       z     vdW  Elec       q    Type
REMARK                         _______ _______ _______ _____ _____    ______ ____
ROOT
ATOM      7  N   UNL     1      22.855   5.333  22.772  0.00  0.00    -0.278 NA
ATOM      8  N   UNL     1      23.721   1.739  22.331  0.00  0.00    -0.347 N 
ATOM      9  N   UNL     1      24.410   2.376  20.301  0.00  0.00    -0.240 NA
ATOM     12  C   UNL     1      22.656   5.629  21.320  0.00  0.00    +0.152 C 
ATOM     13  C   UNL     1      23.630   4.789  20.418  0.00  0.00    +0.086 C 
ATOM     14  C   UNL     1      22.669   3.920  23.162  0.00  0.00    +0.140 C 
ATOM     15  C   UNL     1      23.381   3.051  22.201  0.00  0.00    +0.053 A 
ATOM     16  C   UNL     1      23.809   3.417  20.949  0.00  0.00    +0.065 A 
ATOM     20  C   UNL     1      24.341   1.377  21.159  0.00  0.00    +0.197 A 
ATOM     33  H   UNL     1      23.550   1.141  23.129  0.00  0.00    +0.167 HD
ENDROOT
BRANCH  12  18
ATOM      4  O   UNL     1      20.777   4.422  20.294  0.00  0.00    -0.336 OA
ATOM     10  N   UNL     1      20.295   6.532  20.871  0.00  0.00    -0.190 NA
ATOM     11  N   UNL     1      19.439   4.629  19.934  0.00  0.00    -0.056 NA
ATOM     18  C   UNL     1      21.205   5.591  20.838  0.00  0.00    +0.245 A 
ATOM     22  C   UNL     1      19.229   5.895  20.306  0.00  0.00    +0.202 A 
BRANCH  22  25
ATOM     25  C   UNL     1      17.966   6.552  20.127  0.00  0.00    +0.022 A 
ATOM     27  C   UNL     1      17.690   7.732  20.817  0.00  0.00    +0.012 A 
ATOM     28  C   UNL     1      17.015   6.011  19.262  0.00  0.00    +0.012 A 
ATOM     29  C   UNL     1      16.462   8.370  20.644  0.00  0.00    +0.013 A 
ATOM     30  C   UNL     1      15.788   6.650  19.088  0.00  0.00    +0.013 A 
ATOM     31  C   UNL     1      15.511   7.830  19.779  0.00  0.00    +0.055 A 
BRANCH  31  32
ATOM      1  F   UNL     1      13.534   8.747  20.764  0.00  0.00    -0.166 F 
ATOM      2  F   UNL     1      13.336   7.793  18.820  0.00  0.00    -0.166 F 
ATOM      3  F   UNL     1      14.298   9.735  18.991  0.00  0.00    -0.166 F 
ATOM     32  C   UNL     1      14.198   8.513  19.594  0.00  0.00    +0.417 C 
ENDBRANCH  31  32
ENDBRANCH  22  25
ENDBRANCH  12  18
BRANCH   7  17
ATOM     17  C   UNL     1      22.137   6.234  23.667  0.00  0.00    +0.160 C 
BRANCH  17  19
ATOM      5  O   UNL     1      21.510   5.759  25.970  0.00  0.00    -0.461 OA
ATOM     19  C   UNL     1      22.525   6.022  25.106  0.00  0.00    +0.119 A 
ATOM     21  C   UNL     1      23.731   6.038  25.768  0.00  0.00    +0.046 A 
ATOM     23  C   UNL     1      22.074   5.604  27.197  0.00  0.00    +0.131 A 
ATOM     24  C   UNL     1      23.438   5.766  27.126  0.00  0.00    +0.047 A 
BRANCH  23  26
ATOM     26  C   UNL     1      21.153   5.308  28.303  0.00  0.00    +0.230 C 
BRANCH  26   6
ATOM      6  O   UNL     1      19.809   5.241  27.822  0.00  0.00    -0.387 OA
ATOM     34  H   UNL     1      19.231   5.503  28.559  0.00  0.00    +0.210 HD
ENDBRANCH  26   6
ENDBRANCH  23  26
ENDBRANCH  17  19
ENDBRANCH   7  17
TORSDOF 7
ENDMDL
MODEL 6
REMARK VINA RESULT:      -7.0     26.691     28.341
REMARK  Name = 26744780
REMARK  7 active torsions:
REMARK  status: ('A' for Active; 'I' for Inactive)
REMARK    1  A    between atoms: O_6  and  C_26
REMARK    2  A    between atoms: N_7  and  C_17
REMARK    3  A    between atoms: C_12  and  C_18
REMARK    4  A    between atoms: C_17  and  C_19
REMARK    5  A    between atoms: C_22  and  C_25
REMARK    6  A    between atoms: C_23  and  C_26
REMARK    7  A    between atoms: C_31  and  C_32
REMARK                            x       y       z     vdW  Elec       q    Type
REMARK                         _______ _______ _______ _____ _____    ______ ____
ROOT
ATOM      7  N   UNL     1     -11.897   8.596  20.171  0.00  0.00    -0.278 NA
ATOM      8  N   UNL     1     -13.038   5.323  21.528  0.00  0.00    -0.347 N 
ATOM      9  N   UNL     1     -15.083   6.211  21.362  0.00  0.00    -0.240 NA
ATOM     12  C   UNL     1     -13.058   9.392  20.674  0.00  0.00    +0.152 C 
ATOM     13  C   UNL     1     -14.384   8.550  20.668  0.00  0.00    +0.086 C 
ATOM     14  C   UNL     1     -11.606   7.355  20.919  0.00  0.00    +0.140 C 
ATOM     15  C   UNL     1     -12.867   6.620  21.153  0.00  0.00    +0.053 A 
ATOM     16  C   UNL     1     -14.133   7.144  21.062  0.00  0.00    +0.065 A 
ATOM     20  C   UNL     1     -14.393   5.123  21.641  0.00  0.00    +0.197 A 
ATOM     33  H   UNL     1     -12.314   4.637  21.698  0.00  0.00    +0.167 HD
ENDROOT
BRANCH  12  18
ATOM      4  O   UNL     1     -12.624  11.475  21.904  0.00  0.00    -0.336 OA
ATOM     10  N   UNL     1     -12.774   9.662  23.212  0.00  0.00    -0.190 NA
ATOM     11  N   UNL     1     -12.431  11.924  23.217  0.00  0.00    -0.056 NA
ATOM     18  C   UNL     1     -12.820  10.133  21.991  0.00  0.00    +0.245 A 
ATOM     22  C   UNL     1     -12.534  10.798  23.930  0.00  0.00    +0.202 A 
BRANCH  22  25
ATOM     25  C   UNL     1     -12.402  10.774  25.358  0.00  0.00    +0.022 A 
ATOM     27  C   UNL     1     -13.531  10.913  26.164  0.00  0.00    +0.012 A 
ATOM     28  C   UNL     1     -11.145  10.611  25.939  0.00  0.00    +0.012 A 
ATOM     29  C   UNL     1     -13.403  10.891  27.553  0.00  0.00    +0.013 A 
ATOM     30  C   UNL     1     -11.017  10.588  27.328  0.00  0.00    +0.013 A 
ATOM     31  C   UNL     1     -12.146  10.727  28.135  0.00  0.00    +0.055 A 
BRANCH  31  32
ATOM      1  F   UNL     1     -13.206  10.708  30.279  0.00  0.00    -0.166 F 
ATOM      2  F   UNL     1     -11.323  11.779  30.102  0.00  0.00    -0.166 F 
ATOM      3  F   UNL     1     -11.348   9.605  30.091  0.00  0.00    -0.166 F 
ATOM     32  C   UNL     1     -12.010  10.703  29.620  0.00  0.00    +0.417 C 
ENDBRANCH  31  32
ENDBRANCH  22  25
ENDBRANCH  12  18
BRANCH   7  17
ATOM     17  C   UNL     1     -10.687   9.382  19.949  0.00  0.00    +0.160 C 
BRANCH  17  19
ATOM      5  O   UNL     1     -10.747   8.776  17.593  0.00  0.00    -0.461 OA
ATOM     19  C   UNL     1     -10.522   9.760  18.501  0.00  0.00    +0.119 A 
ATOM     21  C   UNL     1     -10.177  10.932  17.867  0.00  0.00    +0.046 A 
ATOM     23  C   UNL     1     -10.545   9.324  16.366  0.00  0.00    +0.131 A 
ATOM     24  C   UNL     1     -10.192  10.649  16.481  0.00  0.00    +0.047 A 
BRANCH  23  26
ATOM     26  C   UNL     1     -10.736   8.430  15.215  0.00  0.00    +0.230 C 
BRANCH  26   6
ATOM      6  O   UNL     1     -10.105   7.171  15.457  0.00  0.00    -0.387 OA
ATOM     34  H   UNL     1      -9.848   6.811  14.591  0.00  0.00    +0.210 HD
ENDBRANCH  26   6
ENDBRANCH  23  26
ENDBRANCH  17  19
ENDBRANCH   7  17
TORSDOF 7
ENDMDL
MODEL 7
REMARK VINA RESULT:      -7.0     13.094     14.996
REMARK  Name = 26744780
REMARK  7 active torsions:
REMARK  status: ('A' for Active; 'I' for Inactive)
REMARK    1  A    between atoms: O_6  and  C_26
REMARK    2  A    between atoms: N_7  and  C_17
REMARK    3  A    between atoms: C_12  and  C_18
REMARK    4  A    between atoms: C_17  and  C_19
REMARK    5  A    between atoms: C_22  and  C_25
REMARK    6  A    between atoms: C_23  and  C_26
REMARK    7  A    between atoms: C_31  and  C_32
REMARK                            x       y       z     vdW  Elec       q    Type
REMARK                         _______ _______ _______ _____ _____    ______ ____
ROOT
ATOM      7  N   UNL     1       9.388   6.327   4.736  0.00  0.00    -0.278 NA
ATOM      8  N   UNL     1      10.125   3.894   7.456  0.00  0.00    -0.347 N 
ATOM      9  N   UNL     1       9.350   5.498   8.807  0.00  0.00    -0.240 NA
ATOM     12  C   UNL     1       9.528   7.555   5.578  0.00  0.00    +0.152 C 
ATOM     13  C   UNL     1       9.047   7.306   7.052  0.00  0.00    +0.086 C 
ATOM     14  C   UNL     1      10.124   5.140   5.219  0.00  0.00    +0.140 C 
ATOM     15  C   UNL     1       9.895   4.983   6.672  0.00  0.00    +0.053 A 
ATOM     16  C   UNL     1       9.426   5.953   7.522  0.00  0.00    +0.065 A 
ATOM     20  C   UNL     1       9.781   4.253   8.736  0.00  0.00    +0.197 A 
ATOM     33  H   UNL     1      10.484   2.995   7.161  0.00  0.00    +0.167 HD
ENDROOT
BRANCH  12  18
ATOM      4  O   UNL     1      10.871   9.605   5.399  0.00  0.00    -0.336 OA
ATOM     10  N   UNL     1      12.090   7.729   5.507  0.00  0.00    -0.190 NA
ATOM     11  N   UNL     1      12.212  10.007   5.340  0.00  0.00    -0.056 NA
ATOM     18  C   UNL     1      10.889   8.250   5.497  0.00  0.00    +0.245 A 
ATOM     22  C   UNL     1      12.869   8.845   5.409  0.00  0.00    +0.202 A 
BRANCH  22  25
ATOM     25  C   UNL     1      14.301   8.765   5.383  0.00  0.00    +0.022 A 
ATOM     27  C   UNL     1      15.059   9.569   6.233  0.00  0.00    +0.012 A 
ATOM     28  C   UNL     1      14.934   7.883   4.508  0.00  0.00    +0.012 A 
ATOM     29  C   UNL     1      16.451   9.492   6.208  0.00  0.00    +0.013 A 
ATOM     30  C   UNL     1      16.326   7.806   4.483  0.00  0.00    +0.013 A 
ATOM     31  C   UNL     1      17.086   8.610   5.332  0.00  0.00    +0.055 A 
BRANCH  31  32
ATOM      1  F   UNL     1      19.053   7.549   4.482  0.00  0.00    -0.166 F 
ATOM      2  F   UNL     1      19.108   8.266   6.534  0.00  0.00    -0.166 F 
ATOM      3  F   UNL     1      19.178   9.677   4.881  0.00  0.00    -0.166 F 
ATOM     32  C   UNL     1      18.574   8.528   5.306  0.00  0.00    +0.417 C 
ENDBRANCH  31  32
ENDBRANCH  22  25
ENDBRANCH  12  18
BRANCH   7  17
ATOM     17  C   UNL     1       9.613   6.552   3.312  0.00  0.00    +0.160 C 
BRANCH  17  19
ATOM      5  O   UNL     1      11.883   6.142   2.538  0.00  0.00    -0.461 OA
ATOM     19  C   UNL     1      10.650   5.615   2.753  0.00  0.00    +0.119 A 
ATOM     21  C   UNL     1      10.624   4.287   2.395  0.00  0.00    +0.046 A 
ATOM     23  C   UNL     1      12.653   5.140   2.039  0.00  0.00    +0.131 A 
ATOM     24  C   UNL     1      11.925   3.978   1.932  0.00  0.00    +0.047 A 
BRANCH  23  26
ATOM     26  C   UNL     1      14.048   5.484   1.727  0.00  0.00    +0.230 C 
BRANCH  26   6
ATOM      6  O   UNL     1      14.933   4.832   2.640  0.00  0.00    -0.387 OA
ATOM     34  H   UNL     1      14.821   5.267   3.503  0.00  0.00    +0.210 HD
ENDBRANCH  26   6
ENDBRANCH  23  26
ENDBRANCH  17  19
ENDBRANCH   7  17
TORSDOF 7
ENDMDL
MODEL 8
REMARK VINA RESULT:      -6.9     30.359     32.855
REMARK  Name = 26744780
REMARK  7 active torsions:
REMARK  status: ('A' for Active; 'I' for Inactive)
REMARK    1  A    between atoms: O_6  and  C_26
REMARK    2  A    between atoms: N_7  and  C_17
REMARK    3  A    between atoms: C_12  and  C_18
REMARK    4  A    between atoms: C_17  and  C_19
REMARK    5  A    between atoms: C_22  and  C_25
REMARK    6  A    between atoms: C_23  and  C_26
REMARK    7  A    between atoms: C_31  and  C_32
REMARK                            x       y       z     vdW  Elec       q    Type
REMARK                         _______ _______ _______ _____ _____    ______ ____
ROOT
ATOM      7  N   UNL     1     -13.342   8.524  33.787  0.00  0.00    -0.278 NA
ATOM      8  N   UNL     1     -11.498   9.464  30.692  0.00  0.00    -0.347 N 
ATOM      9  N   UNL     1     -13.440  10.382  30.072  0.00  0.00    -0.240 NA
ATOM     12  C   UNL     1     -14.699   8.495  33.162  0.00  0.00    +0.152 C 
ATOM     13  C   UNL     1     -14.840   9.574  32.029  0.00  0.00    +0.086 C 
ATOM     14  C   UNL     1     -12.212   8.304  32.860  0.00  0.00    +0.140 C 
ATOM     15  C   UNL     1     -12.407   9.131  31.649  0.00  0.00    +0.053 A 
ATOM     16  C   UNL     1     -13.589   9.700  31.245  0.00  0.00    +0.065 A 
ATOM     20  C   UNL     1     -12.169  10.220  29.761  0.00  0.00    +0.197 A 
ATOM     33  H   UNL     1     -10.521   9.204  30.663  0.00  0.00    +0.167 HD
ENDROOT
BRANCH  12  18
ATOM      4  O   UNL     1     -16.529   6.882  32.860  0.00  0.00    -0.336 OA
ATOM     10  N   UNL     1     -14.516   6.092  32.273  0.00  0.00    -0.190 NA
ATOM     11  N   UNL     1     -16.739   5.568  32.420  0.00  0.00    -0.056 NA
ATOM     18  C   UNL     1     -15.195   7.110  32.740  0.00  0.00    +0.245 A 
ATOM     22  C   UNL     1     -15.506   5.170  32.091  0.00  0.00    +0.202 A 
BRANCH  22  25
ATOM     25  C   UNL     1     -15.230   3.859  31.579  0.00  0.00    +0.022 A 
ATOM     27  C   UNL     1     -15.195   2.766  32.444  0.00  0.00    +0.012 A 
ATOM     28  C   UNL     1     -14.996   3.678  30.216  0.00  0.00    +0.012 A 
ATOM     29  C   UNL     1     -14.926   1.491  31.947  0.00  0.00    +0.013 A 
ATOM     30  C   UNL     1     -14.727   2.403  29.719  0.00  0.00    +0.013 A 
ATOM     31  C   UNL     1     -14.692   1.309  30.583  0.00  0.00    +0.055 A 
BRANCH  31  32
ATOM      1  F   UNL     1     -15.128  -1.041  30.658  0.00  0.00    -0.166 F 
ATOM      2  F   UNL     1     -13.097  -0.412  30.205  0.00  0.00    -0.166 F 
ATOM      3  F   UNL     1     -14.667  -0.188  28.719  0.00  0.00    -0.166 F 
ATOM     32  C   UNL     1     -14.404  -0.054  30.052  0.00  0.00    +0.417 C 
ENDBRANCH  31  32
ENDBRANCH  22  25
ENDBRANCH  12  18
BRANCH   7  17
ATOM     17  C   UNL     1     -13.219   7.698  34.984  0.00  0.00    +0.160 C 
BRANCH  17  19
ATOM      5  O   UNL     1     -11.739   7.323  36.878  0.00  0.00    -0.461 OA
ATOM     19  C   UNL     1     -12.100   8.165  35.876  0.00  0.00    +0.119 A 
ATOM     21  C   UNL     1     -11.330   9.305  35.901  0.00  0.00    +0.046 A 
ATOM     23  C   UNL     1     -10.727   7.931  37.551  0.00  0.00    +0.131 A 
ATOM     24  C   UNL     1     -10.438   9.153  36.990  0.00  0.00    +0.047 A 
BRANCH  23  26
ATOM     26  C   UNL     1     -10.170   7.192  38.694  0.00  0.00    +0.230 C 
BRANCH  26   6
ATOM      6  O   UNL     1     -10.653   5.847  38.695  0.00  0.00    -0.387 OA
ATOM     34  H   UNL     1     -11.381   5.808  39.338  0.00  0.00    +0.210 HD
ENDBRANCH  26   6
ENDBRANCH  23  26
ENDBRANCH  17  19
ENDBRANCH   7  17
TORSDOF 7
ENDMDL
MODEL 9
REMARK VINA RESULT:      -6.9     27.149     29.594
REMARK  Name = 26744780
REMARK  7 active torsions:
REMARK  status: ('A' for Active; 'I' for Inactive)
REMARK    1  A    between atoms: O_6  and  C_26
REMARK    2  A    between atoms: N_7  and  C_17
REMARK    3  A    between atoms: C_12  and  C_18
REMARK    4  A    between atoms: C_17  and  C_19
REMARK    5  A    between atoms: C_22  and  C_25
REMARK    6  A    between atoms: C_23  and  C_26
REMARK    7  A    between atoms: C_31  and  C_32
REMARK                            x       y       z     vdW  Elec       q    Type
REMARK                         _______ _______ _______ _____ _____    ______ ____
ROOT
ATOM      7  N   UNL     1      -2.040 -12.756  12.775  0.00  0.00    -0.278 NA
ATOM      8  N   UNL     1      -4.133 -11.578   9.930  0.00  0.00    -0.347 N 
ATOM      9  N   UNL     1      -3.088  -9.627  10.249  0.00  0.00    -0.240 NA
ATOM     12  C   UNL     1      -1.870 -11.415  13.413  0.00  0.00    +0.152 C 
ATOM     13  C   UNL     1      -1.805 -10.266  12.344  0.00  0.00    +0.086 C 
ATOM     14  C   UNL     1      -3.243 -12.906  11.928  0.00  0.00    +0.140 C 
ATOM     15  C   UNL     1      -3.369 -11.726  11.047  0.00  0.00    +0.053 A 
ATOM     16  C   UNL     1      -2.743 -10.518  11.225  0.00  0.00    +0.065 A 
ATOM     20  C   UNL     1      -3.930 -10.295   9.484  0.00  0.00    +0.197 A 
ATOM     33  H   UNL     1      -4.738 -12.271   9.508  0.00  0.00    +0.167 HD
ENDROOT
BRANCH  12  18
ATOM      4  O   UNL     1      -2.309 -11.164  15.818  0.00  0.00    -0.336 OA
ATOM     10  N   UNL     1      -4.103 -10.808  14.526  0.00  0.00    -0.190 NA
ATOM     11  N   UNL     1      -3.362 -10.856  16.690  0.00  0.00    -0.056 NA
ATOM     18  C   UNL     1      -2.831 -11.113  14.565  0.00  0.00    +0.245 A 
ATOM     22  C   UNL     1      -4.385 -10.659  15.853  0.00  0.00    +0.202 A 
BRANCH  22  25
ATOM     25  C   UNL     1      -5.700 -10.313  16.310  0.00  0.00    +0.022 A 
ATOM     27  C   UNL     1      -6.686  -9.955  15.391  0.00  0.00    +0.012 A 
ATOM     28  C   UNL     1      -5.992 -10.336  17.674  0.00  0.00    +0.012 A 
ATOM     29  C   UNL     1      -7.964  -9.618  15.836  0.00  0.00    +0.013 A 
ATOM     30  C   UNL     1      -7.271  -9.998  18.118  0.00  0.00    +0.013 A 
ATOM     31  C   UNL     1      -8.257  -9.640  17.199  0.00  0.00    +0.055 A 
BRANCH  31  32
ATOM      1  F   UNL     1      -9.932  -9.798  18.899  0.00  0.00    -0.166 F 
ATOM      2  F   UNL     1     -10.605  -9.721  16.834  0.00  0.00    -0.166 F 
ATOM      3  F   UNL     1      -9.824  -7.934  17.796  0.00  0.00    -0.166 F 
ATOM     32  C   UNL     1      -9.624  -9.280  17.674  0.00  0.00    +0.417 C 
ENDBRANCH  31  32
ENDBRANCH  22  25
ENDBRANCH  12  18
BRANCH   7  17
ATOM     17  C   UNL     1      -1.891 -13.878  13.696  0.00  0.00    +0.160 C 
BRANCH  17  19
ATOM      5  O   UNL     1      -0.944 -15.579  12.236  0.00  0.00    -0.461 OA
ATOM     19  C   UNL     1      -2.009 -15.202  12.990  0.00  0.00    +0.119 A 
ATOM     21  C   UNL     1      -3.000 -16.155  12.936  0.00  0.00    +0.046 A 
ATOM     23  C   UNL     1      -1.257 -16.786  11.696  0.00  0.00    +0.131 A 
ATOM     24  C   UNL     1      -2.512 -17.184  12.096  0.00  0.00    +0.047 A 
BRANCH  23  26
ATOM     26  C   UNL     1      -0.237 -17.396  10.831  0.00  0.00    +0.230 C 
BRANCH  26   6
ATOM      6  O   UNL     1       0.448 -16.386  10.087  0.00  0.00    -0.387 OA
ATOM     34  H   UNL     1       1.314 -16.754   9.840  0.00  0.00    +0.210 HD
ENDBRANCH  26   6
ENDBRANCH  23  26
ENDBRANCH  17  19
ENDBRANCH   7  17
TORSDOF 7
ENDMDL
MODEL 10
REMARK VINA RESULT:      -6.8     24.880     28.107
REMARK  Name = 26744780
REMARK  7 active torsions:
REMARK  status: ('A' for Active; 'I' for Inactive)
REMARK    1  A    between atoms: O_6  and  C_26
REMARK    2  A    between atoms: N_7  and  C_17
REMARK    3  A    between atoms: C_12  and  C_18
REMARK    4  A    between atoms: C_17  and  C_19
REMARK    5  A    between atoms: C_22  and  C_25
REMARK    6  A    between atoms: C_23  and  C_26
REMARK    7  A    between atoms: C_31  and  C_32
REMARK                            x       y       z     vdW  Elec       q    Type
REMARK                         _______ _______ _______ _____ _____    ______ ____
ROOT
ATOM      7  N   UNL     1      -1.492   8.670  37.928  0.00  0.00    -0.278 NA
ATOM      8  N   UNL     1       0.658  11.199  36.242  0.00  0.00    -0.347 N 
ATOM      9  N   UNL     1      -0.197  12.614  37.748  0.00  0.00    -0.240 NA
ATOM     12  C   UNL     1      -2.515   9.638  38.428  0.00  0.00    +0.152 C 
ATOM     13  C   UNL     1      -1.873  11.023  38.798  0.00  0.00    +0.086 C 
ATOM     14  C   UNL     1      -0.733   9.108  36.738  0.00  0.00    +0.140 C 
ATOM     15  C   UNL     1      -0.292  10.506  36.929  0.00  0.00    +0.053 A 
ATOM     16  C   UNL     1      -0.804  11.395  37.841  0.00  0.00    +0.065 A 
ATOM     20  C   UNL     1       0.679  12.466  36.773  0.00  0.00    +0.197 A 
ATOM     33  H   UNL     1       1.235  10.856  35.485  0.00  0.00    +0.167 HD
ENDROOT
BRANCH  12  18
ATOM      4  O   UNL     1      -3.620  10.398  36.368  0.00  0.00    -0.336 OA
ATOM     10  N   UNL     1      -4.990   9.357  37.802  0.00  0.00    -0.190 NA
ATOM     11  N   UNL     1      -4.885  10.394  35.766  0.00  0.00    -0.056 NA
ATOM     18  C   UNL     1      -3.770   9.768  37.563  0.00  0.00    +0.245 A 
ATOM     22  C   UNL     1      -5.638   9.764  36.672  0.00  0.00    +0.202 A 
BRANCH  22  25
ATOM     25  C   UNL     1      -7.039   9.524  36.479  0.00  0.00    +0.022 A 
ATOM     27  C   UNL     1      -7.752   8.769  37.409  0.00  0.00    +0.012 A 
ATOM     28  C   UNL     1      -7.687  10.046  35.360  0.00  0.00    +0.012 A 
ATOM     29  C   UNL     1      -9.114   8.535  37.221  0.00  0.00    +0.013 A 
ATOM     30  C   UNL     1      -9.049   9.812  35.172  0.00  0.00    +0.013 A 
ATOM     31  C   UNL     1      -9.763   9.057  36.102  0.00  0.00    +0.055 A 
BRANCH  31  32
ATOM      1  F   UNL     1     -12.022   9.714  36.533  0.00  0.00    -0.166 F 
ATOM      2  F   UNL     1     -11.612   7.586  36.368  0.00  0.00    -0.166 F 
ATOM      3  F   UNL     1     -11.605   8.841  34.592  0.00  0.00    -0.166 F 
ATOM     32  C   UNL     1     -11.220   8.807  35.902  0.00  0.00    +0.417 C 
ENDBRANCH  31  32
ENDBRANCH  22  25
ENDBRANCH  12  18
BRANCH   7  17
ATOM     17  C   UNL     1      -1.988   7.306  37.774  0.00  0.00    +0.160 C 
BRANCH  17  19
ATOM      5  O   UNL     1      -0.181   6.223  38.992  0.00  0.00    -0.461 OA
ATOM     19  C   UNL     1      -1.522   6.411  38.892  0.00  0.00    +0.119 A 
ATOM     21  C   UNL     1      -2.183   5.710  39.874  0.00  0.00    +0.046 A 
ATOM     23  C   UNL     1       0.018   5.394  40.050  0.00  0.00    +0.131 A 
ATOM     24  C   UNL     1      -1.183   5.050  40.627  0.00  0.00    +0.047 A 
BRANCH  23  26
ATOM     26  C   UNL     1       1.414   5.048  40.353  0.00  0.00    +0.230 C 
BRANCH  26   6
ATOM      6  O   UNL     1       2.090   4.636  39.163  0.00  0.00    -0.387 OA
ATOM     34  H   UNL     1       2.798   5.283  39.001  0.00  0.00    +0.210 HD
ENDBRANCH  26   6
ENDBRANCH  23  26
ENDBRANCH  17  19
ENDBRANCH   7  17
TORSDOF 7
ENDMDL
