MODEL 1
REMARK VINA RESULT:      -6.8      0.000      0.000
REMARK  Name = 71693200
REMARK  17 active torsions:
REMARK  status: ('A' for Active; 'I' for Inactive)
REMARK    1  A    between atoms: O_2  and  C_31
REMARK    2  A    between atoms: O_3  and  C_32
REMARK    3  A    between atoms: O_3  and  C_34
REMARK    4  A    between atoms: N_5  and  C_15
REMARK    5  A    between atoms: C_8  and  C_12
REMARK    6  A    between atoms: C_9  and  C_15
REMARK    7  A    between atoms: C_11  and  C_16
REMARK    8  A    between atoms: C_12  and  C_17
REMARK    9  A    between atoms: C_12  and  C_18
REMARK   10  A    between atoms: C_13  and  C_19
REMARK   11  A    between atoms: C_16  and  C_20
REMARK   12  A    between atoms: C_21  and  C_23
REMARK   13  A    between atoms: C_22  and  C_23
REMARK   14  A    between atoms: C_22  and  C_26
REMARK   15  A    between atoms: C_22  and  C_27
REMARK   16  A    between atoms: C_22  and  C_28
REMARK   17  A    between atoms: C_26  and  C_31
REMARK                            x       y       z     vdW  Elec       q    Type
REMARK                         _______ _______ _______ _____ _____    ______ ____
ROOT
ATOM      8  C   UNL     1     -12.222  -9.644  18.310  0.00  0.00    +0.000 C 
ATOM      9  C   UNL     1     -10.934 -10.500  18.220  0.00  0.00    +0.032 C 
ATOM     10  C   UNL     1     -12.769  -9.350  16.905  0.00  0.00    +0.012 C 
ATOM     11  C   UNL     1     -11.747  -8.604  16.027  0.00  0.00    +0.022 C 
ATOM     13  C   UNL     1     -10.372  -9.239  16.098  0.00  0.00    -0.073 C 
ATOM     14  C   UNL     1     -10.032 -10.094  17.079  0.00  0.00    -0.022 C 
ATOM     19  C   UNL     1      -9.412  -8.902  14.992  0.00  0.00    +0.039 C 
ENDROOT
BRANCH   8  12
ATOM     12  C   UNL     1     -13.302 -10.329  19.153  0.00  0.00    -0.013 C 
ATOM     17  C   UNL     1     -13.517  -9.569  20.460  0.00  0.00    +0.007 C 
ATOM     18  C   UNL     1     -14.604 -10.434  18.368  0.00  0.00    +0.007 C 
ENDBRANCH   8  12
BRANCH   9  15
ATOM     15  C   UNL     1     -10.146 -10.454  19.535  0.00  0.00    +0.112 C 
BRANCH  15   5
ATOM      1  O   UNL     1      -7.948 -12.211  20.140  0.00  0.00    -0.276 OA
ATOM      5  N   UNL     1      -8.759 -10.209  19.287  0.00  0.00    -0.315 N 
ATOM     21  C   UNL     1      -7.755 -11.117  19.613  0.00  0.00    +0.214 C 
ATOM     35  H   UNL     1      -8.506  -9.330  18.846  0.00  0.00    +0.149 HD
BRANCH  21  23
ATOM     23  C   UNL     1      -6.359 -10.638  19.248  0.00  0.00    +0.102 C 
BRANCH  23  22
ATOM     22  C   UNL     1      -5.922 -10.953  17.796  0.00  0.00    -0.017 C 
ATOM     27  C   UNL     1      -6.107  -9.672  16.955  0.00  0.00    +0.012 C 
ATOM     28  C   UNL     1      -6.828 -12.041  17.184  0.00  0.00    +0.012 C 
BRANCH  22  26
ATOM     26  C   UNL     1      -4.457 -11.444  17.702  0.00  0.00    +0.127 C 
BRANCH  26  31
ATOM      4  O   UNL     1      -3.502 -12.051  19.843  0.00  0.00    -0.251 OA
ATOM     31  C   UNL     1      -4.035 -12.399  18.797  0.00  0.00    +0.305 C 
BRANCH  31   2
ATOM      2  O   UNL     1      -4.299 -13.696  18.496  0.00  0.00    -0.481 OA
ATOM     37  H   UNL     1      -3.478 -14.223  18.396  0.00  0.00    +0.295 HD
ENDBRANCH  31   2
ENDBRANCH  26  31
ENDBRANCH  22  26
ENDBRANCH  23  22
ENDBRANCH  21  23
ENDBRANCH  15   5
ENDBRANCH   9  15
BRANCH  11  16
ATOM     16  C   UNL     1     -11.684  -7.117  16.393  0.00  0.00    +0.082 C 
BRANCH  16  20
ATOM      6  N   UNL     1     -13.566  -6.218  15.011  0.00  0.00    -0.342 N 
ATOM      7  N   UNL     1     -11.537  -5.475  14.489  0.00  0.00    -0.232 NA
ATOM     20  C   UNL     1     -12.227  -6.256  15.289  0.00  0.00    +0.109 A 
ATOM     24  C   UNL     1     -13.751  -5.353  13.963  0.00  0.00    +0.070 A 
ATOM     25  C   UNL     1     -12.470  -4.903  13.656  0.00  0.00    +0.089 A 
ATOM     29  C   UNL     1     -14.894  -4.939  13.279  0.00  0.00    +0.073 A 
ATOM     30  C   UNL     1     -12.301  -3.986  12.605  0.00  0.00    +0.033 A 
ATOM     32  C   UNL     1     -14.708  -4.025  12.237  0.00  0.00    +0.122 A 
ATOM     33  C   UNL     1     -13.435  -3.555  11.904  0.00  0.00    +0.048 A 
ATOM     36  H   UNL     1     -14.292  -6.735  15.490  0.00  0.00    +0.167 HD
BRANCH  32   3
ATOM      3  O   UNL     1     -15.790  -3.586  11.532  0.00  0.00    -0.495 OA
ATOM     34  C   UNL     1     -15.529  -2.854  10.337  0.00  0.00    +0.277 C 
ENDBRANCH  32   3
ENDBRANCH  16  20
ENDBRANCH  11  16
TORSDOF 11
ENDMDL
MODEL 2
REMARK VINA RESULT:      -6.7     26.999     29.366
REMARK  Name = 71693200
REMARK  17 active torsions:
REMARK  status: ('A' for Active; 'I' for Inactive)
REMARK    1  A    between atoms: O_2  and  C_31
REMARK    2  A    between atoms: O_3  and  C_32
REMARK    3  A    between atoms: O_3  and  C_34
REMARK    4  A    between atoms: N_5  and  C_15
REMARK    5  A    between atoms: C_8  and  C_12
REMARK    6  A    between atoms: C_9  and  C_15
REMARK    7  A    between atoms: C_11  and  C_16
REMARK    8  A    between atoms: C_12  and  C_17
REMARK    9  A    between atoms: C_12  and  C_18
REMARK   10  A    between atoms: C_13  and  C_19
REMARK   11  A    between atoms: C_16  and  C_20
REMARK   12  A    between atoms: C_21  and  C_23
REMARK   13  A    between atoms: C_22  and  C_23
REMARK   14  A    between atoms: C_22  and  C_26
REMARK   15  A    between atoms: C_22  and  C_27
REMARK   16  A    between atoms: C_22  and  C_28
REMARK   17  A    between atoms: C_26  and  C_31
REMARK                            x       y       z     vdW  Elec       q    Type
REMARK                         _______ _______ _______ _____ _____    ______ ____
ROOT
ATOM      8  C   UNL     1       9.860   6.166   7.202  0.00  0.00    +0.000 C 
ATOM      9  C   UNL     1       9.163   5.711   5.896  0.00  0.00    +0.032 C 
ATOM     10  C   UNL     1       9.019   7.236   7.915  0.00  0.00    +0.012 C 
ATOM     11  C   UNL     1       8.784   8.475   7.030  0.00  0.00    +0.022 C 
ATOM     13  C   UNL     1       8.348   8.093   5.630  0.00  0.00    -0.073 C 
ATOM     14  C   UNL     1       8.514   6.850   5.145  0.00  0.00    -0.022 C 
ATOM     19  C   UNL     1       7.676   9.163   4.814  0.00  0.00    +0.039 C 
ENDROOT
BRANCH   8  12
ATOM     12  C   UNL     1      10.112   4.989   8.150  0.00  0.00    -0.013 C 
ATOM     17  C   UNL     1       9.473   5.256   9.510  0.00  0.00    +0.007 C 
ATOM     18  C   UNL     1       9.579   3.694   7.547  0.00  0.00    +0.007 C 
ENDBRANCH   8  12
BRANCH   9  15
ATOM     15  C   UNL     1      10.144   4.983   4.969  0.00  0.00    +0.112 C 
BRANCH  15   5
ATOM      1  O   UNL     1      11.171   6.301   2.626  0.00  0.00    -0.276 OA
ATOM      5  N   UNL     1      11.372   5.707   4.861  0.00  0.00    -0.315 N 
ATOM     21  C   UNL     1      11.796   6.317   3.684  0.00  0.00    +0.214 C 
ATOM     35  H   UNL     1      11.953   5.778   5.692  0.00  0.00    +0.149 HD
BRANCH  21  23
ATOM     23  C   UNL     1      13.132   7.032   3.815  0.00  0.00    +0.102 C 
BRANCH  23  22
ATOM     22  C   UNL     1      13.056   8.439   4.460  0.00  0.00    -0.017 C 
ATOM     27  C   UNL     1      11.721   9.086   4.031  0.00  0.00    +0.012 C 
ATOM     28  C   UNL     1      14.193   9.337   3.931  0.00  0.00    +0.012 C 
BRANCH  22  26
ATOM     26  C   UNL     1      13.157   8.399   6.003  0.00  0.00    +0.127 C 
BRANCH  26  31
ATOM      4  O   UNL     1      15.336   7.505   6.566  0.00  0.00    -0.251 OA
ATOM     31  C   UNL     1      14.119   7.368   6.551  0.00  0.00    +0.305 C 
BRANCH  31   2
ATOM      2  O   UNL     1      13.494   6.260   7.021  0.00  0.00    -0.481 OA
ATOM     37  H   UNL     1      14.116   5.511   7.139  0.00  0.00    +0.295 HD
ENDBRANCH  31   2
ENDBRANCH  26  31
ENDBRANCH  22  26
ENDBRANCH  23  22
ENDBRANCH  21  23
ENDBRANCH  15   5
ENDBRANCH   9  15
BRANCH  11  16
ATOM     16  C   UNL     1      10.026   9.371   6.994  0.00  0.00    +0.082 C 
BRANCH  16  20
ATOM      6  N   UNL     1       9.057  10.520   8.994  0.00  0.00    -0.342 N 
ATOM      7  N   UNL     1      11.265  10.652   8.774  0.00  0.00    -0.232 NA
ATOM     20  C   UNL     1      10.154  10.183   8.250  0.00  0.00    +0.109 A 
ATOM     24  C   UNL     1       9.489  11.253  10.069  0.00  0.00    +0.070 A 
ATOM     25  C   UNL     1      10.870  11.323   9.908  0.00  0.00    +0.089 A 
ATOM     29  C   UNL     1       8.811  11.845  11.136  0.00  0.00    +0.073 A 
ATOM     30  C   UNL     1      11.635  12.020  10.858  0.00  0.00    +0.033 A 
ATOM     32  C   UNL     1       9.588  12.534  12.072  0.00  0.00    +0.122 A 
ATOM     33  C   UNL     1      10.977  12.621  11.937  0.00  0.00    +0.048 A 
ATOM     36  H   UNL     1       8.098  10.274   8.790  0.00  0.00    +0.167 HD
BRANCH  32   3
ATOM      3  O   UNL     1       8.979  13.133  13.134  0.00  0.00    -0.495 OA
ATOM     34  C   UNL     1       9.433  14.437  13.490  0.00  0.00    +0.277 C 
ENDBRANCH  32   3
ENDBRANCH  16  20
ENDBRANCH  11  16
TORSDOF 11
ENDMDL
MODEL 3
REMARK VINA RESULT:      -6.5      5.906      8.576
REMARK  Name = 71693200
REMARK  17 active torsions:
REMARK  status: ('A' for Active; 'I' for Inactive)
REMARK    1  A    between atoms: O_2  and  C_31
REMARK    2  A    between atoms: O_3  and  C_32
REMARK    3  A    between atoms: O_3  and  C_34
REMARK    4  A    between atoms: N_5  and  C_15
REMARK    5  A    between atoms: C_8  and  C_12
REMARK    6  A    between atoms: C_9  and  C_15
REMARK    7  A    between atoms: C_11  and  C_16
REMARK    8  A    between atoms: C_12  and  C_17
REMARK    9  A    between atoms: C_12  and  C_18
REMARK   10  A    between atoms: C_13  and  C_19
REMARK   11  A    between atoms: C_16  and  C_20
REMARK   12  A    between atoms: C_21  and  C_23
REMARK   13  A    between atoms: C_22  and  C_23
REMARK   14  A    between atoms: C_22  and  C_26
REMARK   15  A    between atoms: C_22  and  C_27
REMARK   16  A    between atoms: C_22  and  C_28
REMARK   17  A    between atoms: C_26  and  C_31
REMARK                            x       y       z     vdW  Elec       q    Type
REMARK                         _______ _______ _______ _____ _____    ______ ____
ROOT
ATOM      8  C   UNL     1      -3.416 -12.313  13.523  0.00  0.00    +0.000 C 
ATOM      9  C   UNL     1      -2.108 -11.522  13.775  0.00  0.00    +0.032 C 
ATOM     10  C   UNL     1      -3.611 -12.561  12.019  0.00  0.00    +0.012 C 
ATOM     11  C   UNL     1      -3.672 -11.248  11.216  0.00  0.00    +0.022 C 
ATOM     13  C   UNL     1      -2.557 -10.296  11.606  0.00  0.00    -0.073 C 
ATOM     14  C   UNL     1      -1.861 -10.443  12.747  0.00  0.00    -0.022 C 
ATOM     19  C   UNL     1      -2.233  -9.199  10.632  0.00  0.00    +0.039 C 
ENDROOT
BRANCH   8  12
ATOM     12  C   UNL     1      -3.427 -13.648  14.274  0.00  0.00    -0.013 C 
ATOM     17  C   UNL     1      -4.655 -14.466  13.886  0.00  0.00    +0.007 C 
ATOM     18  C   UNL     1      -2.147 -14.427  13.993  0.00  0.00    +0.007 C 
ENDBRANCH   8  12
BRANCH   9  15
ATOM     15  C   UNL     1      -2.097 -10.903  15.178  0.00  0.00    +0.112 C 
BRANCH  15   5
ATOM      1  O   UNL     1      -3.608 -11.337  17.589  0.00  0.00    -0.276 OA
ATOM      5  N   UNL     1      -3.377 -10.352  15.499  0.00  0.00    -0.315 N 
ATOM     21  C   UNL     1      -4.042 -10.614  16.693  0.00  0.00    +0.214 C 
ATOM     35  H   UNL     1      -3.810  -9.735  14.817  0.00  0.00    +0.149 HD
BRANCH  21  23
ATOM     23  C   UNL     1      -5.385  -9.912  16.810  0.00  0.00    +0.102 C 
BRANCH  23  22
ATOM     22  C   UNL     1      -6.605 -10.859  16.938  0.00  0.00    -0.017 C 
ATOM     27  C   UNL     1      -6.569 -11.843  15.749  0.00  0.00    +0.012 C 
ATOM     28  C   UNL     1      -7.921 -10.060  16.835  0.00  0.00    +0.012 C 
BRANCH  22  26
ATOM     26  C   UNL     1      -6.624 -11.639  18.274  0.00  0.00    +0.127 C 
BRANCH  26  31
ATOM      4  O   UNL     1      -8.424 -11.146  19.817  0.00  0.00    -0.251 OA
ATOM     31  C   UNL     1      -7.288 -10.914  19.424  0.00  0.00    +0.305 C 
BRANCH  31   2
ATOM      2  O   UNL     1      -6.493  -9.964  19.978  0.00  0.00    -0.481 OA
ATOM     37  H   UNL     1      -5.870  -9.582  19.325  0.00  0.00    +0.295 HD
ENDBRANCH  31   2
ENDBRANCH  26  31
ENDBRANCH  22  26
ENDBRANCH  23  22
ENDBRANCH  21  23
ENDBRANCH  15   5
ENDBRANCH   9  15
BRANCH  11  16
ATOM     16  C   UNL     1      -5.042 -10.576  11.357  0.00  0.00    +0.082 C 
BRANCH  16  20
ATOM      6  N   UNL     1      -6.588  -9.221   9.931  0.00  0.00    -0.342 N 
ATOM      7  N   UNL     1      -5.182 -10.556   8.843  0.00  0.00    -0.232 NA
ATOM     20  C   UNL     1      -5.579 -10.140  10.025  0.00  0.00    +0.109 A 
ATOM     24  C   UNL     1      -6.858  -9.031   8.600  0.00  0.00    +0.070 A 
ATOM     25  C   UNL     1      -5.968  -9.875   7.942  0.00  0.00    +0.089 A 
ATOM     29  C   UNL     1      -7.777  -8.218   7.936  0.00  0.00    +0.073 A 
ATOM     30  C   UNL     1      -5.983  -9.924   6.538  0.00  0.00    +0.033 A 
ATOM     32  C   UNL     1      -7.777  -8.278   6.538  0.00  0.00    +0.122 A 
ATOM     33  C   UNL     1      -6.896  -9.116   5.849  0.00  0.00    +0.048 A 
ATOM     36  H   UNL     1      -7.054  -8.764  10.703  0.00  0.00    +0.167 HD
BRANCH  32   3
ATOM      3  O   UNL     1      -8.655  -7.506   5.837  0.00  0.00    -0.495 OA
ATOM     34  C   UNL     1      -9.666  -6.835   6.585  0.00  0.00    +0.277 C 
ENDBRANCH  32   3
ENDBRANCH  16  20
ENDBRANCH  11  16
TORSDOF 11
ENDMDL
MODEL 4
REMARK VINA RESULT:      -6.5     27.529     29.953
REMARK  Name = 71693200
REMARK  17 active torsions:
REMARK  status: ('A' for Active; 'I' for Inactive)
REMARK    1  A    between atoms: O_2  and  C_31
REMARK    2  A    between atoms: O_3  and  C_32
REMARK    3  A    between atoms: O_3  and  C_34
REMARK    4  A    between atoms: N_5  and  C_15
REMARK    5  A    between atoms: C_8  and  C_12
REMARK    6  A    between atoms: C_9  and  C_15
REMARK    7  A    between atoms: C_11  and  C_16
REMARK    8  A    between atoms: C_12  and  C_17
REMARK    9  A    between atoms: C_12  and  C_18
REMARK   10  A    between atoms: C_13  and  C_19
REMARK   11  A    between atoms: C_16  and  C_20
REMARK   12  A    between atoms: C_21  and  C_23
REMARK   13  A    between atoms: C_22  and  C_23
REMARK   14  A    between atoms: C_22  and  C_26
REMARK   15  A    between atoms: C_22  and  C_27
REMARK   16  A    between atoms: C_22  and  C_28
REMARK   17  A    between atoms: C_26  and  C_31
REMARK                            x       y       z     vdW  Elec       q    Type
REMARK                         _______ _______ _______ _____ _____    ______ ____
ROOT
ATOM      8  C   UNL     1       8.624   8.562   5.200  0.00  0.00    +0.000 C 
ATOM      9  C   UNL     1       8.398   7.806   6.534  0.00  0.00    +0.032 C 
ATOM     10  C   UNL     1       8.363   7.631   4.006  0.00  0.00    +0.012 C 
ATOM     11  C   UNL     1       9.276   6.391   4.025  0.00  0.00    +0.022 C 
ATOM     13  C   UNL     1       9.315   5.740   5.394  0.00  0.00    -0.073 C 
ATOM     14  C   UNL     1       8.906   6.384   6.501  0.00  0.00    -0.022 C 
ATOM     19  C   UNL     1       9.793   4.316   5.454  0.00  0.00    +0.039 C 
ENDROOT
BRANCH   8  12
ATOM     12  C   UNL     1       7.734   9.804   5.093  0.00  0.00    -0.013 C 
ATOM     17  C   UNL     1       8.589  11.060   4.953  0.00  0.00    +0.007 C 
ATOM     18  C   UNL     1       6.772   9.671   3.918  0.00  0.00    +0.007 C 
ENDBRANCH   8  12
BRANCH   9  15
ATOM     15  C   UNL     1       9.044   8.552   7.709  0.00  0.00    +0.112 C 
BRANCH  15   5
ATOM      1  O   UNL     1      10.671  10.923   7.590  0.00  0.00    -0.276 OA
ATOM      5  N   UNL     1      10.464   8.611   7.553  0.00  0.00    -0.315 N 
ATOM     21  C   UNL     1      11.176   9.806   7.505  0.00  0.00    +0.214 C 
ATOM     35  H   UNL     1      10.968   7.732   7.482  0.00  0.00    +0.149 HD
BRANCH  21  23
ATOM     23  C   UNL     1      12.676   9.615   7.340  0.00  0.00    +0.102 C 
BRANCH  23  22
ATOM     22  C   UNL     1      13.153   9.455   5.875  0.00  0.00    -0.017 C 
ATOM     27  C   UNL     1      14.562  10.077   5.764  0.00  0.00    +0.012 C 
ATOM     28  C   UNL     1      12.228  10.234   4.918  0.00  0.00    +0.012 C 
BRANCH  22  26
ATOM     26  C   UNL     1      13.186   7.979   5.411  0.00  0.00    +0.127 C 
BRANCH  26  31
ATOM      4  O   UNL     1      14.668   6.857   6.964  0.00  0.00    -0.251 OA
ATOM     31  C   UNL     1      13.545   6.981   6.491  0.00  0.00    +0.305 C 
BRANCH  31   2
ATOM      2  O   UNL     1      12.490   6.222   6.881  0.00  0.00    -0.481 OA
ATOM     37  H   UNL     1      12.619   5.850   7.779  0.00  0.00    +0.295 HD
ENDBRANCH  31   2
ENDBRANCH  26  31
ENDBRANCH  22  26
ENDBRANCH  23  22
ENDBRANCH  21  23
ENDBRANCH  15   5
ENDBRANCH   9  15
BRANCH  11  16
ATOM     16  C   UNL     1      10.688   6.736   3.541  0.00  0.00    +0.082 C 
BRANCH  16  20
ATOM      6  N   UNL     1      10.361   5.797   1.245  0.00  0.00    -0.342 N 
ATOM      7  N   UNL     1      12.164   5.090   2.335  0.00  0.00    -0.232 NA
ATOM     20  C   UNL     1      11.103   5.862   2.392  0.00  0.00    +0.109 A 
ATOM     24  C   UNL     1      10.987   4.926   0.391  0.00  0.00    +0.070 A 
ATOM     25  C   UNL     1      12.109   4.498   1.094  0.00  0.00    +0.089 A 
ATOM     29  C   UNL     1      10.677   4.489  -0.898  0.00  0.00    +0.073 A 
ATOM     30  C   UNL     1      12.984   3.578   0.492  0.00  0.00    +0.033 A 
ATOM     32  C   UNL     1      11.559   3.574  -1.482  0.00  0.00    +0.122 A 
ATOM     33  C   UNL     1      12.694   3.126  -0.801  0.00  0.00    +0.048 A 
ATOM     36  H   UNL     1       9.504   6.300   1.057  0.00  0.00    +0.167 HD
BRANCH  32   3
ATOM      3  O   UNL     1      11.306   3.112  -2.739  0.00  0.00    -0.495 OA
ATOM     34  C   UNL     1      12.417   2.614  -3.481  0.00  0.00    +0.277 C 
ENDBRANCH  32   3
ENDBRANCH  16  20
ENDBRANCH  11  16
TORSDOF 11
ENDMDL
MODEL 5
REMARK VINA RESULT:      -6.5     30.302     34.713
REMARK  Name = 71693200
REMARK  17 active torsions:
REMARK  status: ('A' for Active; 'I' for Inactive)
REMARK    1  A    between atoms: O_2  and  C_31
REMARK    2  A    between atoms: O_3  and  C_32
REMARK    3  A    between atoms: O_3  and  C_34
REMARK    4  A    between atoms: N_5  and  C_15
REMARK    5  A    between atoms: C_8  and  C_12
REMARK    6  A    between atoms: C_9  and  C_15
REMARK    7  A    between atoms: C_11  and  C_16
REMARK    8  A    between atoms: C_12  and  C_17
REMARK    9  A    between atoms: C_12  and  C_18
REMARK   10  A    between atoms: C_13  and  C_19
REMARK   11  A    between atoms: C_16  and  C_20
REMARK   12  A    between atoms: C_21  and  C_23
REMARK   13  A    between atoms: C_22  and  C_23
REMARK   14  A    between atoms: C_22  and  C_26
REMARK   15  A    between atoms: C_22  and  C_27
REMARK   16  A    between atoms: C_22  and  C_28
REMARK   17  A    between atoms: C_26  and  C_31
REMARK                            x       y       z     vdW  Elec       q    Type
REMARK                         _______ _______ _______ _____ _____    ______ ____
ROOT
ATOM      8  C   UNL     1      17.900   7.502  20.563  0.00  0.00    +0.000 C 
ATOM      9  C   UNL     1      17.597   8.669  21.535  0.00  0.00    +0.032 C 
ATOM     10  C   UNL     1      18.804   6.461  21.241  0.00  0.00    +0.012 C 
ATOM     11  C   UNL     1      20.141   7.067  21.706  0.00  0.00    +0.022 C 
ATOM     13  C   UNL     1      19.940   8.374  22.448  0.00  0.00    -0.073 C 
ATOM     14  C   UNL     1      18.791   9.069  22.370  0.00  0.00    -0.022 C 
ATOM     19  C   UNL     1      21.074   8.840  23.318  0.00  0.00    +0.039 C 
ENDROOT
BRANCH   8  12
ATOM     12  C   UNL     1      16.616   6.828  20.067  0.00  0.00    -0.013 C 
ATOM     17  C   UNL     1      16.933   5.837  18.951  0.00  0.00    +0.007 C 
ATOM     18  C   UNL     1      15.899   6.135  21.220  0.00  0.00    +0.007 C 
ENDBRANCH   8  12
BRANCH   9  15
ATOM     15  C   UNL     1      17.070   9.896  20.779  0.00  0.00    +0.112 C 
BRANCH  15   5
ATOM      1  O   UNL     1      15.293  10.340  18.559  0.00  0.00    -0.276 OA
ATOM      5  N   UNL     1      15.642   9.941  20.821  0.00  0.00    -0.315 N 
ATOM     21  C   UNL     1      14.854  10.163  19.695  0.00  0.00    +0.214 C 
ATOM     35  H   UNL     1      15.190   9.798  21.719  0.00  0.00    +0.149 HD
BRANCH  21  23
ATOM     23  C   UNL     1      13.361  10.163  19.985  0.00  0.00    +0.102 C 
BRANCH  23  22
ATOM     22  C   UNL     1      12.727   8.756  20.127  0.00  0.00    -0.017 C 
ATOM     27  C   UNL     1      11.202   8.901  19.932  0.00  0.00    +0.012 C 
ATOM     28  C   UNL     1      12.959   8.201  21.547  0.00  0.00    +0.012 C 
BRANCH  22  26
ATOM     26  C   UNL     1      13.297   7.734  19.115  0.00  0.00    +0.127 C 
BRANCH  26  31
ATOM      4  O   UNL     1      13.034   8.683  16.903  0.00  0.00    -0.251 OA
ATOM     31  C   UNL     1      12.718   7.828  17.721  0.00  0.00    +0.305 C 
BRANCH  31   2
ATOM      2  O   UNL     1      11.796   6.865  17.466  0.00  0.00    -0.481 OA
ATOM     37  H   UNL     1      10.892   7.237  17.384  0.00  0.00    +0.295 HD
ENDBRANCH  31   2
ENDBRANCH  26  31
ENDBRANCH  22  26
ENDBRANCH  23  22
ENDBRANCH  21  23
ENDBRANCH  15   5
ENDBRANCH   9  15
BRANCH  11  16
ATOM     16  C   UNL     1      21.106   7.247  20.530  0.00  0.00    +0.082 C 
BRANCH  16  20
ATOM      6  N   UNL     1      21.982   4.922  20.826  0.00  0.00    -0.342 N 
ATOM      7  N   UNL     1      23.504   6.486  20.405  0.00  0.00    -0.232 NA
ATOM     20  C   UNL     1      22.224   6.245  20.579  0.00  0.00    +0.109 A 
ATOM     24  C   UNL     1      23.186   4.266  20.808  0.00  0.00    +0.070 A 
ATOM     25  C   UNL     1      24.120   5.264  20.544  0.00  0.00    +0.089 A 
ATOM     29  C   UNL     1      23.528   2.926  20.995  0.00  0.00    +0.073 A 
ATOM     30  C   UNL     1      25.480   4.923  20.459  0.00  0.00    +0.033 A 
ATOM     32  C   UNL     1      24.886   2.604  20.907  0.00  0.00    +0.122 A 
ATOM     33  C   UNL     1      25.847   3.583  20.643  0.00  0.00    +0.048 A 
ATOM     36  H   UNL     1      21.078   4.500  20.993  0.00  0.00    +0.167 HD
BRANCH  32   3
ATOM      3  O   UNL     1      25.278   1.310  21.082  0.00  0.00    -0.495 OA
ATOM     34  C   UNL     1      25.374   0.840  22.425  0.00  0.00    +0.277 C 
ENDBRANCH  32   3
ENDBRANCH  16  20
ENDBRANCH  11  16
TORSDOF 11
ENDMDL
MODEL 6
REMARK VINA RESULT:      -6.4     28.379     31.687
REMARK  Name = 71693200
REMARK  17 active torsions:
REMARK  status: ('A' for Active; 'I' for Inactive)
REMARK    1  A    between atoms: O_2  and  C_31
REMARK    2  A    between atoms: O_3  and  C_32
REMARK    3  A    between atoms: O_3  and  C_34
REMARK    4  A    between atoms: N_5  and  C_15
REMARK    5  A    between atoms: C_8  and  C_12
REMARK    6  A    between atoms: C_9  and  C_15
REMARK    7  A    between atoms: C_11  and  C_16
REMARK    8  A    between atoms: C_12  and  C_17
REMARK    9  A    between atoms: C_12  and  C_18
REMARK   10  A    between atoms: C_13  and  C_19
REMARK   11  A    between atoms: C_16  and  C_20
REMARK   12  A    between atoms: C_21  and  C_23
REMARK   13  A    between atoms: C_22  and  C_23
REMARK   14  A    between atoms: C_22  and  C_26
REMARK   15  A    between atoms: C_22  and  C_27
REMARK   16  A    between atoms: C_22  and  C_28
REMARK   17  A    between atoms: C_26  and  C_31
REMARK                            x       y       z     vdW  Elec       q    Type
REMARK                         _______ _______ _______ _____ _____    ______ ____
ROOT
ATOM      8  C   UNL     1      12.594   9.119  19.002  0.00  0.00    +0.000 C 
ATOM      9  C   UNL     1      12.670  10.454  19.786  0.00  0.00    +0.032 C 
ATOM     10  C   UNL     1      11.189   8.509  19.117  0.00  0.00    +0.012 C 
ATOM     11  C   UNL     1      10.790   8.240  20.580  0.00  0.00    +0.022 C 
ATOM     13  C   UNL     1      11.086   9.428  21.474  0.00  0.00    -0.073 C 
ATOM     14  C   UNL     1      11.919  10.414  21.096  0.00  0.00    -0.022 C 
ATOM     19  C   UNL     1      10.370   9.479  22.794  0.00  0.00    +0.039 C 
ENDROOT
BRANCH   8  12
ATOM     12  C   UNL     1      12.959   9.306  17.526  0.00  0.00    -0.013 C 
ATOM     17  C   UNL     1      14.104   8.374  17.140  0.00  0.00    +0.007 C 
ATOM     18  C   UNL     1      11.741   9.061  16.641  0.00  0.00    +0.007 C 
ENDBRANCH   8  12
BRANCH   9  15
ATOM     15  C   UNL     1      14.125  10.862  20.043  0.00  0.00    +0.112 C 
BRANCH  15   5
ATOM      1  O   UNL     1      14.199  13.590  20.960  0.00  0.00    -0.276 OA
ATOM      5  N   UNL     1      14.296  11.310  21.390  0.00  0.00    -0.315 N 
ATOM     21  C   UNL     1      14.320  12.654  21.749  0.00  0.00    +0.214 C 
ATOM     35  H   UNL     1      14.397  10.604  22.114  0.00  0.00    +0.149 HD
BRANCH  21  23
ATOM     23  C   UNL     1      14.508  12.884  23.241  0.00  0.00    +0.102 C 
BRANCH  23  22
ATOM     22  C   UNL     1      13.290  13.516  23.959  0.00  0.00    -0.017 C 
ATOM     27  C   UNL     1      13.087  14.938  23.391  0.00  0.00    +0.012 C 
ATOM     28  C   UNL     1      13.570  13.660  25.470  0.00  0.00    +0.012 C 
BRANCH  22  26
ATOM     26  C   UNL     1      11.995  12.687  23.791  0.00  0.00    +0.127 C 
BRANCH  26  31
ATOM      4  O   UNL     1      10.540  12.665  25.727  0.00  0.00    -0.251 OA
ATOM     31  C   UNL     1      11.426  12.126  25.076  0.00  0.00    +0.305 C 
BRANCH  31   2
ATOM      2  O   UNL     1      12.010  10.958  25.446  0.00  0.00    -0.481 OA
ATOM     37  H   UNL     1      12.489  11.042  26.298  0.00  0.00    +0.295 HD
ENDBRANCH  31   2
ENDBRANCH  26  31
ENDBRANCH  22  26
ENDBRANCH  23  22
ENDBRANCH  21  23
ENDBRANCH  15   5
ENDBRANCH   9  15
BRANCH  11  16
ATOM     16  C   UNL     1      11.464   6.971  21.113  0.00  0.00    +0.082 C 
BRANCH  16  20
ATOM      6  N   UNL     1      13.697   6.335  20.181  0.00  0.00    -0.342 N 
ATOM      7  N   UNL     1      13.719   7.856  21.801  0.00  0.00    -0.232 NA
ATOM     20  C   UNL     1      12.961   7.081  21.059  0.00  0.00    +0.109 A 
ATOM     24  C   UNL     1      15.018   6.652  20.368  0.00  0.00    +0.070 A 
ATOM     25  C   UNL     1      15.005   7.602  21.385  0.00  0.00    +0.089 A 
ATOM     29  C   UNL     1      16.188   6.201  19.754  0.00  0.00    +0.073 A 
ATOM     30  C   UNL     1      16.222   8.146  21.829  0.00  0.00    +0.033 A 
ATOM     32  C   UNL     1      17.390   6.754  20.208  0.00  0.00    +0.122 A 
ATOM     33  C   UNL     1      17.409   7.710  21.227  0.00  0.00    +0.048 A 
ATOM     36  H   UNL     1      13.335   5.668  19.513  0.00  0.00    +0.167 HD
BRANCH  32   3
ATOM      3  O   UNL     1      18.564   6.350  19.645  0.00  0.00    -0.495 OA
ATOM     34  C   UNL     1      19.650   6.088  20.531  0.00  0.00    +0.277 C 
ENDBRANCH  32   3
ENDBRANCH  16  20
ENDBRANCH  11  16
TORSDOF 11
ENDMDL
MODEL 7
REMARK VINA RESULT:      -6.4     27.895     30.408
REMARK  Name = 71693200
REMARK  17 active torsions:
REMARK  status: ('A' for Active; 'I' for Inactive)
REMARK    1  A    between atoms: O_2  and  C_31
REMARK    2  A    between atoms: O_3  and  C_32
REMARK    3  A    between atoms: O_3  and  C_34
REMARK    4  A    between atoms: N_5  and  C_15
REMARK    5  A    between atoms: C_8  and  C_12
REMARK    6  A    between atoms: C_9  and  C_15
REMARK    7  A    between atoms: C_11  and  C_16
REMARK    8  A    between atoms: C_12  and  C_17
REMARK    9  A    between atoms: C_12  and  C_18
REMARK   10  A    between atoms: C_13  and  C_19
REMARK   11  A    between atoms: C_16  and  C_20
REMARK   12  A    between atoms: C_21  and  C_23
REMARK   13  A    between atoms: C_22  and  C_23
REMARK   14  A    between atoms: C_22  and  C_26
REMARK   15  A    between atoms: C_22  and  C_27
REMARK   16  A    between atoms: C_22  and  C_28
REMARK   17  A    between atoms: C_26  and  C_31
REMARK                            x       y       z     vdW  Elec       q    Type
REMARK                         _______ _______ _______ _____ _____    ______ ____
ROOT
ATOM      8  C   UNL     1      12.836   7.256   2.098  0.00  0.00    +0.000 C 
ATOM      9  C   UNL     1      12.526   8.170   3.310  0.00  0.00    +0.032 C 
ATOM     10  C   UNL     1      11.719   7.361   1.048  0.00  0.00    +0.012 C 
ATOM     11  C   UNL     1      10.345   6.964   1.620  0.00  0.00    +0.022 C 
ATOM     13  C   UNL     1      10.079   7.623   2.959  0.00  0.00    -0.073 C 
ATOM     14  C   UNL     1      11.065   8.168   3.694  0.00  0.00    -0.022 C 
ATOM     19  C   UNL     1       8.648   7.681   3.413  0.00  0.00    +0.039 C 
ENDROOT
BRANCH   8  12
ATOM     12  C   UNL     1      14.183   7.601   1.456  0.00  0.00    -0.013 C 
ATOM     17  C   UNL     1      14.598   6.512   0.470  0.00  0.00    +0.007 C 
ATOM     18  C   UNL     1      14.112   8.958   0.765  0.00  0.00    +0.007 C 
ENDBRANCH   8  12
BRANCH   9  15
ATOM     15  C   UNL     1      13.374   7.780   4.528  0.00  0.00    +0.112 C 
BRANCH  15   5
ATOM      1  O   UNL     1      12.729   8.309   7.282  0.00  0.00    -0.276 OA
ATOM      5  N   UNL     1      12.633   6.936   5.412  0.00  0.00    -0.315 N 
ATOM     21  C   UNL     1      12.365   7.269   6.737  0.00  0.00    +0.214 C 
ATOM     35  H   UNL     1      12.285   6.055   5.044  0.00  0.00    +0.149 HD
BRANCH  21  23
ATOM     23  C   UNL     1      11.556   6.216   7.479  0.00  0.00    +0.102 C 
BRANCH  23  22
ATOM     22  C   UNL     1      10.020   6.351   7.327  0.00  0.00    -0.017 C 
ATOM     27  C   UNL     1       9.594   5.553   6.076  0.00  0.00    +0.012 C 
ATOM     28  C   UNL     1       9.629   7.824   7.089  0.00  0.00    +0.012 C 
BRANCH  22  26
ATOM     26  C   UNL     1       9.247   5.847   8.569  0.00  0.00    +0.127 C 
BRANCH  26  31
ATOM      4  O   UNL     1      10.246   4.802  10.511  0.00  0.00    -0.251 OA
ATOM     31  C   UNL     1       9.926   4.731   9.332  0.00  0.00    +0.305 C 
BRANCH  31   2
ATOM      2  O   UNL     1      10.157   3.634   8.567  0.00  0.00    -0.481 OA
ATOM     37  H   UNL     1       9.468   3.516   7.879  0.00  0.00    +0.295 HD
ENDBRANCH  31   2
ENDBRANCH  26  31
ENDBRANCH  22  26
ENDBRANCH  23  22
ENDBRANCH  21  23
ENDBRANCH  15   5
ENDBRANCH   9  15
BRANCH  11  16
ATOM     16  C   UNL     1      10.207   5.441   1.721  0.00  0.00    +0.082 C 
BRANCH  16  20
ATOM      6  N   UNL     1       9.906   4.917  -0.707  0.00  0.00    -0.342 N 
ATOM      7  N   UNL     1      11.670   3.987   0.275  0.00  0.00    -0.232 NA
ATOM     20  C   UNL     1      10.625   4.766   0.447  0.00  0.00    +0.109 A 
ATOM     24  C   UNL     1      10.529   4.188  -1.687  0.00  0.00    +0.070 A 
ATOM     25  C   UNL     1      11.627   3.617  -1.049  0.00  0.00    +0.089 A 
ATOM     29  C   UNL     1      10.236   3.986  -3.036  0.00  0.00    +0.073 A 
ATOM     30  C   UNL     1      12.493   2.791  -1.785  0.00  0.00    +0.033 A 
ATOM     32  C   UNL     1      11.109   3.162  -3.754  0.00  0.00    +0.122 A 
ATOM     33  C   UNL     1      12.219   2.574  -3.141  0.00  0.00    +0.048 A 
ATOM     36  H   UNL     1       9.065   5.466  -0.819  0.00  0.00    +0.167 HD
BRANCH  32   3
ATOM      3  O   UNL     1      10.870   2.928  -5.076  0.00  0.00    -0.495 OA
ATOM     34  C   UNL     1      11.940   3.188  -5.981  0.00  0.00    +0.277 C 
ENDBRANCH  32   3
ENDBRANCH  16  20
ENDBRANCH  11  16
TORSDOF 11
ENDMDL
MODEL 8
REMARK VINA RESULT:      -6.3     30.203     34.498
REMARK  Name = 71693200
REMARK  17 active torsions:
REMARK  status: ('A' for Active; 'I' for Inactive)
REMARK    1  A    between atoms: O_2  and  C_31
REMARK    2  A    between atoms: O_3  and  C_32
REMARK    3  A    between atoms: O_3  and  C_34
REMARK    4  A    between atoms: N_5  and  C_15
REMARK    5  A    between atoms: C_8  and  C_12
REMARK    6  A    between atoms: C_9  and  C_15
REMARK    7  A    between atoms: C_11  and  C_16
REMARK    8  A    between atoms: C_12  and  C_17
REMARK    9  A    between atoms: C_12  and  C_18
REMARK   10  A    between atoms: C_13  and  C_19
REMARK   11  A    between atoms: C_16  and  C_20
REMARK   12  A    between atoms: C_21  and  C_23
REMARK   13  A    between atoms: C_22  and  C_23
REMARK   14  A    between atoms: C_22  and  C_26
REMARK   15  A    between atoms: C_22  and  C_27
REMARK   16  A    between atoms: C_22  and  C_28
REMARK   17  A    between atoms: C_26  and  C_31
REMARK                            x       y       z     vdW  Elec       q    Type
REMARK                         _______ _______ _______ _____ _____    ______ ____
ROOT
ATOM      8  C   UNL     1      18.211   9.866  21.935  0.00  0.00    +0.000 C 
ATOM      9  C   UNL     1      16.930   9.634  21.095  0.00  0.00    +0.032 C 
ATOM     10  C   UNL     1      19.417   9.179  21.274  0.00  0.00    +0.012 C 
ATOM     11  C   UNL     1      19.206   7.662  21.114  0.00  0.00    +0.022 C 
ATOM     13  C   UNL     1      17.843   7.339  20.535  0.00  0.00    -0.073 C 
ATOM     14  C   UNL     1      16.842   8.238  20.524  0.00  0.00    -0.022 C 
ATOM     19  C   UNL     1      17.670   5.975  19.929  0.00  0.00    +0.039 C 
ENDROOT
BRANCH   8  12
ATOM     12  C   UNL     1      18.504  11.357  22.124  0.00  0.00    -0.013 C 
ATOM     17  C   UNL     1      19.079  11.615  23.514  0.00  0.00    +0.007 C 
ATOM     18  C   UNL     1      19.459  11.854  21.043  0.00  0.00    +0.007 C 
ENDBRANCH   8  12
BRANCH   9  15
ATOM     15  C   UNL     1      15.669   9.928  21.918  0.00  0.00    +0.112 C 
BRANCH  15   5
ATOM      1  O   UNL     1      13.814  11.354  20.241  0.00  0.00    -0.276 OA
ATOM      5  N   UNL     1      14.509   9.394  21.276  0.00  0.00    -0.315 N 
ATOM     21  C   UNL     1      13.660  10.157  20.479  0.00  0.00    +0.214 C 
ATOM     35  H   UNL     1      14.306   8.408  21.411  0.00  0.00    +0.149 HD
BRANCH  21  23
ATOM     23  C   UNL     1      12.495   9.369  19.900  0.00  0.00    +0.102 C 
BRANCH  23  22
ATOM     22  C   UNL     1      12.836   8.539  18.636  0.00  0.00    -0.017 C 
ATOM     27  C   UNL     1      14.142   9.103  18.036  0.00  0.00    +0.012 C 
ATOM     28  C   UNL     1      11.731   8.701  17.572  0.00  0.00    +0.012 C 
BRANCH  22  26
ATOM     26  C   UNL     1      12.995   7.029  18.933  0.00  0.00    +0.127 C 
BRANCH  26  31
ATOM      4  O   UNL     1      11.378   6.436  20.636  0.00  0.00    -0.251 OA
ATOM     31  C   UNL     1      12.548   6.602  20.315  0.00  0.00    +0.305 C 
BRANCH  31   2
ATOM      2  O   UNL     1      13.583   6.428  21.174  0.00  0.00    -0.481 OA
ATOM     37  H   UNL     1      14.110   7.248  21.283  0.00  0.00    +0.295 HD
ENDBRANCH  31   2
ENDBRANCH  26  31
ENDBRANCH  22  26
ENDBRANCH  23  22
ENDBRANCH  21  23
ENDBRANCH  15   5
ENDBRANCH   9  15
BRANCH  11  16
ATOM     16  C   UNL     1      19.425   6.930  22.442  0.00  0.00    +0.082 C 
BRANCH  16  20
ATOM      6  N   UNL     1      21.336   5.864  21.230  0.00  0.00    -0.342 N 
ATOM      7  N   UNL     1      21.200   5.425  23.404  0.00  0.00    -0.232 NA
ATOM     20  C   UNL     1      20.652   6.066  22.397  0.00  0.00    +0.109 A 
ATOM     24  C   UNL     1      22.397   5.039  21.504  0.00  0.00    +0.070 A 
ATOM     25  C   UNL     1      22.290   4.779  22.867  0.00  0.00    +0.089 A 
ATOM     29  C   UNL     1      23.410   4.514  20.701  0.00  0.00    +0.073 A 
ATOM     30  C   UNL     1      23.240   3.947  23.482  0.00  0.00    +0.033 A 
ATOM     32  C   UNL     1      24.348   3.688  21.329  0.00  0.00    +0.122 A 
ATOM     33  C   UNL     1      24.267   3.409  22.695  0.00  0.00    +0.048 A 
ATOM     36  H   UNL     1      21.104   6.251  20.325  0.00  0.00    +0.167 HD
BRANCH  32   3
ATOM      3  O   UNL     1      25.360   3.147  20.592  0.00  0.00    -0.495 OA
ATOM     34  C   UNL     1      25.235   3.216  19.174  0.00  0.00    +0.277 C 
ENDBRANCH  32   3
ENDBRANCH  16  20
ENDBRANCH  11  16
TORSDOF 11
ENDMDL
MODEL 9
REMARK VINA RESULT:      -6.3     29.952     34.473
REMARK  Name = 71693200
REMARK  17 active torsions:
REMARK  status: ('A' for Active; 'I' for Inactive)
REMARK    1  A    between atoms: O_2  and  C_31
REMARK    2  A    between atoms: O_3  and  C_32
REMARK    3  A    between atoms: O_3  and  C_34
REMARK    4  A    between atoms: N_5  and  C_15
REMARK    5  A    between atoms: C_8  and  C_12
REMARK    6  A    between atoms: C_9  and  C_15
REMARK    7  A    between atoms: C_11  and  C_16
REMARK    8  A    between atoms: C_12  and  C_17
REMARK    9  A    between atoms: C_12  and  C_18
REMARK   10  A    between atoms: C_13  and  C_19
REMARK   11  A    between atoms: C_16  and  C_20
REMARK   12  A    between atoms: C_21  and  C_23
REMARK   13  A    between atoms: C_22  and  C_23
REMARK   14  A    between atoms: C_22  and  C_26
REMARK   15  A    between atoms: C_22  and  C_27
REMARK   16  A    between atoms: C_22  and  C_28
REMARK   17  A    between atoms: C_26  and  C_31
REMARK                            x       y       z     vdW  Elec       q    Type
REMARK                         _______ _______ _______ _____ _____    ______ ____
ROOT
ATOM      8  C   UNL     1      18.417   8.675  21.739  0.00  0.00    +0.000 C 
ATOM      9  C   UNL     1      17.211   8.198  20.892  0.00  0.00    +0.032 C 
ATOM     10  C   UNL     1      19.737   8.361  21.018  0.00  0.00    +0.012 C 
ATOM     11  C   UNL     1      19.902   6.855  20.738  0.00  0.00    +0.022 C 
ATOM     13  C   UNL     1      18.646   6.251  20.143  0.00  0.00    -0.073 C 
ATOM     14  C   UNL     1      17.455   6.872  20.210  0.00  0.00    -0.022 C 
ATOM     19  C   UNL     1      18.798   4.936  19.430  0.00  0.00    +0.039 C 
ENDROOT
BRANCH   8  12
ATOM     12  C   UNL     1      18.338  10.174  22.045  0.00  0.00    -0.013 C 
ATOM     17  C   UNL     1      19.601  10.636  22.767  0.00  0.00    +0.007 C 
ATOM     18  C   UNL     1      18.127  10.970  20.762  0.00  0.00    +0.007 C 
ENDBRANCH   8  12
BRANCH   9  15
ATOM     15  C   UNL     1      15.938   8.108  21.742  0.00  0.00    +0.112 C 
BRANCH  15   5
ATOM      1  O   UNL     1      13.737   6.667  20.575  0.00  0.00    -0.276 OA
ATOM      5  N   UNL     1      14.822   8.666  21.045  0.00  0.00    -0.315 N 
ATOM     21  C   UNL     1      13.795   7.894  20.509  0.00  0.00    +0.214 C 
ATOM     35  H   UNL     1      14.782   9.676  20.948  0.00  0.00    +0.149 HD
BRANCH  21  23
ATOM     23  C   UNL     1      12.715   8.710  19.818  0.00  0.00    +0.102 C 
BRANCH  23  22
ATOM     22  C   UNL     1      12.923   8.908  18.295  0.00  0.00    -0.017 C 
ATOM     27  C   UNL     1      14.140   8.060  17.868  0.00  0.00    +0.012 C 
ATOM     28  C   UNL     1      13.256  10.382  17.984  0.00  0.00    +0.012 C 
BRANCH  22  26
ATOM     26  C   UNL     1      11.680   8.514  17.462  0.00  0.00    +0.127 C 
BRANCH  26  31
ATOM      4  O   UNL     1      12.628   8.890  15.265  0.00  0.00    -0.251 OA
ATOM     31  C   UNL     1      11.685   9.018  16.035  0.00  0.00    +0.305 C 
BRANCH  31   2
ATOM      2  O   UNL     1      10.530   9.642  15.693  0.00  0.00    -0.481 OA
ATOM     37  H   UNL     1       9.969   9.829  16.475  0.00  0.00    +0.295 HD
ENDBRANCH  31   2
ENDBRANCH  26  31
ENDBRANCH  22  26
ENDBRANCH  23  22
ENDBRANCH  21  23
ENDBRANCH  15   5
ENDBRANCH   9  15
BRANCH  11  16
ATOM     16  C   UNL     1      20.328   6.101  22.002  0.00  0.00    +0.082 C 
BRANCH  16  20
ATOM      6  N   UNL     1      21.755   4.127  22.574  0.00  0.00    -0.342 N 
ATOM      7  N   UNL     1      22.269   5.181  20.686  0.00  0.00    -0.232 NA
ATOM     20  C   UNL     1      21.459   5.154  21.721  0.00  0.00    +0.109 A 
ATOM     24  C   UNL     1      22.825   3.445  22.053  0.00  0.00    +0.070 A 
ATOM     25  C   UNL     1      23.127   4.123  20.876  0.00  0.00    +0.089 A 
ATOM     29  C   UNL     1      23.533   2.329  22.499  0.00  0.00    +0.073 A 
ATOM     30  C   UNL     1      24.197   3.674  20.083  0.00  0.00    +0.033 A 
ATOM     32  C   UNL     1      24.594   1.895  21.697  0.00  0.00    +0.122 A 
ATOM     33  C   UNL     1      24.922   2.554  20.509  0.00  0.00    +0.048 A 
ATOM     36  H   UNL     1      21.273   3.907  23.436  0.00  0.00    +0.167 HD
BRANCH  32   3
ATOM      3  O   UNL     1      25.322   0.808  22.084  0.00  0.00    -0.495 OA
ATOM     34  C   UNL     1      25.217   0.413  23.450  0.00  0.00    +0.277 C 
ENDBRANCH  32   3
ENDBRANCH  16  20
ENDBRANCH  11  16
TORSDOF 11
ENDMDL
MODEL 10
REMARK VINA RESULT:      -6.3     29.147     32.077
REMARK  Name = 71693200
REMARK  17 active torsions:
REMARK  status: ('A' for Active; 'I' for Inactive)
REMARK    1  A    between atoms: O_2  and  C_31
REMARK    2  A    between atoms: O_3  and  C_32
REMARK    3  A    between atoms: O_3  and  C_34
REMARK    4  A    between atoms: N_5  and  C_15
REMARK    5  A    between atoms: C_8  and  C_12
REMARK    6  A    between atoms: C_9  and  C_15
REMARK    7  A    between atoms: C_11  and  C_16
REMARK    8  A    between atoms: C_12  and  C_17
REMARK    9  A    between atoms: C_12  and  C_18
REMARK   10  A    between atoms: C_13  and  C_19
REMARK   11  A    between atoms: C_16  and  C_20
REMARK   12  A    between atoms: C_21  and  C_23
REMARK   13  A    between atoms: C_22  and  C_23
REMARK   14  A    between atoms: C_22  and  C_26
REMARK   15  A    between atoms: C_22  and  C_27
REMARK   16  A    between atoms: C_22  and  C_28
REMARK   17  A    between atoms: C_26  and  C_31
REMARK                            x       y       z     vdW  Elec       q    Type
REMARK                         _______ _______ _______ _____ _____    ______ ____
ROOT
ATOM      8  C   UNL     1      14.968   8.464  19.947  0.00  0.00    +0.000 C 
ATOM      9  C   UNL     1      14.133   7.362  19.248  0.00  0.00    +0.032 C 
ATOM     10  C   UNL     1      14.469   8.685  21.383  0.00  0.00    +0.012 C 
ATOM     11  C   UNL     1      12.986   9.096  21.427  0.00  0.00    +0.022 C 
ATOM     13  C   UNL     1      12.129   8.213  20.541  0.00  0.00    -0.073 C 
ATOM     14  C   UNL     1      12.661   7.435  19.582  0.00  0.00    -0.022 C 
ATOM     19  C   UNL     1      10.651   8.210  20.814  0.00  0.00    +0.039 C 
ENDROOT
BRANCH   8  12
ATOM     12  C   UNL     1      16.461   8.119  19.965  0.00  0.00    -0.013 C 
ATOM     17  C   UNL     1      17.213   9.063  20.898  0.00  0.00    +0.007 C 
ATOM     18  C   UNL     1      16.668   6.667  20.382  0.00  0.00    +0.007 C 
ENDBRANCH   8  12
BRANCH   9  15
ATOM     15  C   UNL     1      14.314   7.413  17.726  0.00  0.00    +0.112 C 
BRANCH  15   5
ATOM      1  O   UNL     1      14.452   8.283  14.986  0.00  0.00    -0.276 OA
ATOM      5  N   UNL     1      13.932   8.691  17.212  0.00  0.00    -0.315 N 
ATOM     21  C   UNL     1      14.032   9.032  15.866  0.00  0.00    +0.214 C 
ATOM     35  H   UNL     1      13.565   9.374  17.868  0.00  0.00    +0.149 HD
BRANCH  21  23
ATOM     23  C   UNL     1      13.560  10.445  15.558  0.00  0.00    +0.102 C 
BRANCH  23  22
ATOM     22  C   UNL     1      14.656  11.535  15.669  0.00  0.00    -0.017 C 
ATOM     27  C   UNL     1      14.967  11.743  17.167  0.00  0.00    +0.012 C 
ATOM     28  C   UNL     1      14.138  12.878  15.115  0.00  0.00    +0.012 C 
BRANCH  22  26
ATOM     26  C   UNL     1      15.949  11.168  14.903  0.00  0.00    +0.127 C 
BRANCH  26  31
ATOM      4  O   UNL     1      16.482  12.799  13.194  0.00  0.00    -0.251 OA
ATOM     31  C   UNL     1      16.024  11.703  13.489  0.00  0.00    +0.305 C 
BRANCH  31   2
ATOM      2  O   UNL     1      15.518  10.840  12.572  0.00  0.00    -0.481 OA
ATOM     37  H   UNL     1      14.540  10.897  12.517  0.00  0.00    +0.295 HD
ENDBRANCH  31   2
ENDBRANCH  26  31
ENDBRANCH  22  26
ENDBRANCH  23  22
ENDBRANCH  21  23
ENDBRANCH  15   5
ENDBRANCH   9  15
BRANCH  11  16
ATOM     16  C   UNL     1      12.811  10.574  21.061  0.00  0.00    +0.082 C 
BRANCH  16  20
ATOM      6  N   UNL     1      13.319  11.897  23.123  0.00  0.00    -0.342 N 
ATOM      7  N   UNL     1      11.167  11.703  22.599  0.00  0.00    -0.232 NA
ATOM     20  C   UNL     1      12.395  11.389  22.251  0.00  0.00    +0.109 A 
ATOM     24  C   UNL     1      12.641  12.586  24.096  0.00  0.00    +0.070 A 
ATOM     25  C   UNL     1      11.301  12.450  23.747  0.00  0.00    +0.089 A 
ATOM     29  C   UNL     1      13.073  13.295  25.217  0.00  0.00    +0.073 A 
ATOM     30  C   UNL     1      10.319  13.049  24.554  0.00  0.00    +0.033 A 
ATOM     32  C   UNL     1      12.083  13.886  26.009  0.00  0.00    +0.122 A 
ATOM     33  C   UNL     1      10.729  13.767  25.685  0.00  0.00    +0.048 A 
ATOM     36  H   UNL     1      14.322  11.785  23.063  0.00  0.00    +0.167 HD
BRANCH  32   3
ATOM      3  O   UNL     1      12.448  14.590  27.118  0.00  0.00    -0.495 OA
ATOM     34  C   UNL     1      13.722  14.292  27.683  0.00  0.00    +0.277 C 
ENDBRANCH  32   3
ENDBRANCH  16  20
ENDBRANCH  11  16
TORSDOF 11
ENDMDL
