MODEL 1
REMARK VINA RESULT:      -5.4      0.000      0.000
REMARK  Name = 75537098
REMARK  3 active torsions:
REMARK  status: ('A' for Active; 'I' for Inactive)
REMARK    1  A    between atoms: N_3  and  C_11
REMARK    2  A    between atoms: N_4  and  C_12
REMARK    3  A    between atoms: C_11  and  C_13
REMARK                            x       y       z     vdW  Elec       q    Type
REMARK                         _______ _______ _______ _____ _____    ______ ____
ROOT
ATOM      1  O   UNL     1      20.601   6.041  20.427  0.00  0.00    -0.252 OA
ATOM      2  N   UNL     1      18.340   6.657  20.590  0.00  0.00    -0.278 N 
ATOM      3  N   UNL     1      15.694   7.167  19.785  0.00  0.00    -0.295 NA
ATOM      4  N   UNL     1      19.868   7.934  21.629  0.00  0.00    -0.287 N 
ATOM      5  C   UNL     1      17.560   7.636  21.319  0.00  0.00    +0.109 C 
ATOM      6  C   UNL     1      16.488   8.241  20.415  0.00  0.00    +0.109 C 
ATOM      7  C   UNL     1      18.607   8.626  21.827  0.00  0.00    +0.132 C 
ATOM      8  C   UNL     1      17.657   5.643  19.814  0.00  0.00    +0.125 C 
ATOM      9  C   UNL     1      16.553   6.285  18.969  0.00  0.00    +0.104 C 
ATOM     10  C   UNL     1      19.714   6.780  20.834  0.00  0.00    +0.305 C 
ATOM     12  C   UNL     1      21.125   8.486  22.083  0.00  0.00    +0.133 C 
ENDROOT
BRANCH   3  11
ATOM     11  C   UNL     1      14.626   7.736  18.966  0.00  0.00    +0.119 C 
BRANCH  11  13
ATOM     13  C   UNL     1      13.303   7.733  19.685  0.00  0.00    -0.033 A 
ATOM     14  C   UNL     1      12.279   8.582  19.267  0.00  0.00    +0.005 A 
ATOM     15  C   UNL     1      13.102   6.880  20.771  0.00  0.00    +0.005 A 
ATOM     16  C   UNL     1      11.053   8.579  19.933  0.00  0.00    +0.000 A 
ATOM     17  C   UNL     1      11.877   6.877  21.438  0.00  0.00    +0.000 A 
ATOM     18  C   UNL     1      10.853   7.726  21.019  0.00  0.00    +0.000 A 
ENDBRANCH  11  13
ENDBRANCH   3  11
TORSDOF 2
ENDMDL
MODEL 2
REMARK VINA RESULT:      -5.3      3.057      4.165
REMARK  Name = 75537098
REMARK  3 active torsions:
REMARK  status: ('A' for Active; 'I' for Inactive)
REMARK    1  A    between atoms: N_3  and  C_11
REMARK    2  A    between atoms: N_4  and  C_12
REMARK    3  A    between atoms: C_11  and  C_13
REMARK                            x       y       z     vdW  Elec       q    Type
REMARK                         _______ _______ _______ _____ _____    ______ ____
ROOT
ATOM      1  O   UNL     1      16.283   5.811  19.038  0.00  0.00    -0.252 OA
ATOM      2  N   UNL     1      14.832   7.274  20.167  0.00  0.00    -0.278 N 
ATOM      3  N   UNL     1      12.764   9.140  20.554  0.00  0.00    -0.295 NA
ATOM      4  N   UNL     1      17.013   7.313  20.705  0.00  0.00    -0.287 N 
ATOM      5  C   UNL     1      14.914   8.193  21.284  0.00  0.00    +0.109 C 
ATOM      6  C   UNL     1      14.139   9.472  20.977  0.00  0.00    +0.109 C 
ATOM      7  C   UNL     1      16.417   8.384  21.485  0.00  0.00    +0.132 C 
ATOM      8  C   UNL     1      13.541   6.990  19.577  0.00  0.00    +0.125 C 
ATOM      9  C   UNL     1      12.775   8.295  19.342  0.00  0.00    +0.104 C 
ATOM     10  C   UNL     1      16.067   6.685  19.868  0.00  0.00    +0.305 C 
ATOM     12  C   UNL     1      18.437   7.063  20.707  0.00  0.00    +0.133 C 
ENDROOT
BRANCH   3  11
ATOM     11  C   UNL     1      11.994  10.360  20.316  0.00  0.00    +0.119 C 
BRANCH  11  13
ATOM     13  C   UNL     1      11.606  11.038  21.603  0.00  0.00    -0.033 A 
ATOM     14  C   UNL     1      11.166  10.278  22.687  0.00  0.00    +0.005 A 
ATOM     15  C   UNL     1      11.686  12.427  21.712  0.00  0.00    +0.005 A 
ATOM     16  C   UNL     1      10.806  10.906  23.879  0.00  0.00    +0.000 A 
ATOM     17  C   UNL     1      11.325  13.055  22.904  0.00  0.00    +0.000 A 
ATOM     18  C   UNL     1      10.886  12.295  23.987  0.00  0.00    +0.000 A 
ENDBRANCH  11  13
ENDBRANCH   3  11
TORSDOF 2
ENDMDL
MODEL 3
REMARK VINA RESULT:      -5.3      4.115      6.759
REMARK  Name = 75537098
REMARK  3 active torsions:
REMARK  status: ('A' for Active; 'I' for Inactive)
REMARK    1  A    between atoms: N_3  and  C_11
REMARK    2  A    between atoms: N_4  and  C_12
REMARK    3  A    between atoms: C_11  and  C_13
REMARK                            x       y       z     vdW  Elec       q    Type
REMARK                         _______ _______ _______ _____ _____    ______ ____
ROOT
ATOM      1  O   UNL     1      11.975  13.230  20.364  0.00  0.00    -0.252 OA
ATOM      2  N   UNL     1      13.210  11.312  20.924  0.00  0.00    -0.278 N 
ATOM      3  N   UNL     1      14.406   8.783  20.635  0.00  0.00    -0.295 NA
ATOM      4  N   UNL     1      11.768  12.129  22.440  0.00  0.00    -0.287 N 
ATOM      5  C   UNL     1      13.419  10.495  22.101  0.00  0.00    +0.109 C 
ATOM      6  C   UNL     1      13.437   9.015  21.724  0.00  0.00    +0.109 C 
ATOM      7  C   UNL     1      12.282  10.908  23.035  0.00  0.00    +0.132 C 
ATOM      8  C   UNL     1      14.009  11.068  19.741  0.00  0.00    +0.125 C 
ATOM      9  C   UNL     1      14.048   9.569  19.436  0.00  0.00    +0.104 C 
ATOM     10  C   UNL     1      12.283  12.339  21.144  0.00  0.00    +0.305 C 
ATOM     12  C   UNL     1      10.736  12.917  23.078  0.00  0.00    +0.133 C 
ENDROOT
BRANCH   3  11
ATOM     11  C   UNL     1      14.475   7.360  20.308  0.00  0.00    +0.119 C 
BRANCH  11  13
ATOM     13  C   UNL     1      15.896   6.871  20.226  0.00  0.00    -0.033 A 
ATOM     14  C   UNL     1      16.324   6.154  19.109  0.00  0.00    +0.005 A 
ATOM     15  C   UNL     1      16.786   7.135  21.268  0.00  0.00    +0.005 A 
ATOM     16  C   UNL     1      17.642   5.701  19.032  0.00  0.00    +0.000 A 
ATOM     17  C   UNL     1      18.103   6.682  21.192  0.00  0.00    +0.000 A 
ATOM     18  C   UNL     1      18.531   5.965  20.075  0.00  0.00    +0.000 A 
ENDBRANCH  11  13
ENDBRANCH   3  11
TORSDOF 2
ENDMDL
MODEL 4
REMARK VINA RESULT:      -5.2     27.177     28.594
REMARK  Name = 75537098
REMARK  3 active torsions:
REMARK  status: ('A' for Active; 'I' for Inactive)
REMARK    1  A    between atoms: N_3  and  C_11
REMARK    2  A    between atoms: N_4  and  C_12
REMARK    3  A    between atoms: C_11  and  C_13
REMARK                            x       y       z     vdW  Elec       q    Type
REMARK                         _______ _______ _______ _____ _____    ______ ____
ROOT
ATOM      1  O   UNL     1      -4.805 -10.736  18.245  0.00  0.00    -0.252 OA
ATOM      2  N   UNL     1      -4.490 -11.011  15.933  0.00  0.00    -0.278 N 
ATOM      3  N   UNL     1      -3.192 -10.974  13.438  0.00  0.00    -0.295 NA
ATOM      4  N   UNL     1      -6.412 -10.090  16.642  0.00  0.00    -0.287 N 
ATOM      5  C   UNL     1      -5.282 -10.854  14.731  0.00  0.00    +0.109 C 
ATOM      6  C   UNL     1      -4.446 -10.217  13.623  0.00  0.00    +0.109 C 
ATOM      7  C   UNL     1      -6.479 -10.024  15.192  0.00  0.00    +0.132 C 
ATOM      8  C   UNL     1      -3.174 -11.609  15.841  0.00  0.00    +0.125 C 
ATOM      9  C   UNL     1      -2.395 -10.984  14.682  0.00  0.00    +0.104 C 
ATOM     10  C   UNL     1      -5.188 -10.631  17.087  0.00  0.00    +0.305 C 
ATOM     12  C   UNL     1      -7.438  -9.516  17.484  0.00  0.00    +0.133 C 
ENDROOT
BRANCH   3  11
ATOM     11  C   UNL     1      -2.412 -10.408  12.338  0.00  0.00    +0.119 C 
BRANCH  11  13
ATOM     13  C   UNL     1      -3.148 -10.492  11.028  0.00  0.00    -0.033 A 
ATOM     14  C   UNL     1      -3.548 -11.731  10.530  0.00  0.00    +0.005 A 
ATOM     15  C   UNL     1      -3.431  -9.328  10.311  0.00  0.00    +0.005 A 
ATOM     16  C   UNL     1      -4.231 -11.809   9.315  0.00  0.00    +0.000 A 
ATOM     17  C   UNL     1      -4.113  -9.405   9.097  0.00  0.00    +0.000 A 
ATOM     18  C   UNL     1      -4.513 -10.645   8.599  0.00  0.00    +0.000 A 
ENDBRANCH  11  13
ENDBRANCH   3  11
TORSDOF 2
ENDMDL
MODEL 5
REMARK VINA RESULT:      -5.2     32.881     33.818
REMARK  Name = 75537098
REMARK  3 active torsions:
REMARK  status: ('A' for Active; 'I' for Inactive)
REMARK    1  A    between atoms: N_3  and  C_11
REMARK    2  A    between atoms: N_4  and  C_12
REMARK    3  A    between atoms: C_11  and  C_13
REMARK                            x       y       z     vdW  Elec       q    Type
REMARK                         _______ _______ _______ _____ _____    ______ ____
ROOT
ATOM      1  O   UNL     1     -17.147   1.896  22.553  0.00  0.00    -0.252 OA
ATOM      2  N   UNL     1     -16.529   2.309  24.782  0.00  0.00    -0.278 N 
ATOM      3  N   UNL     1     -16.636   2.237  27.592  0.00  0.00    -0.295 NA
ATOM      4  N   UNL     1     -16.453   4.015  23.324  0.00  0.00    -0.287 N 
ATOM      5  C   UNL     1     -15.955   3.405  25.535  0.00  0.00    +0.109 C 
ATOM      6  C   UNL     1     -16.646   3.537  26.891  0.00  0.00    +0.109 C 
ATOM      7  C   UNL     1     -16.123   4.608  24.608  0.00  0.00    +0.132 C 
ATOM      8  C   UNL     1     -16.703   1.023  25.424  0.00  0.00    +0.125 C 
ATOM      9  C   UNL     1     -17.342   1.207  26.803  0.00  0.00    +0.104 C 
ATOM     10  C   UNL     1     -16.755   2.643  23.441  0.00  0.00    +0.305 C 
ATOM     12  C   UNL     1     -16.591   4.812  22.125  0.00  0.00    +0.133 C 
ENDROOT
BRANCH   3  11
ATOM     11  C   UNL     1     -17.240   2.366  28.916  0.00  0.00    +0.119 C 
BRANCH  11  13
ATOM     13  C   UNL     1     -16.281   1.982  30.011  0.00  0.00    -0.033 A 
ATOM     14  C   UNL     1     -15.818   0.670  30.104  0.00  0.00    +0.005 A 
ATOM     15  C   UNL     1     -15.855   2.939  30.933  0.00  0.00    +0.005 A 
ATOM     16  C   UNL     1     -14.929   0.313  31.118  0.00  0.00    +0.000 A 
ATOM     17  C   UNL     1     -14.967   2.583  31.948  0.00  0.00    +0.000 A 
ATOM     18  C   UNL     1     -14.503   1.271  32.041  0.00  0.00    +0.000 A 
ENDBRANCH  11  13
ENDBRANCH   3  11
TORSDOF 2
ENDMDL
MODEL 6
REMARK VINA RESULT:      -5.0     28.902     30.950
REMARK  Name = 75537098
REMARK  3 active torsions:
REMARK  status: ('A' for Active; 'I' for Inactive)
REMARK    1  A    between atoms: N_3  and  C_11
REMARK    2  A    between atoms: N_4  and  C_12
REMARK    3  A    between atoms: C_11  and  C_13
REMARK                            x       y       z     vdW  Elec       q    Type
REMARK                         _______ _______ _______ _____ _____    ______ ____
ROOT
ATOM      1  O   UNL     1     -12.397  -8.137  13.245  0.00  0.00    -0.252 OA
ATOM      2  N   UNL     1     -10.661  -8.231  14.826  0.00  0.00    -0.278 N 
ATOM      3  N   UNL     1      -8.997  -9.275  16.837  0.00  0.00    -0.295 NA
ATOM      4  N   UNL     1     -11.910  -6.366  14.725  0.00  0.00    -0.287 N 
ATOM      5  C   UNL     1     -10.030  -7.320  15.759  0.00  0.00    +0.109 C 
ATOM      6  C   UNL     1      -9.747  -8.027  17.082  0.00  0.00    +0.109 C 
ATOM      7  C   UNL     1     -11.015  -6.155  15.849  0.00  0.00    +0.132 C 
ATOM      8  C   UNL     1     -10.089  -9.544  14.621  0.00  0.00    +0.125 C 
ATOM      9  C   UNL     1      -9.766 -10.191  15.971  0.00  0.00    +0.104 C 
ATOM     10  C   UNL     1     -11.736  -7.641  14.148  0.00  0.00    +0.305 C 
ATOM     12  C   UNL     1     -12.942  -5.415  14.378  0.00  0.00    +0.133 C 
ENDROOT
BRANCH   3  11
ATOM     11  C   UNL     1      -8.667  -9.929  18.103  0.00  0.00    +0.119 C 
BRANCH  11  13
ATOM     13  C   UNL     1      -7.222 -10.347  18.160  0.00  0.00    -0.033 A 
ATOM     14  C   UNL     1      -6.368 -10.053  17.097  0.00  0.00    +0.005 A 
ATOM     15  C   UNL     1      -6.737 -11.029  19.276  0.00  0.00    +0.005 A 
ATOM     16  C   UNL     1      -5.029 -10.440  17.149  0.00  0.00    +0.000 A 
ATOM     17  C   UNL     1      -5.398 -11.417  19.328  0.00  0.00    +0.000 A 
ATOM     18  C   UNL     1      -4.544 -11.123  18.266  0.00  0.00    +0.000 A 
ENDBRANCH  11  13
ENDBRANCH   3  11
TORSDOF 2
ENDMDL
MODEL 7
REMARK VINA RESULT:      -4.9     28.234     31.162
REMARK  Name = 75537098
REMARK  3 active torsions:
REMARK  status: ('A' for Active; 'I' for Inactive)
REMARK    1  A    between atoms: N_3  and  C_11
REMARK    2  A    between atoms: N_4  and  C_12
REMARK    3  A    between atoms: C_11  and  C_13
REMARK                            x       y       z     vdW  Elec       q    Type
REMARK                         _______ _______ _______ _____ _____    ______ ____
ROOT
ATOM      1  O   UNL     1     -18.508   4.515  22.411  0.00  0.00    -0.252 OA
ATOM      2  N   UNL     1     -16.319   5.337  22.644  0.00  0.00    -0.278 N 
ATOM      3  N   UNL     1     -13.788   6.309  21.900  0.00  0.00    -0.295 NA
ATOM      4  N   UNL     1     -16.946   3.602  23.925  0.00  0.00    -0.287 N 
ATOM      5  C   UNL     1     -15.193   5.111  23.526  0.00  0.00    +0.109 C 
ATOM      6  C   UNL     1     -13.890   5.092  22.729  0.00  0.00    +0.109 C 
ATOM      7  C   UNL     1     -15.538   3.797  24.225  0.00  0.00    +0.132 C 
ATOM      8  C   UNL     1     -16.262   6.419  21.684  0.00  0.00    +0.125 C 
ATOM      9  C   UNL     1     -14.917   6.398  20.952  0.00  0.00    +0.104 C 
ATOM     10  C   UNL     1     -17.400   4.492  22.930  0.00  0.00    +0.305 C 
ATOM     12  C   UNL     1     -17.707   2.512  24.495  0.00  0.00    +0.133 C 
ENDROOT
BRANCH   3  11
ATOM     11  C   UNL     1     -12.516   6.330  21.179  0.00  0.00    +0.119 C 
BRANCH  11  13
ATOM     13  C   UNL     1     -12.106   7.730  20.805  0.00  0.00    -0.033 A 
ATOM     14  C   UNL     1     -12.681   8.822  21.453  0.00  0.00    +0.005 A 
ATOM     15  C   UNL     1     -11.149   7.934  19.810  0.00  0.00    +0.005 A 
ATOM     16  C   UNL     1     -12.301  10.119  21.107  0.00  0.00    +0.000 A 
ATOM     17  C   UNL     1     -10.769   9.230  19.463  0.00  0.00    +0.000 A 
ATOM     18  C   UNL     1     -11.344  10.323  20.111  0.00  0.00    +0.000 A 
ENDBRANCH  11  13
ENDBRANCH   3  11
TORSDOF 2
ENDMDL
MODEL 8
REMARK VINA RESULT:      -4.9     27.343     29.685
REMARK  Name = 75537098
REMARK  3 active torsions:
REMARK  status: ('A' for Active; 'I' for Inactive)
REMARK    1  A    between atoms: N_3  and  C_11
REMARK    2  A    between atoms: N_4  and  C_12
REMARK    3  A    between atoms: C_11  and  C_13
REMARK                            x       y       z     vdW  Elec       q    Type
REMARK                         _______ _______ _______ _____ _____    ______ ____
ROOT
ATOM      1  O   UNL     1      -4.214 -11.752  18.767  0.00  0.00    -0.252 OA
ATOM      2  N   UNL     1      -6.053 -10.473  18.056  0.00  0.00    -0.278 N 
ATOM      3  N   UNL     1      -8.734  -9.760  17.598  0.00  0.00    -0.295 NA
ATOM      4  N   UNL     1      -4.289 -10.659  16.677  0.00  0.00    -0.287 N 
ATOM      5  C   UNL     1      -6.367  -9.600  16.945  0.00  0.00    +0.109 C 
ATOM      6  C   UNL     1      -7.795  -9.848  16.462  0.00  0.00    +0.109 C 
ATOM      7  C   UNL     1      -5.278  -9.912  15.919  0.00  0.00    +0.132 C 
ATOM      8  C   UNL     1      -6.982 -10.576  19.161  0.00  0.00    +0.125 C 
ATOM      9  C   UNL     1      -8.406 -10.764  18.631  0.00  0.00    +0.104 C 
ATOM     10  C   UNL     1      -4.779 -11.047  17.941  0.00  0.00    +0.305 C 
ATOM     12  C   UNL     1      -3.026 -11.063  16.100  0.00  0.00    +0.133 C 
ENDROOT
BRANCH   3  11
ATOM     11  C   UNL     1     -10.110  -9.935  17.137  0.00  0.00    +0.119 C 
BRANCH  11  13
ATOM     13  C   UNL     1     -10.626  -8.710  16.431  0.00  0.00    -0.033 A 
ATOM     14  C   UNL     1     -10.607  -7.474  17.076  0.00  0.00    +0.005 A 
ATOM     15  C   UNL     1     -11.123  -8.811  15.132  0.00  0.00    +0.005 A 
ATOM     16  C   UNL     1     -11.085  -6.337  16.423  0.00  0.00    +0.000 A 
ATOM     17  C   UNL     1     -11.601  -7.675  14.478  0.00  0.00    +0.000 A 
ATOM     18  C   UNL     1     -11.583  -6.439  15.122  0.00  0.00    +0.000 A 
ENDBRANCH  11  13
ENDBRANCH   3  11
TORSDOF 2
ENDMDL
MODEL 9
REMARK VINA RESULT:      -4.9     16.610     18.582
REMARK  Name = 75537098
REMARK  3 active torsions:
REMARK  status: ('A' for Active; 'I' for Inactive)
REMARK    1  A    between atoms: N_3  and  C_11
REMARK    2  A    between atoms: N_4  and  C_12
REMARK    3  A    between atoms: C_11  and  C_13
REMARK                            x       y       z     vdW  Elec       q    Type
REMARK                         _______ _______ _______ _____ _____    ______ ____
ROOT
ATOM      1  O   UNL     1      10.735   8.948   6.283  0.00  0.00    -0.252 OA
ATOM      2  N   UNL     1      11.018   6.825   5.318  0.00  0.00    -0.278 N 
ATOM      3  N   UNL     1      11.259   4.861   3.319  0.00  0.00    -0.295 NA
ATOM      4  N   UNL     1       9.634   7.018   7.077  0.00  0.00    -0.287 N 
ATOM      5  C   UNL     1      10.619   5.465   5.617  0.00  0.00    +0.109 C 
ATOM      6  C   UNL     1      10.198   4.742   4.339  0.00  0.00    +0.109 C 
ATOM      7  C   UNL     1       9.510   5.634   6.656  0.00  0.00    +0.132 C 
ATOM      8  C   UNL     1      11.945   7.068   4.233  0.00  0.00    +0.125 C 
ATOM      9  C   UNL     1      11.519   6.278   2.993  0.00  0.00    +0.104 C 
ATOM     10  C   UNL     1      10.497   7.748   6.234  0.00  0.00    +0.305 C 
ATOM     12  C   UNL     1       8.830   7.570   8.145  0.00  0.00    +0.133 C 
ENDROOT
BRANCH   3  11
ATOM     11  C   UNL     1      10.893   4.121   2.113  0.00  0.00    +0.119 C 
BRANCH  11  13
ATOM     13  C   UNL     1      12.040   4.023   1.144  0.00  0.00    -0.033 A 
ATOM     14  C   UNL     1      13.302   3.635   1.594  0.00  0.00    +0.005 A 
ATOM     15  C   UNL     1      11.841   4.319  -0.205  0.00  0.00    +0.005 A 
ATOM     16  C   UNL     1      14.366   3.544   0.696  0.00  0.00    +0.000 A 
ATOM     17  C   UNL     1      12.905   4.229  -1.103  0.00  0.00    +0.000 A 
ATOM     18  C   UNL     1      14.166   3.842  -0.653  0.00  0.00    +0.000 A 
ENDBRANCH  11  13
ENDBRANCH   3  11
TORSDOF 2
ENDMDL
MODEL 10
REMARK VINA RESULT:      -4.9     16.977     18.655
REMARK  Name = 75537098
REMARK  3 active torsions:
REMARK  status: ('A' for Active; 'I' for Inactive)
REMARK    1  A    between atoms: N_3  and  C_11
REMARK    2  A    between atoms: N_4  and  C_12
REMARK    3  A    between atoms: C_11  and  C_13
REMARK                            x       y       z     vdW  Elec       q    Type
REMARK                         _______ _______ _______ _____ _____    ______ ____
ROOT
ATOM      1  O   UNL     1      13.802   6.580  -0.101  0.00  0.00    -0.252 OA
ATOM      2  N   UNL     1      11.962   5.961   1.223  0.00  0.00    -0.278 N 
ATOM      3  N   UNL     1      10.486   5.316   3.528  0.00  0.00    -0.295 NA
ATOM      4  N   UNL     1      12.312   4.851  -0.698  0.00  0.00    -0.287 N 
ATOM      5  C   UNL     1      10.822   5.076   1.102  0.00  0.00    +0.109 C 
ATOM      6  C   UNL     1      10.576   4.344   2.420  0.00  0.00    +0.109 C 
ATOM      7  C   UNL     1      11.187   4.175  -0.076  0.00  0.00    +0.132 C 
ATOM      8  C   UNL     1      12.048   6.856   2.358  0.00  0.00    +0.125 C 
ATOM      9  C   UNL     1      11.736   6.094   3.649  0.00  0.00    +0.104 C 
ATOM     10  C   UNL     1      12.814   5.889   0.113  0.00  0.00    +0.305 C 
ATOM     12  C   UNL     1      12.904   4.380  -1.931  0.00  0.00    +0.133 C 
ENDROOT
BRANCH   3  11
ATOM     11  C   UNL     1      10.190   4.631   4.785  0.00  0.00    +0.119 C 
BRANCH  11  13
ATOM     13  C   UNL     1       9.669   5.578   5.832  0.00  0.00    -0.033 A 
ATOM     14  C   UNL     1       8.713   6.535   5.494  0.00  0.00    +0.005 A 
ATOM     15  C   UNL     1      10.143   5.499   7.142  0.00  0.00    +0.005 A 
ATOM     16  C   UNL     1       8.230   7.414   6.464  0.00  0.00    +0.000 A 
ATOM     17  C   UNL     1       9.661   6.377   8.113  0.00  0.00    +0.000 A 
ATOM     18  C   UNL     1       8.705   7.334   7.774  0.00  0.00    +0.000 A 
ENDBRANCH  11  13
ENDBRANCH   3  11
TORSDOF 2
ENDMDL
