MODEL 1
REMARK VINA RESULT:      -5.9      0.000      0.000
REMARK  Name = 75537107
REMARK  3 active torsions:
REMARK  status: ('A' for Active; 'I' for Inactive)
REMARK    1  A    between atoms: N_3  and  C_8
REMARK    2  A    between atoms: N_5  and  C_18
REMARK    3  A    between atoms: C_19  and  C_20
REMARK                            x       y       z     vdW  Elec       q    Type
REMARK                         _______ _______ _______ _____ _____    ______ ____
ROOT
ATOM      1  O   UNL     1      19.461   5.236  20.102  0.00  0.00    -0.252 OA
ATOM      3  N   UNL     1      15.212   7.959  20.646  0.00  0.00    -0.296 NA
ATOM      4  N   UNL     1      17.695   6.641  20.753  0.00  0.00    -0.278 N 
ATOM      5  N   UNL     1      19.796   7.408  20.958  0.00  0.00    -0.287 N 
ATOM      7  C   UNL     1      17.551   7.924  21.410  0.00  0.00    +0.109 C 
ATOM      9  C   UNL     1      16.457   8.748  20.734  0.00  0.00    +0.108 C 
ATOM     10  C   UNL     1      15.426   6.726  19.860  0.00  0.00    +0.104 C 
ATOM     11  C   UNL     1      16.514   5.848  20.481  0.00  0.00    +0.125 C 
ATOM     14  C   UNL     1      18.952   8.528  21.334  0.00  0.00    +0.132 C 
ATOM     17  C   UNL     1      19.037   6.292  20.551  0.00  0.00    +0.305 C 
ATOM     18  C   UNL     1      21.235   7.525  20.881  0.00  0.00    +0.133 C 
ENDROOT
BRANCH   3   8
ATOM      2  O   UNL     1      10.363   8.228  16.875  0.00  0.00    -0.276 OA
ATOM      6  N   UNL     1      12.176   9.180  17.972  0.00  0.00    -0.302 N 
ATOM      8  C   UNL     1      14.143   8.760  20.054  0.00  0.00    +0.060 C 
ATOM     12  C   UNL     1      12.845   7.942  19.996  0.00  0.00    +0.038 C 
ATOM     13  C   UNL     1      14.547   9.224  18.649  0.00  0.00    +0.038 C 
ATOM     15  C   UNL     1      11.738   8.727  19.293  0.00  0.00    +0.109 C 
ATOM     16  C   UNL     1      13.406   9.983  17.972  0.00  0.00    +0.109 C 
ATOM     19  C   UNL     1      11.413   8.874  16.845  0.00  0.00    +0.212 C 
ATOM     20  C   UNL     1      11.933   9.375  15.522  0.00  0.00    +0.109 C 
ENDBRANCH   3   8
TORSDOF 1
ENDMDL
MODEL 2
REMARK VINA RESULT:      -5.8      1.470      2.051
REMARK  Name = 75537107
REMARK  3 active torsions:
REMARK  status: ('A' for Active; 'I' for Inactive)
REMARK    1  A    between atoms: N_3  and  C_8
REMARK    2  A    between atoms: N_5  and  C_18
REMARK    3  A    between atoms: C_19  and  C_20
REMARK                            x       y       z     vdW  Elec       q    Type
REMARK                         _______ _______ _______ _____ _____    ______ ____
ROOT
ATOM      1  O   UNL     1      21.818   6.610  20.075  0.00  0.00    -0.252 OA
ATOM      3  N   UNL     1      16.933   7.290  21.273  0.00  0.00    -0.296 NA
ATOM      4  N   UNL     1      19.723   6.996  21.064  0.00  0.00    -0.278 N 
ATOM      5  N   UNL     1      21.423   8.357  21.610  0.00  0.00    -0.287 N 
ATOM      7  C   UNL     1      19.182   7.855  22.097  0.00  0.00    +0.109 C 
ATOM      9  C   UNL     1      17.819   8.401  21.675  0.00  0.00    +0.108 C 
ATOM     10  C   UNL     1      17.510   6.541  20.139  0.00  0.00    +0.104 C 
ATOM     11  C   UNL     1      18.883   5.963  20.491  0.00  0.00    +0.125 C 
ATOM     14  C   UNL     1      20.267   8.913  22.291  0.00  0.00    +0.132 C 
ATOM     17  C   UNL     1      21.081   7.238  20.824  0.00  0.00    +0.305 C 
ATOM     18  C   UNL     1      22.716   9.002  21.645  0.00  0.00    +0.133 C 
ENDROOT
BRANCH   3   8
ATOM      2  O   UNL     1      12.129   7.150  17.440  0.00  0.00    -0.276 OA
ATOM      6  N   UNL     1      13.509   8.214  18.976  0.00  0.00    -0.302 N 
ATOM      8  C   UNL     1      15.607   7.797  20.925  0.00  0.00    +0.060 C 
ATOM     12  C   UNL     1      14.714   6.646  20.446  0.00  0.00    +0.038 C 
ATOM     13  C   UNL     1      15.723   8.873  19.838  0.00  0.00    +0.038 C 
ATOM     15  C   UNL     1      13.353   7.167  19.987  0.00  0.00    +0.109 C 
ATOM     16  C   UNL     1      14.342   9.350  19.389  0.00  0.00    +0.109 C 
ATOM     19  C   UNL     1      12.853   8.099  17.750  0.00  0.00    +0.212 C 
ATOM     20  C   UNL     1      13.066   9.218  16.763  0.00  0.00    +0.109 C 
ENDBRANCH   3   8
TORSDOF 1
ENDMDL
MODEL 3
REMARK VINA RESULT:      -5.8     26.138     28.169
REMARK  Name = 75537107
REMARK  3 active torsions:
REMARK  status: ('A' for Active; 'I' for Inactive)
REMARK    1  A    between atoms: N_3  and  C_8
REMARK    2  A    between atoms: N_5  and  C_18
REMARK    3  A    between atoms: C_19  and  C_20
REMARK                            x       y       z     vdW  Elec       q    Type
REMARK                         _______ _______ _______ _____ _____    ______ ____
ROOT
ATOM      1  O   UNL     1     -10.476   9.553  15.098  0.00  0.00    -0.252 OA
ATOM      3  N   UNL     1     -11.188   8.063  19.897  0.00  0.00    -0.296 NA
ATOM      4  N   UNL     1     -10.440   9.144  17.411  0.00  0.00    -0.278 N 
ATOM      5  N   UNL     1     -10.208  11.261  16.702  0.00  0.00    -0.287 N 
ATOM      7  C   UNL     1     -10.177   9.903  18.615  0.00  0.00    +0.109 C 
ATOM      9  C   UNL     1     -11.173   9.527  19.711  0.00  0.00    +0.108 C 
ATOM     10  C   UNL     1     -11.580   7.376  18.649  0.00  0.00    +0.104 C 
ATOM     11  C   UNL     1     -10.622   7.710  17.503  0.00  0.00    +0.125 C 
ATOM     14  C   UNL     1     -10.251  11.357  18.150  0.00  0.00    +0.132 C 
ATOM     17  C   UNL     1     -10.383   9.936  16.257  0.00  0.00    +0.305 C 
ATOM     18  C   UNL     1     -10.147  12.435  15.858  0.00  0.00    +0.133 C 
ENDROOT
BRANCH   3   8
ATOM      2  O   UNL     1     -15.768   4.482  21.898  0.00  0.00    -0.276 OA
ATOM      6  N   UNL     1     -14.541   6.454  21.905  0.00  0.00    -0.302 N 
ATOM      8  C   UNL     1     -12.094   7.697  20.984  0.00  0.00    +0.060 C 
ATOM     12  C   UNL     1     -12.246   6.172  21.052  0.00  0.00    +0.038 C 
ATOM     13  C   UNL     1     -13.461   8.363  20.777  0.00  0.00    +0.038 C 
ATOM     15  C   UNL     1     -13.263   5.772  22.119  0.00  0.00    +0.109 C 
ATOM     16  C   UNL     1     -14.455   7.919  21.849  0.00  0.00    +0.109 C 
ATOM     19  C   UNL     1     -15.717   5.711  21.812  0.00  0.00    +0.212 C 
ATOM     20  C   UNL     1     -16.991   6.487  21.590  0.00  0.00    +0.109 C 
ENDBRANCH   3   8
TORSDOF 1
ENDMDL
MODEL 4
REMARK VINA RESULT:      -5.8     30.623     32.955
REMARK  Name = 75537107
REMARK  3 active torsions:
REMARK  status: ('A' for Active; 'I' for Inactive)
REMARK    1  A    between atoms: N_3  and  C_8
REMARK    2  A    between atoms: N_5  and  C_18
REMARK    3  A    between atoms: C_19  and  C_20
REMARK                            x       y       z     vdW  Elec       q    Type
REMARK                         _______ _______ _______ _____ _____    ______ ____
ROOT
ATOM      1  O   UNL     1     -15.866   0.724  28.336  0.00  0.00    -0.252 OA
ATOM      3  N   UNL     1     -15.882   4.252  31.985  0.00  0.00    -0.296 NA
ATOM      4  N   UNL     1     -15.825   1.990  30.315  0.00  0.00    -0.278 N 
ATOM      5  N   UNL     1     -14.331   0.330  30.083  0.00  0.00    -0.287 N 
ATOM      7  C   UNL     1     -15.137   1.941  31.588  0.00  0.00    +0.109 C 
ATOM      9  C   UNL     1     -14.718   3.345  32.021  0.00  0.00    +0.108 C 
ATOM     10  C   UNL     1     -16.448   4.329  30.623  0.00  0.00    +0.104 C 
ATOM     11  C   UNL     1     -16.890   2.953  30.122  0.00  0.00    +0.125 C 
ATOM     14  C   UNL     1     -13.981   0.974  31.337  0.00  0.00    +0.132 C 
ATOM     17  C   UNL     1     -15.403   0.980  29.440  0.00  0.00    +0.305 C 
ATOM     18  C   UNL     1     -13.544  -0.750  29.531  0.00  0.00    +0.133 C 
ENDROOT
BRANCH   3   8
ATOM      2  O   UNL     1     -13.311   9.696  30.739  0.00  0.00    -0.276 OA
ATOM      6  N   UNL     1     -13.906   7.982  32.189  0.00  0.00    -0.302 N 
ATOM      8  C   UNL     1     -15.505   5.583  32.455  0.00  0.00    +0.060 C 
ATOM     12  C   UNL     1     -15.793   6.626  31.366  0.00  0.00    +0.038 C 
ATOM     13  C   UNL     1     -14.020   5.605  32.839  0.00  0.00    +0.038 C 
ATOM     15  C   UNL     1     -15.317   8.012  31.800  0.00  0.00    +0.109 C 
ATOM     16  C   UNL     1     -13.578   7.012  33.242  0.00  0.00    +0.109 C 
ATOM     19  C   UNL     1     -13.004   8.864  31.596  0.00  0.00    +0.212 C 
ATOM     20  C   UNL     1     -11.569   8.769  32.051  0.00  0.00    +0.109 C 
ENDBRANCH   3   8
TORSDOF 1
ENDMDL
MODEL 5
REMARK VINA RESULT:      -5.7     26.632     28.577
REMARK  Name = 75537107
REMARK  3 active torsions:
REMARK  status: ('A' for Active; 'I' for Inactive)
REMARK    1  A    between atoms: N_3  and  C_8
REMARK    2  A    between atoms: N_5  and  C_18
REMARK    3  A    between atoms: C_19  and  C_20
REMARK                            x       y       z     vdW  Elec       q    Type
REMARK                         _______ _______ _______ _____ _____    ______ ____
ROOT
ATOM      1  O   UNL     1      -0.622 -13.642  13.714  0.00  0.00    -0.252 OA
ATOM      3  N   UNL     1      -3.867 -10.337  15.788  0.00  0.00    -0.296 NA
ATOM      4  N   UNL     1      -2.259 -12.038  14.230  0.00  0.00    -0.278 N 
ATOM      5  N   UNL     1      -2.768 -13.634  12.735  0.00  0.00    -0.287 N 
ATOM      7  C   UNL     1      -3.573 -11.675  13.744  0.00  0.00    +0.109 C 
ATOM      9  C   UNL     1      -4.500 -11.343  14.913  0.00  0.00    +0.108 C 
ATOM     10  C   UNL     1      -2.588 -10.839  16.330  0.00  0.00    +0.104 C 
ATOM     11  C   UNL     1      -1.607 -11.194  15.210  0.00  0.00    +0.125 C 
ATOM     14  C   UNL     1      -3.997 -12.882  12.909  0.00  0.00    +0.132 C 
ATOM     17  C   UNL     1      -1.739 -13.162  13.575  0.00  0.00    +0.305 C 
ATOM     18  C   UNL     1      -2.703 -14.813  11.900  0.00  0.00    +0.133 C 
ENDROOT
BRANCH   3   8
ATOM      2  O   UNL     1      -7.871 -12.144  20.089  0.00  0.00    -0.276 OA
ATOM      6  N   UNL     1      -7.017 -10.585  18.594  0.00  0.00    -0.302 N 
ATOM      8  C   UNL     1      -4.770  -9.969  16.876  0.00  0.00    +0.060 C 
ATOM     12  C   UNL     1      -4.653 -10.983  18.022  0.00  0.00    +0.038 C 
ATOM     13  C   UNL     1      -6.215  -9.904  16.363  0.00  0.00    +0.038 C 
ATOM     15  C   UNL     1      -5.658 -10.672  19.130  0.00  0.00    +0.109 C 
ATOM     16  C   UNL     1      -7.189  -9.615  17.505  0.00  0.00    +0.109 C 
ATOM     19  C   UNL     1      -8.033 -11.362  19.150  0.00  0.00    +0.212 C 
ATOM     20  C   UNL     1      -9.405 -11.217  18.540  0.00  0.00    +0.109 C 
ENDBRANCH   3   8
TORSDOF 1
ENDMDL
MODEL 6
REMARK VINA RESULT:      -5.7     26.730     28.721
REMARK  Name = 75537107
REMARK  3 active torsions:
REMARK  status: ('A' for Active; 'I' for Inactive)
REMARK    1  A    between atoms: N_3  and  C_8
REMARK    2  A    between atoms: N_5  and  C_18
REMARK    3  A    between atoms: C_19  and  C_20
REMARK                            x       y       z     vdW  Elec       q    Type
REMARK                         _______ _______ _______ _____ _____    ______ ____
ROOT
ATOM      1  O   UNL     1      -8.796 -10.510  18.474  0.00  0.00    -0.252 OA
ATOM      3  N   UNL     1      -4.699 -10.707  15.485  0.00  0.00    -0.296 NA
ATOM      4  N   UNL     1      -6.671 -10.698  17.490  0.00  0.00    -0.278 N 
ATOM      5  N   UNL     1      -7.281 -12.238  19.006  0.00  0.00    -0.287 N 
ATOM      7  C   UNL     1      -5.491 -11.518  17.669  0.00  0.00    +0.109 C 
ATOM      9  C   UNL     1      -4.906 -11.912  16.313  0.00  0.00    +0.108 C 
ATOM     10  C   UNL     1      -5.975  -9.998  15.258  0.00  0.00    +0.104 C 
ATOM     11  C   UNL     1      -6.620  -9.573  16.579  0.00  0.00    +0.125 C 
ATOM     14  C   UNL     1      -5.989 -12.686  18.519  0.00  0.00    +0.132 C 
ATOM     17  C   UNL     1      -7.718 -11.074  18.342  0.00  0.00    +0.305 C 
ATOM     18  C   UNL     1      -8.055 -13.014  19.949  0.00  0.00    +0.133 C 
ENDROOT
BRANCH   3   8
ATOM      2  O   UNL     1      -1.441  -8.948  10.577  0.00  0.00    -0.276 OA
ATOM      6  N   UNL     1      -3.005 -10.300  11.635  0.00  0.00    -0.302 N 
ATOM      8  C   UNL     1      -4.084 -11.067  14.209  0.00  0.00    +0.060 C 
ATOM     12  C   UNL     1      -2.710 -10.395  14.080  0.00  0.00    +0.038 C 
ATOM     13  C   UNL     1      -4.996 -10.650  13.048  0.00  0.00    +0.038 C 
ATOM     15  C   UNL     1      -2.091 -10.681  12.712  0.00  0.00    +0.109 C 
ATOM     16  C   UNL     1      -4.331 -10.929  11.701  0.00  0.00    +0.109 C 
ATOM     19  C   UNL     1      -2.573  -9.435  10.630  0.00  0.00    +0.212 C 
ATOM     20  C   UNL     1      -3.575  -9.091   9.557  0.00  0.00    +0.109 C 
ENDBRANCH   3   8
TORSDOF 1
ENDMDL
MODEL 7
REMARK VINA RESULT:      -5.6      2.731      7.462
REMARK  Name = 75537107
REMARK  3 active torsions:
REMARK  status: ('A' for Active; 'I' for Inactive)
REMARK    1  A    between atoms: N_3  and  C_8
REMARK    2  A    between atoms: N_5  and  C_18
REMARK    3  A    between atoms: C_19  and  C_20
REMARK                            x       y       z     vdW  Elec       q    Type
REMARK                         _______ _______ _______ _____ _____    ______ ____
ROOT
ATOM      1  O   UNL     1      11.000   9.544  23.091  0.00  0.00    -0.252 OA
ATOM      3  N   UNL     1      15.237   8.346  20.565  0.00  0.00    -0.296 NA
ATOM      4  N   UNL     1      12.748   9.201  21.560  0.00  0.00    -0.278 N 
ATOM      5  N   UNL     1      11.764  11.218  21.615  0.00  0.00    -0.287 N 
ATOM      7  C   UNL     1      13.357   9.932  20.468  0.00  0.00    +0.109 C 
ATOM      9  C   UNL     1      14.877   9.777  20.506  0.00  0.00    +0.108 C 
ATOM     10  C   UNL     1      14.669   7.710  21.772  0.00  0.00    +0.104 C 
ATOM     11  C   UNL     1      13.143   7.828  21.801  0.00  0.00    +0.125 C 
ATOM     14  C   UNL     1      12.851  11.360  20.662  0.00  0.00    +0.132 C 
ATOM     17  C   UNL     1      11.741   9.936  22.199  0.00  0.00    +0.305 C 
ATOM     18  C   UNL     1      10.930  12.336  21.998  0.00  0.00    +0.133 C 
ENDROOT
BRANCH   3   8
ATOM      2  O   UNL     1      20.265   5.919  23.138  0.00  0.00    -0.276 OA
ATOM      6  N   UNL     1      19.168   7.542  21.891  0.00  0.00    -0.302 N 
ATOM      8  C   UNL     1      16.689   8.186  20.542  0.00  0.00    +0.060 C 
ATOM     12  C   UNL     1      17.063   6.739  20.890  0.00  0.00    +0.038 C 
ATOM     13  C   UNL     1      17.343   9.161  21.529  0.00  0.00    +0.038 C 
ATOM     15  C   UNL     1      18.580   6.572  20.965  0.00  0.00    +0.109 C 
ATOM     16  C   UNL     1      18.855   8.945  21.592  0.00  0.00    +0.109 C 
ATOM     19  C   UNL     1      19.988   7.102  22.930  0.00  0.00    +0.212 C 
ATOM     20  C   UNL     1      20.553   8.163  23.840  0.00  0.00    +0.109 C 
ENDBRANCH   3   8
TORSDOF 1
ENDMDL
MODEL 8
REMARK VINA RESULT:      -5.6      3.180      8.636
REMARK  Name = 75537107
REMARK  3 active torsions:
REMARK  status: ('A' for Active; 'I' for Inactive)
REMARK    1  A    between atoms: N_3  and  C_8
REMARK    2  A    between atoms: N_5  and  C_18
REMARK    3  A    between atoms: C_19  and  C_20
REMARK                            x       y       z     vdW  Elec       q    Type
REMARK                         _______ _______ _______ _____ _____    ______ ____
ROOT
ATOM      1  O   UNL     1      14.681   6.347  19.675  0.00  0.00    -0.252 OA
ATOM      3  N   UNL     1      19.693   6.510  20.462  0.00  0.00    -0.296 NA
ATOM      4  N   UNL     1      16.941   6.888  20.020  0.00  0.00    -0.278 N 
ATOM      5  N   UNL     1      15.385   8.055  21.142  0.00  0.00    -0.287 N 
ATOM      7  C   UNL     1      17.689   7.915  20.716  0.00  0.00    +0.109 C 
ATOM      9  C   UNL     1      18.900   7.306  21.420  0.00  0.00    +0.108 C 
ATOM     10  C   UNL     1      18.883   5.415  19.890  0.00  0.00    +0.104 C 
ATOM     11  C   UNL     1      17.646   5.954  19.166  0.00  0.00    +0.125 C 
ATOM     14  C   UNL     1      16.655   8.548  21.646  0.00  0.00    +0.132 C 
ATOM     17  C   UNL     1      15.559   7.014  20.208  0.00  0.00    +0.305 C 
ATOM     18  C   UNL     1      14.121   8.504  21.681  0.00  0.00    +0.133 C 
ENDROOT
BRANCH   3   8
ATOM      2  O   UNL     1      25.459   4.447  19.913  0.00  0.00    -0.276 OA
ATOM      6  N   UNL     1      23.391   4.529  20.968  0.00  0.00    -0.302 N 
ATOM      8  C   UNL     1      20.886   5.973  21.112  0.00  0.00    +0.060 C 
ATOM     12  C   UNL     1      22.146   6.604  20.504  0.00  0.00    +0.038 C 
ATOM     13  C   UNL     1      20.926   4.446  20.961  0.00  0.00    +0.038 C 
ATOM     15  C   UNL     1      23.409   5.986  21.102  0.00  0.00    +0.109 C 
ATOM     16  C   UNL     1      22.214   3.871  21.550  0.00  0.00    +0.109 C 
ATOM     19  C   UNL     1      24.463   3.874  20.362  0.00  0.00    +0.212 C 
ATOM     20  C   UNL     1      24.368   2.373  20.261  0.00  0.00    +0.109 C 
ENDBRANCH   3   8
TORSDOF 1
ENDMDL
MODEL 9
REMARK VINA RESULT:      -5.6      2.076      2.881
REMARK  Name = 75537107
REMARK  3 active torsions:
REMARK  status: ('A' for Active; 'I' for Inactive)
REMARK    1  A    between atoms: N_3  and  C_8
REMARK    2  A    between atoms: N_5  and  C_18
REMARK    3  A    between atoms: C_19  and  C_20
REMARK                            x       y       z     vdW  Elec       q    Type
REMARK                         _______ _______ _______ _____ _____    ______ ____
ROOT
ATOM      1  O   UNL     1      22.051   6.868  20.435  0.00  0.00    -0.252 OA
ATOM      3  N   UNL     1      16.984   7.144  20.543  0.00  0.00    -0.296 NA
ATOM      4  N   UNL     1      19.770   7.131  20.931  0.00  0.00    -0.278 N 
ATOM      5  N   UNL     1      21.199   8.718  21.624  0.00  0.00    -0.287 N 
ATOM      7  C   UNL     1      18.956   8.034  21.717  0.00  0.00    +0.109 C 
ATOM      9  C   UNL     1      17.670   8.381  20.967  0.00  0.00    +0.108 C 
ATOM     10  C   UNL     1      17.847   6.343  19.651  0.00  0.00    +0.104 C 
ATOM     11  C   UNL     1      19.159   5.958  20.340  0.00  0.00    +0.125 C 
ATOM     14  C   UNL     1      19.884   9.217  21.985  0.00  0.00    +0.132 C 
ATOM     17  C   UNL     1      21.124   7.490  20.936  0.00  0.00    +0.305 C 
ATOM     18  C   UNL     1      22.398   9.499  21.832  0.00  0.00    +0.133 C 
ENDROOT
BRANCH   3   8
ATOM      2  O   UNL     1      11.657  10.212  20.642  0.00  0.00    -0.276 OA
ATOM      6  N   UNL     1      12.997   8.430  19.989  0.00  0.00    -0.302 N 
ATOM      8  C   UNL     1      15.724   7.464  19.877  0.00  0.00    +0.060 C 
ATOM     12  C   UNL     1      15.405   8.956  20.045  0.00  0.00    +0.038 C 
ATOM     13  C   UNL     1      14.590   6.606  20.453  0.00  0.00    +0.038 C 
ATOM     15  C   UNL     1      14.043   9.293  19.438  0.00  0.00    +0.109 C 
ATOM     16  C   UNL     1      13.244   6.991  19.839  0.00  0.00    +0.109 C 
ATOM     19  C   UNL     1      11.858   8.998  20.560  0.00  0.00    +0.212 C 
ATOM     20  C   UNL     1      10.828   8.041  21.106  0.00  0.00    +0.109 C 
ENDBRANCH   3   8
TORSDOF 1
ENDMDL
MODEL 10
REMARK VINA RESULT:      -5.6      2.811      3.561
REMARK  Name = 75537107
REMARK  3 active torsions:
REMARK  status: ('A' for Active; 'I' for Inactive)
REMARK    1  A    between atoms: N_3  and  C_8
REMARK    2  A    between atoms: N_5  and  C_18
REMARK    3  A    between atoms: C_19  and  C_20
REMARK                            x       y       z     vdW  Elec       q    Type
REMARK                         _______ _______ _______ _____ _____    ______ ____
ROOT
ATOM      1  O   UNL     1      19.832   9.922  23.412  0.00  0.00    -0.252 OA
ATOM      3  N   UNL     1      16.116   8.802  20.141  0.00  0.00    -0.296 NA
ATOM      4  N   UNL     1      18.436   9.128  21.697  0.00  0.00    -0.278 N 
ATOM      5  N   UNL     1      19.746   7.654  22.770  0.00  0.00    -0.287 N 
ATOM      7  C   UNL     1      18.234   7.882  20.989  0.00  0.00    +0.109 C 
ATOM      9  C   UNL     1      16.743   7.625  20.775  0.00  0.00    +0.108 C 
ATOM     10  C   UNL     1      16.270  10.002  20.989  0.00  0.00    +0.104 C 
ATOM     11  C   UNL     1      17.745  10.319  21.246  0.00  0.00    +0.125 C 
ATOM     14  C   UNL     1      18.945   6.850  21.863  0.00  0.00    +0.132 C 
ATOM     17  C   UNL     1      19.395   9.018  22.712  0.00  0.00    +0.305 C 
ATOM     18  C   UNL     1      20.670   7.058  23.709  0.00  0.00    +0.133 C 
ENDROOT
BRANCH   3   8
ATOM      2  O   UNL     1      10.503   7.689  22.390  0.00  0.00    -0.276 OA
ATOM      6  N   UNL     1      12.129   7.533  20.738  0.00  0.00    -0.302 N 
ATOM      8  C   UNL     1      14.702   8.544  19.878  0.00  0.00    +0.060 C 
ATOM     12  C   UNL     1      13.831   9.310  20.883  0.00  0.00    +0.038 C 
ATOM     13  C   UNL     1      14.416   7.038  19.960  0.00  0.00    +0.038 C 
ATOM     15  C   UNL     1      12.353   8.979  20.687  0.00  0.00    +0.109 C 
ATOM     16  C   UNL     1      12.925   6.752  19.783  0.00  0.00    +0.109 C 
ATOM     19  C   UNL     1      11.186   7.008  21.621  0.00  0.00    +0.212 C 
ATOM     20  C   UNL     1      11.016   5.510  21.615  0.00  0.00    +0.109 C 
ENDBRANCH   3   8
TORSDOF 1
ENDMDL
