MODEL 1
REMARK VINA RESULT:      -6.7      0.000      0.000
REMARK  Name = 9391205
REMARK  8 active torsions:
REMARK  status: ('A' for Active; 'I' for Inactive)
REMARK    1  A    between atoms: S_1  and  N_9
REMARK    2  A    between atoms: S_1  and  C_23
REMARK    3  A    between atoms: O_4  and  C_22
REMARK    4  A    between atoms: O_4  and  C_25
REMARK    5  A    between atoms: N_9  and  C_17
REMARK    6  A    between atoms: C_19  and  C_22
REMARK    7  A    between atoms: C_23  and  C_24
REMARK    8  A    between atoms: C_24  and  C_26
REMARK                            x       y       z     vdW  Elec       q    Type
REMARK                         _______ _______ _______ _____ _____    ______ ____
ROOT
ATOM      2  O   UNL     1      10.957   6.115  21.144  0.00  0.00    -0.268 OA
ATOM      3  O   UNL     1      16.144   6.589  19.948  0.00  0.00    -0.272 OA
ATOM      7  N   UNL     1      14.949   8.387  19.091  0.00  0.00    -0.298 N 
ATOM      8  N   UNL     1      11.940   7.967  20.094  0.00  0.00    -0.310 N 
ATOM     10  C   UNL     1      12.931   7.816  17.737  0.00  0.00    +0.027 C 
ATOM     11  C   UNL     1      13.014   9.943  18.966  0.00  0.00    +0.055 C 
ATOM     12  C   UNL     1      12.579   9.293  17.653  0.00  0.00    +0.018 C 
ATOM     13  C   UNL     1      14.442   7.625  17.948  0.00  0.00    +0.113 C 
ATOM     14  C   UNL     1      12.104   7.186  18.861  0.00  0.00    +0.130 C 
ATOM     15  C   UNL     1      14.541   9.799  19.127  0.00  0.00    +0.117 C 
ATOM     16  C   UNL     1      12.305   9.325  20.169  0.00  0.00    +0.049 A 
ATOM     17  C   UNL     1      12.036  10.000  21.307  0.00  0.00    +0.068 A 
ATOM     18  C   UNL     1      11.310   7.296  21.161  0.00  0.00    +0.252 A 
ATOM     19  C   UNL     1      15.815   7.778  19.998  0.00  0.00    +0.253 C 
ATOM     20  C   UNL     1      11.391   9.379  22.428  0.00  0.00    +0.031 A 
ATOM     21  C   UNL     1      11.044   8.091  22.387  0.00  0.00    +0.072 A 
ENDROOT
BRANCH  17   9
ATOM      9  N   UNL     1      12.424  11.357  21.419  0.00  0.00    -0.219 N 
ATOM     32  H   UNL     1      12.369  11.929  20.570  0.00  0.00    +0.173 HD
BRANCH   9   1
ATOM      1  S   UNL     1      13.796  11.641  22.384  0.00  0.00    +0.043 S 
ATOM      5  O   UNL     1      14.196  10.412  23.043  0.00  0.00    -0.155 OA
ATOM      6  O   UNL     1      14.751  12.439  21.640  0.00  0.00    -0.155 OA
BRANCH   1  23
ATOM     23  C   UNL     1      13.068  12.687  23.620  0.00  0.00    +0.188 C 
BRANCH  23  24
ATOM     24  C   UNL     1      12.697  11.898  24.864  0.00  0.00    +0.021 C 
ATOM     26  C   UNL     1      11.200  11.940  25.123  0.00  0.00    +0.005 C 
ENDBRANCH  23  24
ENDBRANCH   1  23
ENDBRANCH   9   1
ENDBRANCH  17   9
BRANCH  19  22
ATOM     22  C   UNL     1      16.362   8.649  21.101  0.00  0.00    +0.324 C 
BRANCH  22   4
ATOM      4  O   UNL     1      17.711   8.893  20.790  0.00  0.00    -0.483 OA
BRANCH   4  25
ATOM     25  C   UNL     1      18.657   8.455  21.689  0.00  0.00    +0.121 A 
ATOM     27  C   UNL     1      18.939   7.100  21.776  0.00  0.00    +0.045 A 
ATOM     28  C   UNL     1      19.313   9.377  22.491  0.00  0.00    +0.045 A 
ATOM     29  C   UNL     1      19.898   6.656  22.687  0.00  0.00    +0.004 A 
ATOM     30  C   UNL     1      20.271   8.933  23.402  0.00  0.00    +0.004 A 
ATOM     31  C   UNL     1      20.564   7.573  23.499  0.00  0.00    +0.000 A 
ENDBRANCH   4  25
ENDBRANCH  22   4
ENDBRANCH  19  22
TORSDOF 7
ENDMDL
MODEL 2
REMARK VINA RESULT:      -6.6      2.898      5.992
REMARK  Name = 9391205
REMARK  8 active torsions:
REMARK  status: ('A' for Active; 'I' for Inactive)
REMARK    1  A    between atoms: S_1  and  N_9
REMARK    2  A    between atoms: S_1  and  C_23
REMARK    3  A    between atoms: O_4  and  C_22
REMARK    4  A    between atoms: O_4  and  C_25
REMARK    5  A    between atoms: N_9  and  C_17
REMARK    6  A    between atoms: C_19  and  C_22
REMARK    7  A    between atoms: C_23  and  C_24
REMARK    8  A    between atoms: C_24  and  C_26
REMARK                            x       y       z     vdW  Elec       q    Type
REMARK                         _______ _______ _______ _____ _____    ______ ____
ROOT
ATOM      2  O   UNL     1      13.169   8.212  16.413  0.00  0.00    -0.268 OA
ATOM      3  O   UNL     1      10.543   8.159  21.067  0.00  0.00    -0.272 OA
ATOM      7  N   UNL     1      12.827   8.377  21.429  0.00  0.00    -0.298 N 
ATOM      8  N   UNL     1      14.138   8.570  18.517  0.00  0.00    -0.310 N 
ATOM     10  C   UNL     1      14.284   6.711  20.272  0.00  0.00    +0.027 C 
ATOM     11  C   UNL     1      15.160   8.951  20.785  0.00  0.00    +0.055 C 
ATOM     12  C   UNL     1      15.514   7.464  20.755  0.00  0.00    +0.018 C 
ATOM     13  C   UNL     1      13.091   6.953  21.213  0.00  0.00    +0.113 C 
ATOM     14  C   UNL     1      13.986   7.145  18.835  0.00  0.00    +0.130 C 
ATOM     15  C   UNL     1      14.006   9.181  21.783  0.00  0.00    +0.117 C 
ATOM     16  C   UNL     1      14.762   9.469  19.405  0.00  0.00    +0.049 A 
ATOM     17  C   UNL     1      14.949  10.744  19.002  0.00  0.00    +0.068 A 
ATOM     18  C   UNL     1      13.706   8.958  17.233  0.00  0.00    +0.252 A 
ATOM     19  C   UNL     1      11.519   8.854  21.367  0.00  0.00    +0.253 C 
ATOM     20  C   UNL     1      14.540  11.202  17.705  0.00  0.00    +0.031 A 
ATOM     21  C   UNL     1      13.937  10.375  16.849  0.00  0.00    +0.072 A 
ENDROOT
BRANCH  17   9
ATOM      9  N   UNL     1      15.543  11.673  19.889  0.00  0.00    -0.219 N 
ATOM     32  H   UNL     1      16.036  11.291  20.703  0.00  0.00    +0.173 HD
BRANCH   9   1
ATOM      1  S   UNL     1      14.620  13.067  20.202  0.00  0.00    +0.043 S 
ATOM      5  O   UNL     1      15.058  14.150  19.343  0.00  0.00    -0.155 OA
ATOM      6  O   UNL     1      13.220  12.706  20.298  0.00  0.00    -0.155 OA
BRANCH   1  23
ATOM     23  C   UNL     1      15.195  13.432  21.841  0.00  0.00    +0.188 C 
BRANCH  23  24
ATOM     24  C   UNL     1      14.386  12.687  22.890  0.00  0.00    +0.021 C 
ATOM     26  C   UNL     1      14.261  13.493  24.173  0.00  0.00    +0.005 C 
ENDBRANCH  23  24
ENDBRANCH   1  23
ENDBRANCH   9   1
ENDBRANCH  17   9
BRANCH  19  22
ATOM     22  C   UNL     1      11.315  10.314  21.683  0.00  0.00    +0.324 C 
BRANCH  22   4
ATOM      4  O   UNL     1      11.023  10.392  23.056  0.00  0.00    -0.483 OA
BRANCH   4  25
ATOM     25  C   UNL     1      10.874  11.647  23.601  0.00  0.00    +0.121 A 
ATOM     27  C   UNL     1      10.683  12.736  22.763  0.00  0.00    +0.045 A 
ATOM     28  C   UNL     1      10.918  11.801  24.979  0.00  0.00    +0.045 A 
ATOM     29  C   UNL     1      10.532  14.008  23.316  0.00  0.00    +0.004 A 
ATOM     30  C   UNL     1      10.767  13.073  25.532  0.00  0.00    +0.004 A 
ATOM     31  C   UNL     1      10.574  14.176  24.699  0.00  0.00    +0.000 A 
ENDBRANCH   4  25
ENDBRANCH  22   4
ENDBRANCH  19  22
TORSDOF 7
ENDMDL
MODEL 3
REMARK VINA RESULT:      -6.5     26.983     29.807
REMARK  Name = 9391205
REMARK  8 active torsions:
REMARK  status: ('A' for Active; 'I' for Inactive)
REMARK    1  A    between atoms: S_1  and  N_9
REMARK    2  A    between atoms: S_1  and  C_23
REMARK    3  A    between atoms: O_4  and  C_22
REMARK    4  A    between atoms: O_4  and  C_25
REMARK    5  A    between atoms: N_9  and  C_17
REMARK    6  A    between atoms: C_19  and  C_22
REMARK    7  A    between atoms: C_23  and  C_24
REMARK    8  A    between atoms: C_24  and  C_26
REMARK                            x       y       z     vdW  Elec       q    Type
REMARK                         _______ _______ _______ _____ _____    ______ ____
ROOT
ATOM      2  O   UNL     1      -8.762 -14.092  17.693  0.00  0.00    -0.268 OA
ATOM      3  O   UNL     1      -8.845  -9.877  14.409  0.00  0.00    -0.272 OA
ATOM      7  N   UNL     1      -6.970  -9.799  15.779  0.00  0.00    -0.298 N 
ATOM      8  N   UNL     1      -7.056 -12.497  17.497  0.00  0.00    -0.310 N 
ATOM     10  C   UNL     1      -7.390 -10.064  18.226  0.00  0.00    +0.027 C 
ATOM     11  C   UNL     1      -5.237 -10.772  17.273  0.00  0.00    +0.055 C 
ATOM     12  C   UNL     1      -5.890 -10.085  18.473  0.00  0.00    +0.018 C 
ATOM     13  C   UNL     1      -7.721  -9.299  16.934  0.00  0.00    +0.113 C 
ATOM     14  C   UNL     1      -7.893 -11.509  18.190  0.00  0.00    +0.130 C 
ATOM     15  C   UNL     1      -5.524  -9.955  15.997  0.00  0.00    +0.117 C 
ATOM     16  C   UNL     1      -5.738 -12.204  17.094  0.00  0.00    +0.049 A 
ATOM     17  C   UNL     1      -4.999 -13.193  16.548  0.00  0.00    +0.068 A 
ATOM     18  C   UNL     1      -7.622 -13.779  17.347  0.00  0.00    +0.252 A 
ATOM     19  C   UNL     1      -7.628 -10.014  14.569  0.00  0.00    +0.253 C 
ATOM     20  C   UNL     1      -5.512 -14.521  16.374  0.00  0.00    +0.031 A 
ATOM     21  C   UNL     1      -6.760 -14.823  16.736  0.00  0.00    +0.072 A 
ENDROOT
BRANCH  17   9
ATOM      9  N   UNL     1      -3.684 -12.914  16.106  0.00  0.00    -0.219 N 
ATOM     32  H   UNL     1      -3.264 -12.033  16.419  0.00  0.00    +0.173 HD
BRANCH   9   1
ATOM      1  S   UNL     1      -3.363 -13.323  14.486  0.00  0.00    +0.043 S 
ATOM      5  O   UNL     1      -2.790 -14.654  14.419  0.00  0.00    -0.155 OA
ATOM      6  O   UNL     1      -4.496 -12.952  13.662  0.00  0.00    -0.155 OA
BRANCH   1  23
ATOM     23  C   UNL     1      -2.054 -12.171  14.151  0.00  0.00    +0.188 C 
BRANCH  23  24
ATOM     24  C   UNL     1      -2.245 -10.876  14.923  0.00  0.00    +0.021 C 
ATOM     26  C   UNL     1      -0.985 -10.489  15.680  0.00  0.00    +0.005 C 
ENDBRANCH  23  24
ENDBRANCH   1  23
ENDBRANCH   9   1
ENDBRANCH  17   9
BRANCH  19  22
ATOM     22  C   UNL     1      -6.775 -10.448  13.404  0.00  0.00    +0.324 C 
BRANCH  22   4
ATOM      4  O   UNL     1      -6.647  -9.330  12.560  0.00  0.00    -0.483 OA
BRANCH   4  25
ATOM     25  C   UNL     1      -5.571  -9.305  11.702  0.00  0.00    +0.121 A 
ATOM     27  C   UNL     1      -4.423 -10.011  12.028  0.00  0.00    +0.045 A 
ATOM     28  C   UNL     1      -5.654  -8.574  10.527  0.00  0.00    +0.045 A 
ATOM     29  C   UNL     1      -3.332  -9.986  11.158  0.00  0.00    +0.004 A 
ATOM     30  C   UNL     1      -4.564  -8.548   9.657  0.00  0.00    +0.004 A 
ATOM     31  C   UNL     1      -3.403  -9.255   9.973  0.00  0.00    +0.000 A 
ENDBRANCH   4  25
ENDBRANCH  22   4
ENDBRANCH  19  22
TORSDOF 7
ENDMDL
MODEL 4
REMARK VINA RESULT:      -6.4      2.168      6.005
REMARK  Name = 9391205
REMARK  8 active torsions:
REMARK  status: ('A' for Active; 'I' for Inactive)
REMARK    1  A    between atoms: S_1  and  N_9
REMARK    2  A    between atoms: S_1  and  C_23
REMARK    3  A    between atoms: O_4  and  C_22
REMARK    4  A    between atoms: O_4  and  C_25
REMARK    5  A    between atoms: N_9  and  C_17
REMARK    6  A    between atoms: C_19  and  C_22
REMARK    7  A    between atoms: C_23  and  C_24
REMARK    8  A    between atoms: C_24  and  C_26
REMARK                            x       y       z     vdW  Elec       q    Type
REMARK                         _______ _______ _______ _____ _____    ______ ____
ROOT
ATOM      2  O   UNL     1      13.121  10.147  16.751  0.00  0.00    -0.268 OA
ATOM      3  O   UNL     1      11.082   7.205  20.719  0.00  0.00    -0.272 OA
ATOM      7  N   UNL     1      13.326   7.656  21.117  0.00  0.00    -0.298 N 
ATOM      8  N   UNL     1      14.250   9.566  18.721  0.00  0.00    -0.310 N 
ATOM     10  C   UNL     1      14.896   7.143  19.244  0.00  0.00    +0.027 C 
ATOM     11  C   UNL     1      15.445   8.928  20.843  0.00  0.00    +0.055 C 
ATOM     12  C   UNL     1      16.032   7.770  20.036  0.00  0.00    +0.018 C 
ATOM     13  C   UNL     1      13.794   6.627  20.185  0.00  0.00    +0.113 C 
ATOM     14  C   UNL     1      14.370   8.180  18.250  0.00  0.00    +0.130 C 
ATOM     15  C   UNL     1      14.390   8.383  21.826  0.00  0.00    +0.117 C 
ATOM     16  C   UNL     1      14.814   9.988  19.942  0.00  0.00    +0.049 A 
ATOM     17  C   UNL     1      14.743  11.297  20.263  0.00  0.00    +0.068 A 
ATOM     18  C   UNL     1      13.618  10.460  17.835  0.00  0.00    +0.252 A 
ATOM     19  C   UNL     1      11.959   7.826  21.328  0.00  0.00    +0.253 C 
ATOM     20  C   UNL     1      14.120  12.261  19.401  0.00  0.00    +0.031 A 
ATOM     21  C   UNL     1      13.568  11.886  18.246  0.00  0.00    +0.072 A 
ENDROOT
BRANCH  17   9
ATOM      9  N   UNL     1      15.273  11.740  21.498  0.00  0.00    -0.219 N 
ATOM     32  H   UNL     1      14.617  12.164  22.162  0.00  0.00    +0.173 HD
BRANCH   9   1
ATOM      1  S   UNL     1      16.788  12.507  21.403  0.00  0.00    +0.043 S 
ATOM      5  O   UNL     1      17.293  12.432  20.044  0.00  0.00    -0.155 OA
ATOM      6  O   UNL     1      16.736  13.768  22.115  0.00  0.00    -0.155 OA
BRANCH   1  23
ATOM     23  C   UNL     1      17.747  11.377  22.381  0.00  0.00    +0.188 C 
BRANCH  23  24
ATOM     24  C   UNL     1      18.709  10.578  21.518  0.00  0.00    +0.021 C 
ATOM     26  C   UNL     1      18.962   9.196  22.101  0.00  0.00    +0.005 C 
ENDBRANCH  23  24
ENDBRANCH   1  23
ENDBRANCH   9   1
ENDBRANCH  17   9
BRANCH  19  22
ATOM     22  C   UNL     1      11.555   8.846  22.362  0.00  0.00    +0.324 C 
BRANCH  22   4
ATOM      4  O   UNL     1      11.519  10.091  21.708  0.00  0.00    -0.483 OA
BRANCH   4  25
ATOM     25  C   UNL     1      11.211  11.196  22.468  0.00  0.00    +0.121 A 
ATOM     27  C   UNL     1      10.994  11.049  23.830  0.00  0.00    +0.045 A 
ATOM     28  C   UNL     1      11.122  12.439  21.858  0.00  0.00    +0.045 A 
ATOM     29  C   UNL     1      10.683  12.170  24.600  0.00  0.00    +0.004 A 
ATOM     30  C   UNL     1      10.810  13.560  22.628  0.00  0.00    +0.004 A 
ATOM     31  C   UNL     1      10.590  13.424  23.999  0.00  0.00    +0.000 A 
ENDBRANCH   4  25
ENDBRANCH  22   4
ENDBRANCH  19  22
TORSDOF 7
ENDMDL
MODEL 5
REMARK VINA RESULT:      -6.4     15.265     18.640
REMARK  Name = 9391205
REMARK  8 active torsions:
REMARK  status: ('A' for Active; 'I' for Inactive)
REMARK    1  A    between atoms: S_1  and  N_9
REMARK    2  A    between atoms: S_1  and  C_23
REMARK    3  A    between atoms: O_4  and  C_22
REMARK    4  A    between atoms: O_4  and  C_25
REMARK    5  A    between atoms: N_9  and  C_17
REMARK    6  A    between atoms: C_19  and  C_22
REMARK    7  A    between atoms: C_23  and  C_24
REMARK    8  A    between atoms: C_24  and  C_26
REMARK                            x       y       z     vdW  Elec       q    Type
REMARK                         _______ _______ _______ _____ _____    ______ ____
ROOT
ATOM      2  O   UNL     1       7.338   8.845   3.998  0.00  0.00    -0.268 OA
ATOM      3  O   UNL     1      11.426   9.855   7.288  0.00  0.00    -0.272 OA
ATOM      7  N   UNL     1      11.246   7.572   6.899  0.00  0.00    -0.298 N 
ATOM      8  N   UNL     1       8.872   7.254   4.777  0.00  0.00    -0.310 N 
ATOM     10  C   UNL     1       8.982   6.577   7.245  0.00  0.00    +0.027 C 
ATOM     11  C   UNL     1      10.528   5.560   5.627  0.00  0.00    +0.055 C 
ATOM     12  C   UNL     1       9.492   5.250   6.708  0.00  0.00    +0.018 C 
ATOM     13  C   UNL     1      10.134   7.406   7.838  0.00  0.00    +0.113 C 
ATOM     14  C   UNL     1       8.262   7.312   6.112  0.00  0.00    +0.130 C 
ATOM     15  C   UNL     1      11.706   6.333   6.254  0.00  0.00    +0.117 C 
ATOM     16  C   UNL     1       9.929   6.370   4.480  0.00  0.00    +0.049 A 
ATOM     17  C   UNL     1      10.373   6.307   3.206  0.00  0.00    +0.068 A 
ATOM     18  C   UNL     1       8.271   8.067   3.796  0.00  0.00    +0.252 A 
ATOM     19  C   UNL     1      11.830   8.827   6.736  0.00  0.00    +0.253 C 
ATOM     20  C   UNL     1       9.801   7.103   2.158  0.00  0.00    +0.031 A 
ATOM     21  C   UNL     1       8.807   7.955   2.415  0.00  0.00    +0.072 A 
ENDROOT
BRANCH  17   9
ATOM      9  N   UNL     1      11.455   5.452   2.890  0.00  0.00    -0.219 N 
ATOM     32  H   UNL     1      12.399   5.809   3.069  0.00  0.00    +0.173 HD
BRANCH   9   1
ATOM      1  S   UNL     1      11.286   4.575   1.442  0.00  0.00    +0.043 S 
ATOM      5  O   UNL     1       9.988   3.927   1.408  0.00  0.00    -0.155 OA
ATOM      6  O   UNL     1      11.748   5.384   0.332  0.00  0.00    -0.155 OA
BRANCH   1  23
ATOM     23  C   UNL     1      12.498   3.310   1.726  0.00  0.00    +0.188 C 
BRANCH  23  24
ATOM     24  C   UNL     1      13.725   3.514   0.854  0.00  0.00    +0.021 C 
ATOM     26  C   UNL     1      15.001   3.515   1.681  0.00  0.00    +0.005 C 
ENDBRANCH  23  24
ENDBRANCH   1  23
ENDBRANCH   9   1
ENDBRANCH  17   9
BRANCH  19  22
ATOM     22  C   UNL     1      13.023   8.904   5.816  0.00  0.00    +0.324 C 
BRANCH  22   4
ATOM      4  O   UNL     1      12.518   9.110   4.519  0.00  0.00    -0.483 OA
BRANCH   4  25
ATOM     25  C   UNL     1      13.202   8.530   3.475  0.00  0.00    +0.121 A 
ATOM     27  C   UNL     1      12.917   8.917   2.174  0.00  0.00    +0.045 A 
ATOM     28  C   UNL     1      14.165   7.568   3.742  0.00  0.00    +0.045 A 
ATOM     29  C   UNL     1      13.610   8.330   1.116  0.00  0.00    +0.004 A 
ATOM     30  C   UNL     1      14.858   6.980   2.684  0.00  0.00    +0.004 A 
ATOM     31  C   UNL     1      14.581   7.362   1.371  0.00  0.00    +0.000 A 
ENDBRANCH   4  25
ENDBRANCH  22   4
ENDBRANCH  19  22
TORSDOF 7
ENDMDL
MODEL 6
REMARK VINA RESULT:      -6.2     27.086     29.911
REMARK  Name = 9391205
REMARK  8 active torsions:
REMARK  status: ('A' for Active; 'I' for Inactive)
REMARK    1  A    between atoms: S_1  and  N_9
REMARK    2  A    between atoms: S_1  and  C_23
REMARK    3  A    between atoms: O_4  and  C_22
REMARK    4  A    between atoms: O_4  and  C_25
REMARK    5  A    between atoms: N_9  and  C_17
REMARK    6  A    between atoms: C_19  and  C_22
REMARK    7  A    between atoms: C_23  and  C_24
REMARK    8  A    between atoms: C_24  and  C_26
REMARK                            x       y       z     vdW  Elec       q    Type
REMARK                         _______ _______ _______ _____ _____    ______ ____
ROOT
ATOM      2  O   UNL     1      -6.159 -15.221  16.129  0.00  0.00    -0.268 OA
ATOM      3  O   UNL     1      -8.670 -10.797  17.767  0.00  0.00    -0.272 OA
ATOM      7  N   UNL     1      -6.379 -10.429  17.644  0.00  0.00    -0.298 N 
ATOM      8  N   UNL     1      -5.142 -13.137  16.473  0.00  0.00    -0.310 N 
ATOM     10  C   UNL     1      -4.936 -12.102  18.807  0.00  0.00    +0.027 C 
ATOM     11  C   UNL     1      -4.069 -10.892  16.850  0.00  0.00    +0.055 C 
ATOM     12  C   UNL     1      -3.702 -11.421  18.237  0.00  0.00    +0.018 C 
ATOM     13  C   UNL     1      -6.108 -11.111  18.911  0.00  0.00    +0.113 C 
ATOM     14  C   UNL     1      -5.273 -13.307  17.926  0.00  0.00    +0.130 C 
ATOM     15  C   UNL     1      -5.200  -9.852  16.983  0.00  0.00    +0.117 C 
ATOM     16  C   UNL     1      -4.505 -12.014  15.910  0.00  0.00    +0.049 A 
ATOM     17  C   UNL     1      -4.339 -11.974  14.571  0.00  0.00    +0.068 A 
ATOM     18  C   UNL     1      -5.608 -14.211  15.688  0.00  0.00    +0.252 A 
ATOM     19  C   UNL     1      -7.693 -10.303  17.195  0.00  0.00    +0.253 C 
ATOM     20  C   UNL     1      -4.784 -13.036  13.715  0.00  0.00    +0.031 A 
ATOM     21  C   UNL     1      -5.400 -14.106  14.221  0.00  0.00    +0.072 A 
ENDROOT
BRANCH  17   9
ATOM      9  N   UNL     1      -3.732 -10.841  13.979  0.00  0.00    -0.219 N 
ATOM     32  H   UNL     1      -4.202 -10.433  13.164  0.00  0.00    +0.173 HD
BRANCH   9   1
ATOM      1  S   UNL     1      -2.036 -10.902  13.869  0.00  0.00    +0.043 S 
ATOM      5  O   UNL     1      -1.449  -9.921  14.762  0.00  0.00    -0.155 OA
ATOM      6  O   UNL     1      -1.602 -12.285  13.886  0.00  0.00    -0.155 OA
BRANCH   1  23
ATOM     23  C   UNL     1      -1.831 -10.295  12.214  0.00  0.00    +0.188 C 
BRANCH  23  24
ATOM     24  C   UNL     1      -3.047 -10.603  11.356  0.00  0.00    +0.021 C 
ATOM     26  C   UNL     1      -3.308  -9.499  10.344  0.00  0.00    +0.005 C 
ENDBRANCH  23  24
ENDBRANCH   1  23
ENDBRANCH   9   1
ENDBRANCH  17   9
BRANCH  19  22
ATOM     22  C   UNL     1      -7.903  -9.516  15.926  0.00  0.00    +0.324 C 
BRANCH  22   4
ATOM      4  O   UNL     1      -8.546 -10.378  15.020  0.00  0.00    -0.483 OA
BRANCH   4  25
ATOM     25  C   UNL     1      -7.973 -10.531  13.777  0.00  0.00    +0.121 A 
ATOM     27  C   UNL     1      -7.121  -9.549  13.294  0.00  0.00    +0.045 A 
ATOM     28  C   UNL     1      -8.258 -11.665  13.031  0.00  0.00    +0.045 A 
ATOM     29  C   UNL     1      -6.541  -9.705  12.035  0.00  0.00    +0.004 A 
ATOM     30  C   UNL     1      -7.678 -11.820  11.772  0.00  0.00    +0.004 A 
ATOM     31  C   UNL     1      -6.819 -10.840  11.274  0.00  0.00    +0.000 A 
ENDBRANCH   4  25
ENDBRANCH  22   4
ENDBRANCH  19  22
TORSDOF 7
ENDMDL
MODEL 7
REMARK VINA RESULT:      -6.1     27.276     29.977
REMARK  Name = 9391205
REMARK  8 active torsions:
REMARK  status: ('A' for Active; 'I' for Inactive)
REMARK    1  A    between atoms: S_1  and  N_9
REMARK    2  A    between atoms: S_1  and  C_23
REMARK    3  A    between atoms: O_4  and  C_22
REMARK    4  A    between atoms: O_4  and  C_25
REMARK    5  A    between atoms: N_9  and  C_17
REMARK    6  A    between atoms: C_19  and  C_22
REMARK    7  A    between atoms: C_23  and  C_24
REMARK    8  A    between atoms: C_24  and  C_26
REMARK                            x       y       z     vdW  Elec       q    Type
REMARK                         _______ _______ _______ _____ _____    ______ ____
ROOT
ATOM      2  O   UNL     1      -6.296 -15.095  16.232  0.00  0.00    -0.268 OA
ATOM      3  O   UNL     1      -8.426 -10.600  18.186  0.00  0.00    -0.272 OA
ATOM      7  N   UNL     1      -6.144 -10.330  17.839  0.00  0.00    -0.298 N 
ATOM      8  N   UNL     1      -5.156 -13.066  16.505  0.00  0.00    -0.310 N 
ATOM     10  C   UNL     1      -4.670 -12.089  18.823  0.00  0.00    +0.027 C 
ATOM     11  C   UNL     1      -3.949 -10.878  16.809  0.00  0.00    +0.055 C 
ATOM     12  C   UNL     1      -3.470 -11.452  18.142  0.00  0.00    +0.018 C 
ATOM     13  C   UNL     1      -5.779 -11.050  19.061  0.00  0.00    +0.113 C 
ATOM     14  C   UNL     1      -5.149 -13.259  17.961  0.00  0.00    +0.130 C 
ATOM     15  C   UNL     1      -5.011  -9.792  17.071  0.00  0.00    +0.117 C 
ATOM     16  C   UNL     1      -4.528 -11.960  15.899  0.00  0.00    +0.049 A 
ATOM     17  C   UNL     1      -4.495 -11.900  14.551  0.00  0.00    +0.068 A 
ATOM     18  C   UNL     1      -5.747 -14.101  15.755  0.00  0.00    +0.252 A 
ATOM     19  C   UNL     1      -7.490 -10.137  17.527  0.00  0.00    +0.253 C 
ATOM     20  C   UNL     1      -5.072 -12.924  13.727  0.00  0.00    +0.031 A 
ATOM     21  C   UNL     1      -5.682 -13.976  14.276  0.00  0.00    +0.072 A 
ENDROOT
BRANCH  17   9
ATOM      9  N   UNL     1      -3.899 -10.783  13.919  0.00  0.00    -0.219 N 
ATOM     32  H   UNL     1      -4.423 -10.345  13.154  0.00  0.00    +0.173 HD
BRANCH   9   1
ATOM      1  S   UNL     1      -2.223 -10.908  13.656  0.00  0.00    +0.043 S 
ATOM      5  O   UNL     1      -1.524  -9.923  14.460  0.00  0.00    -0.155 OA
ATOM      6  O   UNL     1      -1.835 -12.304  13.677  0.00  0.00    -0.155 OA
BRANCH   1  23
ATOM     23  C   UNL     1      -2.153 -10.356  11.970  0.00  0.00    +0.188 C 
BRANCH  23  24
ATOM     24  C   UNL     1      -3.538 -10.038  11.434  0.00  0.00    +0.021 C 
ATOM     26  C   UNL     1      -3.466  -9.172  10.186  0.00  0.00    +0.005 C 
ENDBRANCH  23  24
ENDBRANCH   1  23
ENDBRANCH   9   1
ENDBRANCH  17   9
BRANCH  19  22
ATOM     22  C   UNL     1      -7.788  -9.316  16.298  0.00  0.00    +0.324 C 
BRANCH  22   4
ATOM      4  O   UNL     1      -9.109  -9.621  15.922  0.00  0.00    -0.483 OA
BRANCH   4  25
ATOM     25  C   UNL     1      -9.984  -8.569  15.774  0.00  0.00    +0.121 A 
ATOM     27  C   UNL     1     -10.751  -8.476  14.623  0.00  0.00    +0.045 A 
ATOM     28  C   UNL     1     -10.083  -7.620  16.781  0.00  0.00    +0.045 A 
ATOM     29  C   UNL     1     -11.638  -7.410  14.474  0.00  0.00    +0.004 A 
ATOM     30  C   UNL     1     -10.970  -6.553  16.632  0.00  0.00    +0.004 A 
ATOM     31  C   UNL     1     -11.747  -6.449  15.478  0.00  0.00    +0.000 A 
ENDBRANCH   4  25
ENDBRANCH  22   4
ENDBRANCH  19  22
TORSDOF 7
ENDMDL
MODEL 8
REMARK VINA RESULT:      -6.1     15.016     17.881
REMARK  Name = 9391205
REMARK  8 active torsions:
REMARK  status: ('A' for Active; 'I' for Inactive)
REMARK    1  A    between atoms: S_1  and  N_9
REMARK    2  A    between atoms: S_1  and  C_23
REMARK    3  A    between atoms: O_4  and  C_22
REMARK    4  A    between atoms: O_4  and  C_25
REMARK    5  A    between atoms: N_9  and  C_17
REMARK    6  A    between atoms: C_19  and  C_22
REMARK    7  A    between atoms: C_23  and  C_24
REMARK    8  A    between atoms: C_24  and  C_26
REMARK                            x       y       z     vdW  Elec       q    Type
REMARK                         _______ _______ _______ _____ _____    ______ ____
ROOT
ATOM      2  O   UNL     1       7.285   8.866   3.874  0.00  0.00    -0.268 OA
ATOM      3  O   UNL     1      11.295   9.739   7.298  0.00  0.00    -0.272 OA
ATOM      7  N   UNL     1      11.234   7.501   6.676  0.00  0.00    -0.298 N 
ATOM      8  N   UNL     1       8.893   7.282   4.505  0.00  0.00    -0.310 N 
ATOM     10  C   UNL     1       9.022   6.363   6.893  0.00  0.00    +0.027 C 
ATOM     11  C   UNL     1      10.629   5.596   5.197  0.00  0.00    +0.055 C 
ATOM     12  C   UNL     1       9.603   5.125   6.229  0.00  0.00    +0.018 C 
ATOM     13  C   UNL     1      10.126   7.185   7.580  0.00  0.00    +0.113 C 
ATOM     14  C   UNL     1       8.273   7.173   5.832  0.00  0.00    +0.130 C 
ATOM     15  C   UNL     1      11.761   6.360   5.914  0.00  0.00    +0.117 C 
ATOM     16  C   UNL     1       9.996   6.489   4.132  0.00  0.00    +0.049 A 
ATOM     17  C   UNL     1      10.451   6.578   2.864  0.00  0.00    +0.068 A 
ATOM     18  C   UNL     1       8.258   8.161   3.605  0.00  0.00    +0.252 A 
ATOM     19  C   UNL     1      11.754   8.795   6.649  0.00  0.00    +0.253 C 
ATOM     20  C   UNL     1       9.846   7.447   1.896  0.00  0.00    +0.031 A 
ATOM     21  C   UNL     1       8.808   8.218   2.226  0.00  0.00    +0.072 A 
ENDROOT
BRANCH  17   9
ATOM      9  N   UNL     1      11.578   5.816   2.475  0.00  0.00    -0.219 N 
ATOM     32  H   UNL     1      12.470   6.313   2.386  0.00  0.00    +0.173 HD
BRANCH   9   1
ATOM      1  S   UNL     1      11.284   4.656   1.266  0.00  0.00    +0.043 S 
ATOM      5  O   UNL     1       9.969   4.073   1.452  0.00  0.00    -0.155 OA
ATOM      6  O   UNL     1      11.695   5.185  -0.020  0.00  0.00    -0.155 OA
BRANCH   1  23
ATOM     23  C   UNL     1      12.475   3.429   1.746  0.00  0.00    +0.188 C 
BRANCH  23  24
ATOM     24  C   UNL     1      13.701   3.467   0.850  0.00  0.00    +0.021 C 
ATOM     26  C   UNL     1      14.983   3.547   1.664  0.00  0.00    +0.005 C 
ENDBRANCH  23  24
ENDBRANCH   1  23
ENDBRANCH   9   1
ENDBRANCH  17   9
BRANCH  19  22
ATOM     22  C   UNL     1      12.947   9.025   5.756  0.00  0.00    +0.324 C 
BRANCH  22   4
ATOM      4  O   UNL     1      13.709  10.044   6.356  0.00  0.00    -0.483 OA
BRANCH   4  25
ATOM     25  C   UNL     1      15.079   9.941   6.274  0.00  0.00    +0.121 A 
ATOM     27  C   UNL     1      15.864  11.049   6.558  0.00  0.00    +0.045 A 
ATOM     28  C   UNL     1      15.651   8.732   5.909  0.00  0.00    +0.045 A 
ATOM     29  C   UNL     1      17.252  10.945   6.475  0.00  0.00    +0.004 A 
ATOM     30  C   UNL     1      17.039   8.627   5.825  0.00  0.00    +0.004 A 
ATOM     31  C   UNL     1      17.840   9.734   6.109  0.00  0.00    +0.000 A 
ENDBRANCH   4  25
ENDBRANCH  22   4
ENDBRANCH  19  22
TORSDOF 7
ENDMDL
MODEL 9
REMARK VINA RESULT:      -5.9     12.584     15.104
REMARK  Name = 9391205
REMARK  8 active torsions:
REMARK  status: ('A' for Active; 'I' for Inactive)
REMARK    1  A    between atoms: S_1  and  N_9
REMARK    2  A    between atoms: S_1  and  C_23
REMARK    3  A    between atoms: O_4  and  C_22
REMARK    4  A    between atoms: O_4  and  C_25
REMARK    5  A    between atoms: N_9  and  C_17
REMARK    6  A    between atoms: C_19  and  C_22
REMARK    7  A    between atoms: C_23  and  C_24
REMARK    8  A    between atoms: C_24  and  C_26
REMARK                            x       y       z     vdW  Elec       q    Type
REMARK                         _______ _______ _______ _____ _____    ______ ____
ROOT
ATOM      2  O   UNL     1      19.630  -5.089  21.314  0.00  0.00    -0.268 OA
ATOM      3  O   UNL     1      20.790  -1.563  25.158  0.00  0.00    -0.272 OA
ATOM      7  N   UNL     1      18.520  -2.057  25.171  0.00  0.00    -0.298 N 
ATOM      8  N   UNL     1      18.123  -4.304  22.928  0.00  0.00    -0.310 N 
ATOM     10  C   UNL     1      17.344  -1.864  22.977  0.00  0.00    +0.027 C 
ATOM     11  C   UNL     1      16.521  -3.447  24.669  0.00  0.00    +0.055 C 
ATOM     12  C   UNL     1      16.084  -2.432  23.612  0.00  0.00    +0.018 C 
ATOM     13  C   UNL     1      18.229  -1.181  24.034  0.00  0.00    +0.113 C 
ATOM     14  C   UNL     1      18.074  -2.999  22.256  0.00  0.00    +0.130 C 
ATOM     15  C   UNL     1      17.350  -2.730  25.754  0.00  0.00    +0.117 C 
ATOM     16  C   UNL     1      17.336  -4.587  24.062  0.00  0.00    +0.049 A 
ATOM     17  C   UNL     1      17.365  -5.838  24.568  0.00  0.00    +0.068 A 
ATOM     18  C   UNL     1      18.934  -5.278  22.312  0.00  0.00    +0.252 A 
ATOM     19  C   UNL     1      19.822  -2.137  25.664  0.00  0.00    +0.253 C 
ATOM     20  C   UNL     1      18.163  -6.878  23.985  0.00  0.00    +0.031 A 
ATOM     21  C   UNL     1      18.926  -6.635  22.918  0.00  0.00    +0.072 A 
ENDROOT
BRANCH  17   9
ATOM      9  N   UNL     1      16.609  -6.137  25.726  0.00  0.00    -0.219 N 
ATOM     32  H   UNL     1      15.864  -5.480  25.979  0.00  0.00    +0.173 HD
BRANCH   9   1
ATOM      1  S   UNL     1      17.504  -6.742  27.040  0.00  0.00    +0.043 S 
ATOM      5  O   UNL     1      17.381  -8.186  27.096  0.00  0.00    -0.155 OA
ATOM      6  O   UNL     1      18.802  -6.098  27.075  0.00  0.00    -0.155 OA
BRANCH   1  23
ATOM     23  C   UNL     1      16.540  -6.081  28.376  0.00  0.00    +0.188 C 
BRANCH  23  24
ATOM     24  C   UNL     1      15.190  -6.771  28.478  0.00  0.00    +0.021 C 
ATOM     26  C   UNL     1      14.435  -6.334  29.723  0.00  0.00    +0.005 C 
ENDBRANCH  23  24
ENDBRANCH   1  23
ENDBRANCH   9   1
ENDBRANCH  17   9
BRANCH  19  22
ATOM     22  C   UNL     1      20.030  -2.993  26.888  0.00  0.00    +0.324 C 
BRANCH  22   4
ATOM      4  O   UNL     1      20.412  -2.125  27.927  0.00  0.00    -0.483 OA
BRANCH   4  25
ATOM     25  C   UNL     1      19.520  -1.945  28.960  0.00  0.00    +0.121 A 
ATOM     27  C   UNL     1      18.361  -2.705  29.002  0.00  0.00    +0.045 A 
ATOM     28  C   UNL     1      19.798  -1.006  29.942  0.00  0.00    +0.045 A 
ATOM     29  C   UNL     1      17.459  -2.522  30.049  0.00  0.00    +0.004 A 
ATOM     30  C   UNL     1      18.895  -0.823  30.990  0.00  0.00    +0.004 A 
ATOM     31  C   UNL     1      17.725  -1.581  31.043  0.00  0.00    +0.000 A 
ENDBRANCH   4  25
ENDBRANCH  22   4
ENDBRANCH  19  22
TORSDOF 7
ENDMDL
MODEL 10
REMARK VINA RESULT:      -5.7     28.332     30.585
REMARK  Name = 9391205
REMARK  8 active torsions:
REMARK  status: ('A' for Active; 'I' for Inactive)
REMARK    1  A    between atoms: S_1  and  N_9
REMARK    2  A    between atoms: S_1  and  C_23
REMARK    3  A    between atoms: O_4  and  C_22
REMARK    4  A    between atoms: O_4  and  C_25
REMARK    5  A    between atoms: N_9  and  C_17
REMARK    6  A    between atoms: C_19  and  C_22
REMARK    7  A    between atoms: C_23  and  C_24
REMARK    8  A    between atoms: C_24  and  C_26
REMARK                            x       y       z     vdW  Elec       q    Type
REMARK                         _______ _______ _______ _____ _____    ______ ____
ROOT
ATOM      2  O   UNL     1      -6.580 -15.020  16.554  0.00  0.00    -0.268 OA
ATOM      3  O   UNL     1      -8.377 -10.356  18.446  0.00  0.00    -0.272 OA
ATOM      7  N   UNL     1      -6.306 -10.074  17.430  0.00  0.00    -0.298 N 
ATOM      8  N   UNL     1      -5.548 -12.941  16.230  0.00  0.00    -0.310 N 
ATOM     10  C   UNL     1      -4.502 -11.634  18.169  0.00  0.00    +0.027 C 
ATOM     11  C   UNL     1      -4.454 -10.699  15.895  0.00  0.00    +0.055 C 
ATOM     12  C   UNL     1      -3.584 -11.065  17.098  0.00  0.00    +0.018 C 
ATOM     13  C   UNL     1      -5.567 -10.603  18.579  0.00  0.00    +0.113 C 
ATOM     14  C   UNL     1      -5.122 -12.927  17.635  0.00  0.00    +0.130 C 
ATOM     15  C   UNL     1      -5.471  -9.617  16.309  0.00  0.00    +0.117 C 
ATOM     16  C   UNL     1      -5.189 -11.914  15.334  0.00  0.00    +0.049 A 
ATOM     17  C   UNL     1      -5.538 -12.044  14.036  0.00  0.00    +0.068 A 
ATOM     18  C   UNL     1      -6.254 -14.088  15.817  0.00  0.00    +0.252 A 
ATOM     19  C   UNL     1      -7.695  -9.965  17.494  0.00  0.00    +0.253 C 
ATOM     20  C   UNL     1      -6.252 -13.190  13.549  0.00  0.00    +0.031 A 
ATOM     21  C   UNL     1      -6.613 -14.171  14.378  0.00  0.00    +0.072 A 
ENDROOT
BRANCH  17   9
ATOM      9  N   UNL     1      -5.219 -11.011  13.124  0.00  0.00    -0.219 N 
ATOM     32  H   UNL     1      -4.556 -10.297  13.442  0.00  0.00    +0.173 HD
BRANCH   9   1
ATOM      1  S   UNL     1      -6.528 -10.417  12.215  0.00  0.00    +0.043 S 
ATOM      5  O   UNL     1      -6.684 -11.202  11.005  0.00  0.00    -0.155 OA
ATOM      6  O   UNL     1      -7.651 -10.165  13.096  0.00  0.00    -0.155 OA
BRANCH   1  23
ATOM     23  C   UNL     1      -5.858  -8.844  11.736  0.00  0.00    +0.188 C 
BRANCH  23  24
ATOM     24  C   UNL     1      -5.340  -8.874  10.308  0.00  0.00    +0.021 C 
ATOM     26  C   UNL     1      -3.844  -9.141  10.264  0.00  0.00    +0.005 C 
ENDBRANCH  23  24
ENDBRANCH   1  23
ENDBRANCH   9   1
ENDBRANCH  17   9
BRANCH  19  22
ATOM     22  C   UNL     1      -8.379  -9.334  16.307  0.00  0.00    +0.324 C 
BRANCH  22   4
ATOM      4  O   UNL     1      -9.759  -9.543  16.481  0.00  0.00    -0.483 OA
BRANCH   4  25
ATOM     25  C   UNL     1     -10.592  -8.465  16.284  0.00  0.00    +0.121 A 
ATOM     27  C   UNL     1     -11.964  -8.632  16.404  0.00  0.00    +0.045 A 
ATOM     28  C   UNL     1     -10.045  -7.230  15.969  0.00  0.00    +0.045 A 
ATOM     29  C   UNL     1     -12.807  -7.539  16.205  0.00  0.00    +0.004 A 
ATOM     30  C   UNL     1     -10.888  -6.137  15.771  0.00  0.00    +0.004 A 
ATOM     31  C   UNL     1     -12.270  -6.292  15.889  0.00  0.00    +0.000 A 
ENDBRANCH   4  25
ENDBRANCH  22   4
ENDBRANCH  19  22
TORSDOF 7
ENDMDL
