MODEL 1
REMARK VINA RESULT:      -7.7      0.000      0.000
REMARK  Name = 11884149
REMARK  7 active torsions:
REMARK  status: ('A' for Active; 'I' for Inactive)
REMARK    1  A    between atoms: O_3  and  C_13
REMARK    2  A    between atoms: O_3  and  C_17
REMARK    3  A    between atoms: N_8  and  C_12
REMARK    4  A    between atoms: N_9  and  C_20
REMARK    5  A    between atoms: C_16  and  C_18
REMARK    6  A    between atoms: C_27  and  C_28
REMARK    7  A    between atoms: C_28  and  C_29
REMARK                            x       y       z     vdW  Elec       q    Type
REMARK                         _______ _______ _______ _____ _____    ______ ____
ROOT
ATOM      1  O   UNL     1      12.297  10.018  20.939  0.00  0.00    -0.368 OA
ATOM      2  O   UNL     1      10.386   8.086  22.361  0.00  0.00    -0.368 OA
ATOM     10  C   UNL     1      11.508   8.852  22.848  0.00  0.00    +0.173 C 
ATOM     11  C   UNL     1      12.548   8.855  21.745  0.00  0.00    +0.192 C 
ATOM     12  C   UNL     1      11.122  10.307  22.987  0.00  0.00    +0.130 C 
ATOM     13  C   UNL     1      12.238   7.580  21.000  0.00  0.00    +0.235 C 
ATOM     14  C   UNL     1      11.282  10.819  21.566  0.00  0.00    +0.185 C 
ATOM     15  C   UNL     1      10.730   7.516  21.089  0.00  0.00    +0.207 C 
ENDROOT
BRANCH  12   8
ATOM      4  O   UNL     1      10.382  12.386  24.741  0.00  0.00    -0.267 OA
ATOM      8  N   UNL     1      12.004  10.997  23.895  0.00  0.00    -0.301 N 
ATOM     16  C   UNL     1      11.557  12.019  24.733  0.00  0.00    +0.280 C 
ATOM     30  H   UNL     1      12.971  10.693  23.961  0.00  0.00    +0.150 HD
BRANCH  16  18
ATOM      6  O   UNL     1      13.575  11.797  25.983  0.00  0.00    -0.458 OA
ATOM     18  C   UNL     1      12.568  12.602  25.627  0.00  0.00    +0.189 A 
ATOM     19  C   UNL     1      12.648  13.838  26.153  0.00  0.00    +0.054 A 
ATOM     21  C   UNL     1      13.832  13.820  26.929  0.00  0.00    +0.042 A 
ATOM     22  C   UNL     1      14.359  12.557  26.792  0.00  0.00    +0.196 A 
ENDBRANCH  16  18
ENDBRANCH  12   8
BRANCH  13   3
ATOM      3  O   UNL     1      12.691   7.584  19.665  0.00  0.00    -0.442 OA
BRANCH   3  17
ATOM      5  O   UNL     1      14.530   8.613  18.777  0.00  0.00    -0.226 OA
ATOM      9  N   UNL     1      14.720   6.729  20.152  0.00  0.00    -0.251 N 
ATOM     17  C   UNL     1      14.049   7.723  19.467  0.00  0.00    +0.405 C 
ATOM     31  H   UNL     1      14.142   6.075  20.674  0.00  0.00    +0.158 HD
BRANCH   9  20
ATOM     20  C   UNL     1      16.114   6.504  20.217  0.00  0.00    +0.036 A 
ATOM     23  C   UNL     1      16.810   6.884  21.355  0.00  0.00    +0.024 A 
ATOM     24  C   UNL     1      16.757   5.910  19.144  0.00  0.00    +0.024 A 
ATOM     25  C   UNL     1      18.186   6.662  21.420  0.00  0.00    +0.013 A 
ATOM     26  C   UNL     1      18.133   5.688  19.209  0.00  0.00    +0.013 A 
ATOM     27  C   UNL     1      18.847   6.064  20.346  0.00  0.00    +0.017 A 
BRANCH  27  28
ATOM      7  O   UNL     1      20.761   4.685  20.316  0.00  0.00    -0.292 OA
ATOM     28  C   UNL     1      20.282   5.832  20.414  0.00  0.00    +0.160 C 
ATOM     29  C   UNL     1      21.241   7.001  20.611  0.00  0.00    +0.091 C 
ENDBRANCH  27  28
ENDBRANCH   9  20
ENDBRANCH   3  17
ENDBRANCH  13   3
TORSDOF 6
ENDMDL
MODEL 2
REMARK VINA RESULT:      -6.9      1.745      2.875
REMARK  Name = 11884149
REMARK  7 active torsions:
REMARK  status: ('A' for Active; 'I' for Inactive)
REMARK    1  A    between atoms: O_3  and  C_13
REMARK    2  A    between atoms: O_3  and  C_17
REMARK    3  A    between atoms: N_8  and  C_12
REMARK    4  A    between atoms: N_9  and  C_20
REMARK    5  A    between atoms: C_16  and  C_18
REMARK    6  A    between atoms: C_27  and  C_28
REMARK    7  A    between atoms: C_28  and  C_29
REMARK                            x       y       z     vdW  Elec       q    Type
REMARK                         _______ _______ _______ _____ _____    ______ ____
ROOT
ATOM      1  O   UNL     1      13.749   9.575  19.450  0.00  0.00    -0.368 OA
ATOM      2  O   UNL     1      11.855   7.227  20.006  0.00  0.00    -0.368 OA
ATOM     10  C   UNL     1      12.363   8.270  20.865  0.00  0.00    +0.173 C 
ATOM     11  C   UNL     1      13.794   8.532  20.438  0.00  0.00    +0.192 C 
ATOM     12  C   UNL     1      11.654   9.573  20.574  0.00  0.00    +0.130 C 
ATOM     13  C   UNL     1      14.203   7.209  19.838  0.00  0.00    +0.235 C 
ATOM     14  C   UNL     1      12.411  10.087  19.362  0.00  0.00    +0.185 C 
ATOM     15  C   UNL     1      12.924   6.750  19.175  0.00  0.00    +0.207 C 
ENDROOT
BRANCH  12   8
ATOM      4  O   UNL     1      10.389   9.277  23.077  0.00  0.00    -0.267 OA
ATOM      8  N   UNL     1      11.761  10.485  21.686  0.00  0.00    -0.301 N 
ATOM     16  C   UNL     1      11.100  10.266  22.895  0.00  0.00    +0.280 C 
ATOM     30  H   UNL     1      12.378  11.288  21.599  0.00  0.00    +0.150 HD
BRANCH  16  18
ATOM      6  O   UNL     1      10.259  11.942  24.365  0.00  0.00    -0.458 OA
ATOM     18  C   UNL     1      11.334  11.268  23.944  0.00  0.00    +0.189 A 
ATOM     19  C   UNL     1      12.475  11.624  24.562  0.00  0.00    +0.054 A 
ATOM     21  C   UNL     1      12.088  12.633  25.475  0.00  0.00    +0.042 A 
ATOM     22  C   UNL     1      10.731  12.790  25.317  0.00  0.00    +0.196 A 
ENDBRANCH  16  18
ENDBRANCH  12   8
BRANCH  13   3
ATOM      3  O   UNL     1      15.268   7.313  18.921  0.00  0.00    -0.442 OA
BRANCH   3  17
ATOM      5  O   UNL     1      16.602   5.501  18.512  0.00  0.00    -0.226 OA
ATOM      9  N   UNL     1      17.121   7.056  20.182  0.00  0.00    -0.251 N 
ATOM     17  C   UNL     1      16.372   6.518  19.154  0.00  0.00    +0.405 C 
ATOM     31  H   UNL     1      16.764   7.915  20.595  0.00  0.00    +0.158 HD
BRANCH   9  20
ATOM     20  C   UNL     1      18.323   6.560  20.736  0.00  0.00    +0.036 A 
ATOM     23  C   UNL     1      19.060   5.622  20.029  0.00  0.00    +0.024 A 
ATOM     24  C   UNL     1      18.741   7.020  21.973  0.00  0.00    +0.024 A 
ATOM     25  C   UNL     1      20.247   5.133  20.575  0.00  0.00    +0.013 A 
ATOM     26  C   UNL     1      19.928   6.532  22.519  0.00  0.00    +0.013 A 
ATOM     27  C   UNL     1      20.680   5.588  21.821  0.00  0.00    +0.017 A 
BRANCH  27  28
ATOM      7  O   UNL     1      22.001   4.766  23.594  0.00  0.00    -0.292 OA
ATOM     28  C   UNL     1      21.918   5.078  22.390  0.00  0.00    +0.160 C 
ATOM     29  C   UNL     1      23.157   4.913  21.515  0.00  0.00    +0.091 C 
ENDBRANCH  27  28
ENDBRANCH   9  20
ENDBRANCH   3  17
ENDBRANCH  13   3
TORSDOF 6
ENDMDL
MODEL 3
REMARK VINA RESULT:      -6.8      3.095      5.244
REMARK  Name = 11884149
REMARK  7 active torsions:
REMARK  status: ('A' for Active; 'I' for Inactive)
REMARK    1  A    between atoms: O_3  and  C_13
REMARK    2  A    between atoms: O_3  and  C_17
REMARK    3  A    between atoms: N_8  and  C_12
REMARK    4  A    between atoms: N_9  and  C_20
REMARK    5  A    between atoms: C_16  and  C_18
REMARK    6  A    between atoms: C_27  and  C_28
REMARK    7  A    between atoms: C_28  and  C_29
REMARK                            x       y       z     vdW  Elec       q    Type
REMARK                         _______ _______ _______ _____ _____    ______ ____
ROOT
ATOM      1  O   UNL     1      16.751   9.008  20.675  0.00  0.00    -0.368 OA
ATOM      2  O   UNL     1      15.255   6.444  19.906  0.00  0.00    -0.368 OA
ATOM     10  C   UNL     1      15.107   7.336  21.030  0.00  0.00    +0.173 C 
ATOM     11  C   UNL     1      16.499   7.799  21.410  0.00  0.00    +0.192 C 
ATOM     12  C   UNL     1      14.409   8.605  20.597  0.00  0.00    +0.130 C 
ATOM     13  C   UNL     1      17.365   6.660  20.927  0.00  0.00    +0.235 C 
ATOM     14  C   UNL     1      15.549   9.411  20.001  0.00  0.00    +0.185 C 
ATOM     15  C   UNL     1      16.654   6.233  19.663  0.00  0.00    +0.207 C 
ENDROOT
BRANCH  12   8
ATOM      4  O   UNL     1      12.038  10.131  20.538  0.00  0.00    -0.267 OA
ATOM      8  N   UNL     1      13.817   9.285  21.722  0.00  0.00    -0.301 N 
ATOM     16  C   UNL     1      12.637  10.023  21.609  0.00  0.00    +0.280 C 
ATOM     30  H   UNL     1      14.248   9.182  22.636  0.00  0.00    +0.150 HD
BRANCH  16  18
ATOM      6  O   UNL     1      13.041  11.298  23.582  0.00  0.00    -0.458 OA
ATOM     18  C   UNL     1      12.141  10.631  22.852  0.00  0.00    +0.189 A 
ATOM     19  C   UNL     1      10.905  10.628  23.383  0.00  0.00    +0.054 A 
ATOM     21  C   UNL     1      11.029  11.370  24.581  0.00  0.00    +0.042 A 
ATOM     22  C   UNL     1      12.347  11.757  24.657  0.00  0.00    +0.196 A 
ENDBRANCH  16  18
ENDBRANCH  12   8
BRANCH  13   3
ATOM      3  O   UNL     1      18.702   7.034  20.684  0.00  0.00    -0.442 OA
BRANCH   3  17
ATOM      5  O   UNL     1      19.787   6.203  22.518  0.00  0.00    -0.226 OA
ATOM      9  N   UNL     1      20.471   5.678  20.342  0.00  0.00    -0.251 N 
ATOM     17  C   UNL     1      19.682   6.284  21.300  0.00  0.00    +0.405 C 
ATOM     31  H   UNL     1      20.225   5.867  19.373  0.00  0.00    +0.158 HD
BRANCH   9  20
ATOM     20  C   UNL     1      21.583   4.827  20.540  0.00  0.00    +0.036 A 
ATOM     23  C   UNL     1      21.378   3.544  21.023  0.00  0.00    +0.024 A 
ATOM     24  C   UNL     1      22.854   5.292  20.247  0.00  0.00    +0.024 A 
ATOM     25  C   UNL     1      22.475   2.704  21.217  0.00  0.00    +0.013 A 
ATOM     26  C   UNL     1      23.951   4.453  20.441  0.00  0.00    +0.013 A 
ATOM     27  C   UNL     1      23.762   3.159  20.927  0.00  0.00    +0.017 A 
BRANCH  27  28
ATOM      7  O   UNL     1      26.067   2.665  20.886  0.00  0.00    -0.292 OA
ATOM     28  C   UNL     1      24.905   2.284  21.129  0.00  0.00    +0.160 C 
ATOM     29  C   UNL     1      24.704   0.863  21.647  0.00  0.00    +0.091 C 
ENDBRANCH  27  28
ENDBRANCH   9  20
ENDBRANCH   3  17
ENDBRANCH  13   3
TORSDOF 6
ENDMDL
MODEL 4
REMARK VINA RESULT:      -6.7     26.884     29.332
REMARK  Name = 11884149
REMARK  7 active torsions:
REMARK  status: ('A' for Active; 'I' for Inactive)
REMARK    1  A    between atoms: O_3  and  C_13
REMARK    2  A    between atoms: O_3  and  C_17
REMARK    3  A    between atoms: N_8  and  C_12
REMARK    4  A    between atoms: N_9  and  C_20
REMARK    5  A    between atoms: C_16  and  C_18
REMARK    6  A    between atoms: C_27  and  C_28
REMARK    7  A    between atoms: C_28  and  C_29
REMARK                            x       y       z     vdW  Elec       q    Type
REMARK                         _______ _______ _______ _____ _____    ______ ____
ROOT
ATOM      1  O   UNL     1      -4.024 -12.166  14.635  0.00  0.00    -0.368 OA
ATOM      2  O   UNL     1      -2.166 -10.769  16.635  0.00  0.00    -0.368 OA
ATOM     10  C   UNL     1      -3.505 -10.459  16.198  0.00  0.00    +0.173 C 
ATOM     11  C   UNL     1      -3.575 -10.803  14.723  0.00  0.00    +0.192 C 
ATOM     12  C   UNL     1      -4.494 -11.405  16.838  0.00  0.00    +0.130 C 
ATOM     13  C   UNL     1      -2.139 -10.657  14.284  0.00  0.00    +0.235 C 
ATOM     14  C   UNL     1      -4.395 -12.628  15.943  0.00  0.00    +0.185 C 
ATOM     15  C   UNL     1      -1.383 -11.156  15.496  0.00  0.00    +0.207 C 
ENDROOT
BRANCH  12   8
ATOM      4  O   UNL     1      -6.009 -10.721  19.115  0.00  0.00    -0.267 OA
ATOM      8  N   UNL     1      -5.826 -10.854  16.829  0.00  0.00    -0.301 N 
ATOM     16  C   UNL     1      -6.510 -10.542  18.005  0.00  0.00    +0.280 C 
ATOM     30  H   UNL     1      -6.259 -10.641  15.935  0.00  0.00    +0.150 HD
BRANCH  16  18
ATOM      6  O   UNL     1      -7.921  -8.880  17.040  0.00  0.00    -0.458 OA
ATOM     18  C   UNL     1      -7.847  -9.956  17.831  0.00  0.00    +0.189 A 
ATOM     19  C   UNL     1      -9.031 -10.334  18.346  0.00  0.00    +0.054 A 
ATOM     21  C   UNL     1      -9.960  -9.400  17.831  0.00  0.00    +0.042 A 
ATOM     22  C   UNL     1      -9.236  -8.537  17.042  0.00  0.00    +0.196 A 
ENDBRANCH  16  18
ENDBRANCH  12   8
BRANCH  13   3
ATOM      3  O   UNL     1      -1.827 -11.395  13.124  0.00  0.00    -0.442 OA
BRANCH   3  17
ATOM      5  O   UNL     1      -1.511  -9.838  11.479  0.00  0.00    -0.226 OA
ATOM      9  N   UNL     1      -3.176 -11.476  11.318  0.00  0.00    -0.251 N 
ATOM     17  C   UNL     1      -2.124 -10.806  11.912  0.00  0.00    +0.405 C 
ATOM     31  H   UNL     1      -3.556 -12.263  11.837  0.00  0.00    +0.158 HD
BRANCH   9  20
ATOM     20  C   UNL     1      -3.792 -11.202  10.076  0.00  0.00    +0.036 A 
ATOM     23  C   UNL     1      -4.005 -12.238   9.180  0.00  0.00    +0.024 A 
ATOM     24  C   UNL     1      -4.172  -9.903   9.778  0.00  0.00    +0.024 A 
ATOM     25  C   UNL     1      -4.614 -11.968   7.954  0.00  0.00    +0.013 A 
ATOM     26  C   UNL     1      -4.782  -9.633   8.553  0.00  0.00    +0.013 A 
ATOM     27  C   UNL     1      -5.002 -10.664   7.641  0.00  0.00    +0.017 A 
BRANCH  27  28
ATOM      7  O   UNL     1      -5.331 -11.012   5.332  0.00  0.00    -0.292 OA
ATOM     28  C   UNL     1      -5.638 -10.383   6.363  0.00  0.00    +0.160 C 
ATOM     29  C   UNL     1      -6.704  -9.297   6.258  0.00  0.00    +0.091 C 
ENDBRANCH  27  28
ENDBRANCH   9  20
ENDBRANCH   3  17
ENDBRANCH  13   3
TORSDOF 6
ENDMDL
MODEL 5
REMARK VINA RESULT:      -6.7     26.770     30.178
REMARK  Name = 11884149
REMARK  7 active torsions:
REMARK  status: ('A' for Active; 'I' for Inactive)
REMARK    1  A    between atoms: O_3  and  C_13
REMARK    2  A    between atoms: O_3  and  C_17
REMARK    3  A    between atoms: N_8  and  C_12
REMARK    4  A    between atoms: N_9  and  C_20
REMARK    5  A    between atoms: C_16  and  C_18
REMARK    6  A    between atoms: C_27  and  C_28
REMARK    7  A    between atoms: C_28  and  C_29
REMARK                            x       y       z     vdW  Elec       q    Type
REMARK                         _______ _______ _______ _____ _____    ______ ____
ROOT
ATOM      1  O   UNL     1     -11.899  -8.346  14.699  0.00  0.00    -0.368 OA
ATOM      2  O   UNL     1     -11.149  -5.924  16.425  0.00  0.00    -0.368 OA
ATOM     10  C   UNL     1     -11.056  -6.150  15.003  0.00  0.00    +0.173 C 
ATOM     11  C   UNL     1     -10.673  -7.604  14.814  0.00  0.00    +0.192 C 
ATOM     12  C   UNL     1     -12.425  -6.050  14.370  0.00  0.00    +0.130 C 
ATOM     13  C   UNL     1      -9.946  -7.920  16.098  0.00  0.00    +0.235 C 
ATOM     14  C   UNL     1     -13.002  -7.430  14.635  0.00  0.00    +0.185 C 
ATOM     15  C   UNL     1     -10.721  -7.109  17.112  0.00  0.00    +0.207 C 
ENDROOT
BRANCH  12   8
ATOM      4  O   UNL     1     -12.673  -3.522  13.148  0.00  0.00    -0.267 OA
ATOM      8  N   UNL     1     -12.329  -5.785  12.956  0.00  0.00    -0.301 N 
ATOM     16  C   UNL     1     -12.465  -4.500  12.429  0.00  0.00    +0.280 C 
ATOM     30  H   UNL     1     -12.106  -6.553  12.330  0.00  0.00    +0.150 HD
BRANCH  16  18
ATOM      6  O   UNL     1     -12.990  -5.270  10.235  0.00  0.00    -0.458 OA
ATOM     18  C   UNL     1     -12.308  -4.385  10.972  0.00  0.00    +0.189 A 
ATOM     19  C   UNL     1     -11.580  -3.519  10.245  0.00  0.00    +0.054 A 
ATOM     21  C   UNL     1     -11.820  -3.890   8.901  0.00  0.00    +0.042 A 
ATOM     22  C   UNL     1     -12.684  -4.959   8.948  0.00  0.00    +0.196 A 
ENDBRANCH  16  18
ENDBRANCH  12   8
BRANCH  13   3
ATOM      3  O   UNL     1      -9.934  -9.294  16.414  0.00  0.00    -0.442 OA
BRANCH   3  17
ATOM      5  O   UNL     1      -9.010 -11.060  15.294  0.00  0.00    -0.226 OA
ATOM      9  N   UNL     1      -7.684  -9.431  16.326  0.00  0.00    -0.251 N 
ATOM     17  C   UNL     1      -8.867 -10.033  15.946  0.00  0.00    +0.405 C 
ATOM     31  H   UNL     1      -7.771  -8.575  16.868  0.00  0.00    +0.158 HD
BRANCH   9  20
ATOM     20  C   UNL     1      -6.364  -9.857  16.056  0.00  0.00    +0.036 A 
ATOM     23  C   UNL     1      -5.515 -10.147  17.113  0.00  0.00    +0.024 A 
ATOM     24  C   UNL     1      -5.944  -9.976  14.742  0.00  0.00    +0.024 A 
ATOM     25  C   UNL     1      -4.212 -10.569  16.847  0.00  0.00    +0.013 A 
ATOM     26  C   UNL     1      -4.641 -10.398  14.475  0.00  0.00    +0.013 A 
ATOM     27  C   UNL     1      -3.775 -10.693  15.528  0.00  0.00    +0.017 A 
BRANCH  27  28
ATOM      7  O   UNL     1      -2.186 -12.240  14.724  0.00  0.00    -0.292 OA
ATOM     28  C   UNL     1      -2.416 -11.133  15.250  0.00  0.00    +0.160 C 
ATOM     29  C   UNL     1      -1.232 -10.240  15.604  0.00  0.00    +0.091 C 
ENDBRANCH  27  28
ENDBRANCH   9  20
ENDBRANCH   3  17
ENDBRANCH  13   3
TORSDOF 6
ENDMDL
MODEL 6
REMARK VINA RESULT:      -6.6      4.781      7.404
REMARK  Name = 11884149
REMARK  7 active torsions:
REMARK  status: ('A' for Active; 'I' for Inactive)
REMARK    1  A    between atoms: O_3  and  C_13
REMARK    2  A    between atoms: O_3  and  C_17
REMARK    3  A    between atoms: N_8  and  C_12
REMARK    4  A    between atoms: N_9  and  C_20
REMARK    5  A    between atoms: C_16  and  C_18
REMARK    6  A    between atoms: C_27  and  C_28
REMARK    7  A    between atoms: C_28  and  C_29
REMARK                            x       y       z     vdW  Elec       q    Type
REMARK                         _______ _______ _______ _____ _____    ______ ____
ROOT
ATOM      1  O   UNL     1      13.780  10.549  17.859  0.00  0.00    -0.368 OA
ATOM      2  O   UNL     1      13.784   8.078  16.042  0.00  0.00    -0.368 OA
ATOM     10  C   UNL     1      13.050   9.318  15.967  0.00  0.00    +0.173 C 
ATOM     11  C   UNL     1      12.709   9.712  17.391  0.00  0.00    +0.192 C 
ATOM     12  C   UNL     1      13.956  10.430  15.491  0.00  0.00    +0.130 C 
ATOM     13  C   UNL     1      12.686   8.381  18.102  0.00  0.00    +0.235 C 
ATOM     14  C   UNL     1      14.670  10.833  16.770  0.00  0.00    +0.185 C 
ATOM     15  C   UNL     1      13.797   7.628  17.405  0.00  0.00    +0.207 C 
ENDROOT
BRANCH  12   8
ATOM      4  O   UNL     1      14.442  11.708  13.025  0.00  0.00    -0.267 OA
ATOM      8  N   UNL     1      13.196  11.528  14.947  0.00  0.00    -0.301 N 
ATOM     16  C   UNL     1      13.502  12.107  13.715  0.00  0.00    +0.280 C 
ATOM     30  H   UNL     1      12.380  11.855  15.456  0.00  0.00    +0.150 HD
BRANCH  16  18
ATOM      6  O   UNL     1      12.829  14.389  13.840  0.00  0.00    -0.458 OA
ATOM     18  C   UNL     1      12.614  13.194  13.280  0.00  0.00    +0.189 A 
ATOM     19  C   UNL     1      11.603  13.183  12.393  0.00  0.00    +0.054 A 
ATOM     21  C   UNL     1      11.119  14.513  12.386  0.00  0.00    +0.042 A 
ATOM     22  C   UNL     1      11.898  15.208  13.282  0.00  0.00    +0.196 A 
ENDBRANCH  16  18
ENDBRANCH  12   8
BRANCH  13   3
ATOM      3  O   UNL     1      12.903   8.482  19.491  0.00  0.00    -0.442 OA
BRANCH   3  17
ATOM      5  O   UNL     1      13.659   6.602  20.550  0.00  0.00    -0.226 OA
ATOM      9  N   UNL     1      15.119   8.300  19.870  0.00  0.00    -0.251 N 
ATOM     17  C   UNL     1      13.892   7.684  20.027  0.00  0.00    +0.405 C 
ATOM     31  H   UNL     1      15.110   9.205  19.406  0.00  0.00    +0.158 HD
BRANCH   9  20
ATOM     20  C   UNL     1      16.388   7.829  20.277  0.00  0.00    +0.036 A 
ATOM     23  C   UNL     1      16.905   6.682  19.694  0.00  0.00    +0.024 A 
ATOM     24  C   UNL     1      17.090   8.522  21.248  0.00  0.00    +0.024 A 
ATOM     25  C   UNL     1      18.158   6.217  20.094  0.00  0.00    +0.013 A 
ATOM     26  C   UNL     1      18.343   8.058  21.649  0.00  0.00    +0.013 A 
ATOM     27  C   UNL     1      18.877   6.906  21.073  0.00  0.00    +0.017 A 
BRANCH  27  28
ATOM      7  O   UNL     1      20.351   5.872  22.596  0.00  0.00    -0.292 OA
ATOM     28  C   UNL     1      20.184   6.422  21.490  0.00  0.00    +0.160 C 
ATOM     29  C   UNL     1      21.391   6.580  20.572  0.00  0.00    +0.091 C 
ENDBRANCH  27  28
ENDBRANCH   9  20
ENDBRANCH   3  17
ENDBRANCH  13   3
TORSDOF 6
ENDMDL
MODEL 7
REMARK VINA RESULT:      -6.5     26.576     30.079
REMARK  Name = 11884149
REMARK  7 active torsions:
REMARK  status: ('A' for Active; 'I' for Inactive)
REMARK    1  A    between atoms: O_3  and  C_13
REMARK    2  A    between atoms: O_3  and  C_17
REMARK    3  A    between atoms: N_8  and  C_12
REMARK    4  A    between atoms: N_9  and  C_20
REMARK    5  A    between atoms: C_16  and  C_18
REMARK    6  A    between atoms: C_27  and  C_28
REMARK    7  A    between atoms: C_28  and  C_29
REMARK                            x       y       z     vdW  Elec       q    Type
REMARK                         _______ _______ _______ _____ _____    ______ ____
ROOT
ATOM      1  O   UNL     1     -14.605   9.030  32.264  0.00  0.00    -0.368 OA
ATOM      2  O   UNL     1     -11.927   8.719  33.726  0.00  0.00    -0.368 OA
ATOM     10  C   UNL     1     -12.259   8.681  32.323  0.00  0.00    +0.173 C 
ATOM     11  C   UNL     1     -13.607   7.996  32.210  0.00  0.00    +0.192 C 
ATOM     12  C   UNL     1     -12.519  10.079  31.812  0.00  0.00    +0.130 C 
ATOM     13  C   UNL     1     -13.636   7.126  33.442  0.00  0.00    +0.235 C 
ATOM     14  C   UNL     1     -13.960  10.312  32.232  0.00  0.00    +0.185 C 
ATOM     15  C   UNL     1     -12.922   7.988  34.458  0.00  0.00    +0.207 C 
ENDROOT
BRANCH  12   8
ATOM      4  O   UNL     1     -10.837  11.856  30.411  0.00  0.00    -0.267 OA
ATOM      8  N   UNL     1     -12.373  10.148  30.379  0.00  0.00    -0.301 N 
ATOM     16  C   UNL     1     -11.516  11.060  29.762  0.00  0.00    +0.280 C 
ATOM     30  H   UNL     1     -12.875   9.477  29.805  0.00  0.00    +0.150 HD
BRANCH  16  18
ATOM      6  O   UNL     1     -12.152  11.909  27.627  0.00  0.00    -0.458 OA
ATOM     18  C   UNL     1     -11.451  10.986  28.295  0.00  0.00    +0.189 A 
ATOM     19  C   UNL     1     -10.789  10.126  27.501  0.00  0.00    +0.054 A 
ATOM     21  C   UNL     1     -11.100  10.543  26.184  0.00  0.00    +0.042 A 
ATOM     22  C   UNL     1     -11.931  11.631  26.315  0.00  0.00    +0.196 A 
ENDBRANCH  16  18
ENDBRANCH  12   8
BRANCH  13   3
ATOM      3  O   UNL     1     -14.938   6.783  33.859  0.00  0.00    -0.442 OA
BRANCH   3  17
ATOM      5  O   UNL     1     -16.346   5.001  34.125  0.00  0.00    -0.226 OA
ATOM      9  N   UNL     1     -14.508   4.909  32.679  0.00  0.00    -0.251 N 
ATOM     17  C   UNL     1     -15.359   5.496  33.596  0.00  0.00    +0.405 C 
ATOM     31  H   UNL     1     -13.736   5.484  32.351  0.00  0.00    +0.158 HD
BRANCH   9  20
ATOM     20  C   UNL     1     -14.575   3.604  32.140  0.00  0.00    +0.036 A 
ATOM     23  C   UNL     1     -14.536   3.436  30.764  0.00  0.00    +0.024 A 
ATOM     24  C   UNL     1     -14.679   2.520  32.995  0.00  0.00    +0.024 A 
ATOM     25  C   UNL     1     -14.602   2.147  30.231  0.00  0.00    +0.013 A 
ATOM     26  C   UNL     1     -14.744   1.232  32.463  0.00  0.00    +0.013 A 
ATOM     27  C   UNL     1     -14.706   1.046  31.082  0.00  0.00    +0.017 A 
BRANCH  27  28
ATOM      7  O   UNL     1     -15.692  -1.082  30.833  0.00  0.00    -0.292 OA
ATOM     28  C   UNL     1     -14.774  -0.297  30.526  0.00  0.00    +0.160 C 
ATOM     29  C   UNL     1     -13.709  -0.778  29.546  0.00  0.00    +0.091 C 
ENDBRANCH  27  28
ENDBRANCH   9  20
ENDBRANCH   3  17
ENDBRANCH  13   3
TORSDOF 6
ENDMDL
MODEL 8
REMARK VINA RESULT:      -6.5     27.755     29.455
REMARK  Name = 11884149
REMARK  7 active torsions:
REMARK  status: ('A' for Active; 'I' for Inactive)
REMARK    1  A    between atoms: O_3  and  C_13
REMARK    2  A    between atoms: O_3  and  C_17
REMARK    3  A    between atoms: N_8  and  C_12
REMARK    4  A    between atoms: N_9  and  C_20
REMARK    5  A    between atoms: C_16  and  C_18
REMARK    6  A    between atoms: C_27  and  C_28
REMARK    7  A    between atoms: C_28  and  C_29
REMARK                            x       y       z     vdW  Elec       q    Type
REMARK                         _______ _______ _______ _____ _____    ______ ____
ROOT
ATOM      1  O   UNL     1      -6.822 -11.672  17.130  0.00  0.00    -0.368 OA
ATOM      2  O   UNL     1      -6.451 -10.926  20.082  0.00  0.00    -0.368 OA
ATOM     10  C   UNL     1      -7.008 -10.190  18.973  0.00  0.00    +0.173 C 
ATOM     11  C   UNL     1      -6.182 -10.545  17.752  0.00  0.00    +0.192 C 
ATOM     12  C   UNL     1      -8.387 -10.712  18.642  0.00  0.00    +0.130 C 
ATOM     13  C   UNL     1      -4.851 -10.920  18.356  0.00  0.00    +0.235 C 
ATOM     14  C   UNL     1      -8.073 -11.927  17.786  0.00  0.00    +0.185 C 
ATOM     15  C   UNL     1      -5.264 -11.602  19.641  0.00  0.00    +0.207 C 
ENDROOT
BRANCH  12   8
ATOM      4  O   UNL     1     -11.080 -10.032  19.123  0.00  0.00    -0.267 OA
ATOM      8  N   UNL     1      -9.153  -9.737  17.908  0.00  0.00    -0.301 N 
ATOM     16  C   UNL     1     -10.487  -9.458  18.209  0.00  0.00    +0.280 C 
ATOM     30  H   UNL     1      -8.690  -9.201  17.179  0.00  0.00    +0.150 HD
BRANCH  16  18
ATOM      6  O   UNL     1     -10.412  -7.297  17.206  0.00  0.00    -0.458 OA
ATOM     18  C   UNL     1     -11.123  -8.414  17.392  0.00  0.00    +0.189 A 
ATOM     19  C   UNL     1     -12.326  -8.400  16.790  0.00  0.00    +0.054 A 
ATOM     21  C   UNL     1     -12.391  -7.140  16.150  0.00  0.00    +0.042 A 
ATOM     22  C   UNL     1     -11.203  -6.507  16.432  0.00  0.00    +0.196 A 
ENDBRANCH  16  18
ENDBRANCH  12   8
BRANCH  13   3
ATOM      3  O   UNL     1      -4.077 -11.763  17.533  0.00  0.00    -0.442 OA
BRANCH   3  17
ATOM      5  O   UNL     1      -2.561 -10.547  16.329  0.00  0.00    -0.226 OA
ATOM      9  N   UNL     1      -4.417 -11.548  15.314  0.00  0.00    -0.251 N 
ATOM     17  C   UNL     1      -3.586 -11.216  16.366  0.00  0.00    +0.405 C 
ATOM     31  H   UNL     1      -5.227 -12.117  15.545  0.00  0.00    +0.158 HD
BRANCH   9  20
ATOM     20  C   UNL     1      -4.282 -11.193  13.952  0.00  0.00    +0.036 A 
ATOM     23  C   UNL     1      -5.173 -10.288  13.396  0.00  0.00    +0.024 A 
ATOM     24  C   UNL     1      -3.264 -11.756  13.201  0.00  0.00    +0.024 A 
ATOM     25  C   UNL     1      -5.040  -9.937  12.051  0.00  0.00    +0.013 A 
ATOM     26  C   UNL     1      -3.131 -11.405  11.857  0.00  0.00    +0.013 A 
ATOM     27  C   UNL     1      -4.019 -10.496  11.283  0.00  0.00    +0.017 A 
BRANCH  27  28
ATOM      7  O   UNL     1      -3.353  -9.053   9.541  0.00  0.00    -0.292 OA
ATOM     28  C   UNL     1      -3.880 -10.130   9.882  0.00  0.00    +0.160 C 
ATOM     29  C   UNL     1      -4.384 -11.066   8.788  0.00  0.00    +0.091 C 
ENDBRANCH  27  28
ENDBRANCH   9  20
ENDBRANCH   3  17
ENDBRANCH  13   3
TORSDOF 6
ENDMDL
MODEL 9
REMARK VINA RESULT:      -6.3     18.498     21.152
REMARK  Name = 11884149
REMARK  7 active torsions:
REMARK  status: ('A' for Active; 'I' for Inactive)
REMARK    1  A    between atoms: O_3  and  C_13
REMARK    2  A    between atoms: O_3  and  C_17
REMARK    3  A    between atoms: N_8  and  C_12
REMARK    4  A    between atoms: N_9  and  C_20
REMARK    5  A    between atoms: C_16  and  C_18
REMARK    6  A    between atoms: C_27  and  C_28
REMARK    7  A    between atoms: C_28  and  C_29
REMARK                            x       y       z     vdW  Elec       q    Type
REMARK                         _______ _______ _______ _____ _____    ______ ____
ROOT
ATOM      1  O   UNL     1       4.586  11.716   2.758  0.00  0.00    -0.368 OA
ATOM      2  O   UNL     1       5.287   9.571   0.682  0.00  0.00    -0.368 OA
ATOM     10  C   UNL     1       4.215   9.656   1.643  0.00  0.00    +0.173 C 
ATOM     11  C   UNL     1       4.791  10.300   2.888  0.00  0.00    +0.192 C 
ATOM     12  C   UNL     1       3.173  10.646   1.173  0.00  0.00    +0.130 C 
ATOM     13  C   UNL     1       6.253   9.935   2.798  0.00  0.00    +0.235 C 
ATOM     14  C   UNL     1       3.775  11.973   1.601  0.00  0.00    +0.185 C 
ATOM     15  C   UNL     1       6.506  10.000   1.308  0.00  0.00    +0.207 C 
ENDROOT
BRANCH  12   8
ATOM      4  O   UNL     1       0.647  10.798  -0.070  0.00  0.00    -0.267 OA
ATOM      8  N   UNL     1       1.903  10.413   1.815  0.00  0.00    -0.301 N 
ATOM     16  C   UNL     1       0.693  10.510   1.126  0.00  0.00    +0.280 C 
ATOM     30  H   UNL     1       1.896  10.122   2.788  0.00  0.00    +0.150 HD
BRANCH  16  18
ATOM      6  O   UNL     1      -0.314   9.785   3.161  0.00  0.00    -0.458 OA
ATOM     18  C   UNL     1      -0.514  10.211   1.910  0.00  0.00    +0.189 A 
ATOM     19  C   UNL     1      -1.812  10.301   1.567  0.00  0.00    +0.054 A 
ATOM     21  C   UNL     1      -2.516   9.886   2.723  0.00  0.00    +0.042 A 
ATOM     22  C   UNL     1      -1.560   9.584   3.664  0.00  0.00    +0.196 A 
ENDBRANCH  16  18
ENDBRANCH  12   8
BRANCH  13   3
ATOM      3  O   UNL     1       7.095  10.807   3.517  0.00  0.00    -0.442 OA
BRANCH   3  17
ATOM      5  O   UNL     1       9.159  10.728   4.499  0.00  0.00    -0.226 OA
ATOM      9  N   UNL     1       7.571   9.044   4.842  0.00  0.00    -0.251 N 
ATOM     17  C   UNL     1       8.057  10.225   4.317  0.00  0.00    +0.405 C 
ATOM     31  H   UNL     1       6.623   8.790   4.572  0.00  0.00    +0.158 HD
BRANCH   9  20
ATOM     20  C   UNL     1       8.227   8.139   5.706  0.00  0.00    +0.036 A 
ATOM     23  C   UNL     1       8.759   8.604   6.899  0.00  0.00    +0.024 A 
ATOM     24  C   UNL     1       8.327   6.805   5.345  0.00  0.00    +0.024 A 
ATOM     25  C   UNL     1       9.406   7.711   7.753  0.00  0.00    +0.013 A 
ATOM     26  C   UNL     1       8.974   5.912   6.199  0.00  0.00    +0.013 A 
ATOM     27  C   UNL     1       9.514   6.365   7.402  0.00  0.00    +0.017 A 
BRANCH  27  28
ATOM      7  O   UNL     1      11.388   5.581   8.602  0.00  0.00    -0.292 OA
ATOM     28  C   UNL     1      10.189   5.433   8.293  0.00  0.00    +0.160 C 
ATOM     29  C   UNL     1       9.435   4.241   8.873  0.00  0.00    +0.091 C 
ENDBRANCH  27  28
ENDBRANCH   9  20
ENDBRANCH   3  17
ENDBRANCH  13   3
TORSDOF 6
ENDMDL
MODEL 10
REMARK VINA RESULT:      -6.2     27.518     30.705
REMARK  Name = 11884149
REMARK  7 active torsions:
REMARK  status: ('A' for Active; 'I' for Inactive)
REMARK    1  A    between atoms: O_3  and  C_13
REMARK    2  A    between atoms: O_3  and  C_17
REMARK    3  A    between atoms: N_8  and  C_12
REMARK    4  A    between atoms: N_9  and  C_20
REMARK    5  A    between atoms: C_16  and  C_18
REMARK    6  A    between atoms: C_27  and  C_28
REMARK    7  A    between atoms: C_28  and  C_29
REMARK                            x       y       z     vdW  Elec       q    Type
REMARK                         _______ _______ _______ _____ _____    ______ ____
ROOT
ATOM      1  O   UNL     1      -6.354  -9.992  17.370  0.00  0.00    -0.368 OA
ATOM      2  O   UNL     1      -6.102 -13.017  17.814  0.00  0.00    -0.368 OA
ATOM     10  C   UNL     1      -6.077 -12.222  16.610  0.00  0.00    +0.173 C 
ATOM     11  C   UNL     1      -7.076 -11.099  16.805  0.00  0.00    +0.192 C 
ATOM     12  C   UNL     1      -4.750 -11.509  16.486  0.00  0.00    +0.130 C 
ATOM     13  C   UNL     1      -8.050 -11.695  17.792  0.00  0.00    +0.235 C 
ATOM     14  C   UNL     1      -4.951 -10.298  17.380  0.00  0.00    +0.185 C 
ATOM     15  C   UNL     1      -7.144 -12.526  18.672  0.00  0.00    +0.207 C 
ENDROOT
BRANCH  12   8
ATOM      4  O   UNL     1      -2.207 -11.088  15.345  0.00  0.00    -0.267 OA
ATOM      8  N   UNL     1      -4.493 -11.117  15.122  0.00  0.00    -0.301 N 
ATOM     16  C   UNL     1      -3.199 -10.928  14.634  0.00  0.00    +0.280 C 
ATOM     30  H   UNL     1      -5.279 -11.024  14.486  0.00  0.00    +0.150 HD
BRANCH  16  18
ATOM      6  O   UNL     1      -4.240 -10.207  12.615  0.00  0.00    -0.458 OA
ATOM     18  C   UNL     1      -3.098 -10.562  13.214  0.00  0.00    +0.189 A 
ATOM     19  C   UNL     1      -2.025 -10.524  12.404  0.00  0.00    +0.054 A 
ATOM     21  C   UNL     1      -2.534 -10.100  11.154  0.00  0.00    +0.042 A 
ATOM     22  C   UNL     1      -3.886  -9.919  11.334  0.00  0.00    +0.196 A 
ENDBRANCH  16  18
ENDBRANCH  12   8
BRANCH  13   3
ATOM      3  O   UNL     1      -8.766 -10.730  18.528  0.00  0.00    -0.442 OA
BRANCH   3  17
ATOM      5  O   UNL     1     -10.999 -10.655  18.042  0.00  0.00    -0.226 OA
ATOM      9  N   UNL     1      -9.504  -9.061  17.202  0.00  0.00    -0.251 N 
ATOM     17  C   UNL     1      -9.877 -10.180  17.922  0.00  0.00    +0.405 C 
ATOM     31  H   UNL     1      -8.516  -8.823  17.225  0.00  0.00    +0.158 HD
BRANCH   9  20
ATOM     20  C   UNL     1     -10.326  -8.206  16.435  0.00  0.00    +0.036 A 
ATOM     23  C   UNL     1     -10.683  -6.968  16.947  0.00  0.00    +0.024 A 
ATOM     24  C   UNL     1     -10.760  -8.621  15.187  0.00  0.00    +0.024 A 
ATOM     25  C   UNL     1     -11.494  -6.122  16.189  0.00  0.00    +0.013 A 
ATOM     26  C   UNL     1     -11.571  -7.776  14.429  0.00  0.00    +0.013 A 
ATOM     27  C   UNL     1     -11.938  -6.527  14.930  0.00  0.00    +0.017 A 
BRANCH  27  28
ATOM      7  O   UNL     1     -14.025  -5.663  14.252  0.00  0.00    -0.292 OA
ATOM     28  C   UNL     1     -12.784  -5.646  14.140  0.00  0.00    +0.160 C 
ATOM     29  C   UNL     1     -12.162  -4.673  13.144  0.00  0.00    +0.091 C 
ENDBRANCH  27  28
ENDBRANCH   9  20
ENDBRANCH   3  17
ENDBRANCH  13   3
TORSDOF 6
ENDMDL
