MODEL 1
REMARK VINA RESULT:      -7.2      0.000      0.000
REMARK  Name = 45783543
REMARK  11 active torsions:
REMARK  status: ('A' for Active; 'I' for Inactive)
REMARK    1  A    between atoms: O_2  and  C_26
REMARK    2  A    between atoms: O_3  and  C_28
REMARK    3  A    between atoms: O_3  and  C_29
REMARK    4  A    between atoms: O_5  and  C_30
REMARK    5  A    between atoms: O_5  and  C_31
REMARK    6  A    between atoms: N_6  and  C_14
REMARK    7  A    between atoms: C_10  and  C_15
REMARK    8  A    between atoms: C_14  and  C_16
REMARK    9  A    between atoms: C_19  and  C_23
REMARK   10  A    between atoms: C_22  and  C_26
REMARK   11  A    between atoms: C_29  and  C_30
REMARK                            x       y       z     vdW  Elec       q    Type
REMARK                         _______ _______ _______ _____ _____    ______ ____
ROOT
ATOM      6  N   UNL     1      12.559   8.555  18.572  0.00  0.00    -0.287 NA
ATOM     10  C   UNL     1      13.664   7.716  18.067  0.00  0.00    +0.146 C 
ATOM     11  C   UNL     1      13.927   8.232  16.640  0.00  0.00    +0.030 C 
ATOM     12  C   UNL     1      12.884   9.316  16.412  0.00  0.00    +0.017 C 
ATOM     13  C   UNL     1      11.788   8.972  17.401  0.00  0.00    +0.085 C 
ENDROOT
BRANCH  10  15
ATOM      1  O   UNL     1      15.043   8.904  19.699  0.00  0.00    -0.336 OA
ATOM      7  N   UNL     1      15.854   6.903  19.100  0.00  0.00    -0.190 NA
ATOM      8  N   UNL     1      16.234   8.735  20.417  0.00  0.00    -0.056 NA
ATOM     15  C   UNL     1      14.894   7.781  18.948  0.00  0.00    +0.245 A 
ATOM     19  C   UNL     1      16.652   7.532  20.010  0.00  0.00    +0.204 A 
BRANCH  19  23
ATOM      9  N   UNL     1      19.635   6.892  22.137  0.00  0.00    -0.221 NA
ATOM     23  C   UNL     1      17.861   6.932  20.494  0.00  0.00    +0.041 A 
ATOM     24  C   UNL     1      18.436   5.850  19.837  0.00  0.00    +0.018 A 
ATOM     25  C   UNL     1      18.495   7.412  21.629  0.00  0.00    +0.126 A 
ATOM     27  C   UNL     1      19.609   5.288  20.328  0.00  0.00    +0.068 A 
ATOM     28  C   UNL     1      20.164   5.842  21.471  0.00  0.00    +0.215 A 
BRANCH  28   3
ATOM      3  O   UNL     1      21.321   5.306  21.976  0.00  0.00    -0.474 OA
BRANCH   3  29
ATOM     29  C   UNL     1      22.256   4.799  21.032  0.00  0.00    +0.258 C 
BRANCH  29  30
ATOM     30  C   UNL     1      22.415   3.306  21.245  0.00  0.00    +0.200 C 
BRANCH  30   5
ATOM      5  O   UNL     1      23.796   2.973  21.183  0.00  0.00    -0.380 OA
ATOM     31  C   UNL     1      23.991   1.566  21.133  0.00  0.00    +0.194 C 
ENDBRANCH  30   5
ENDBRANCH  29  30
ENDBRANCH   3  29
ENDBRANCH  28   3
ENDBRANCH  19  23
ENDBRANCH  10  15
BRANCH   6  14
ATOM     14  C   UNL     1      11.730   7.877  19.561  0.00  0.00    +0.120 C 
BRANCH  14  16
ATOM     16  C   UNL     1      11.503   8.730  20.781  0.00  0.00    -0.033 A 
ATOM     17  C   UNL     1      11.904  10.066  20.782  0.00  0.00    +0.006 A 
ATOM     18  C   UNL     1      10.890   8.185  21.910  0.00  0.00    +0.006 A 
ATOM     20  C   UNL     1      11.693  10.856  21.912  0.00  0.00    +0.015 A 
ATOM     21  C   UNL     1      10.680   8.976  23.039  0.00  0.00    +0.015 A 
ATOM     22  C   UNL     1      11.081  10.311  23.041  0.00  0.00    +0.059 A 
BRANCH  22  26
ATOM      4  O   UNL     1      10.185  12.169  24.253  0.00  0.00    -0.245 OA
ATOM     26  C   UNL     1      10.861  11.136  24.218  0.00  0.00    +0.337 C 
BRANCH  26   2
ATOM      2  O   UNL     1      11.490  10.646  25.321  0.00  0.00    -0.477 OA
ATOM     32  H   UNL     1      10.923  10.700  26.120  0.00  0.00    +0.295 HD
ENDBRANCH  26   2
ENDBRANCH  22  26
ENDBRANCH  14  16
ENDBRANCH   6  14
TORSDOF 10
ENDMDL
MODEL 2
REMARK VINA RESULT:      -6.9     27.095     31.281
REMARK  Name = 45783543
REMARK  11 active torsions:
REMARK  status: ('A' for Active; 'I' for Inactive)
REMARK    1  A    between atoms: O_2  and  C_26
REMARK    2  A    between atoms: O_3  and  C_28
REMARK    3  A    between atoms: O_3  and  C_29
REMARK    4  A    between atoms: O_5  and  C_30
REMARK    5  A    between atoms: O_5  and  C_31
REMARK    6  A    between atoms: N_6  and  C_14
REMARK    7  A    between atoms: C_10  and  C_15
REMARK    8  A    between atoms: C_14  and  C_16
REMARK    9  A    between atoms: C_19  and  C_23
REMARK   10  A    between atoms: C_22  and  C_26
REMARK   11  A    between atoms: C_29  and  C_30
REMARK                            x       y       z     vdW  Elec       q    Type
REMARK                         _______ _______ _______ _____ _____    ______ ____
ROOT
ATOM      6  N   UNL     1     -14.818   6.208  21.234  0.00  0.00    -0.287 NA
ATOM     10  C   UNL     1     -16.068   6.182  22.020  0.00  0.00    +0.146 C 
ATOM     11  C   UNL     1     -17.190   6.318  20.974  0.00  0.00    +0.030 C 
ATOM     12  C   UNL     1     -16.473   6.474  19.641  0.00  0.00    +0.017 C 
ATOM     13  C   UNL     1     -15.102   6.988  20.030  0.00  0.00    +0.085 C 
ENDROOT
BRANCH  10  15
ATOM      1  O   UNL     1     -16.310   3.756  22.188  0.00  0.00    -0.336 OA
ATOM      7  N   UNL     1     -16.227   4.807  24.165  0.00  0.00    -0.190 NA
ATOM      8  N   UNL     1     -16.421   2.758  23.165  0.00  0.00    -0.056 NA
ATOM     15  C   UNL     1     -16.201   4.931  22.862  0.00  0.00    +0.245 A 
ATOM     19  C   UNL     1     -16.363   3.456  24.303  0.00  0.00    +0.204 A 
BRANCH  19  23
ATOM      9  N   UNL     1     -16.223   3.023  27.994  0.00  0.00    -0.221 NA
ATOM     23  C   UNL     1     -16.437   2.834  25.594  0.00  0.00    +0.041 A 
ATOM     24  C   UNL     1     -16.778   1.492  25.723  0.00  0.00    +0.018 A 
ATOM     25  C   UNL     1     -16.171   3.549  26.750  0.00  0.00    +0.126 A 
ATOM     27  C   UNL     1     -16.843   0.915  26.986  0.00  0.00    +0.068 A 
ATOM     28  C   UNL     1     -16.557   1.716  28.080  0.00  0.00    +0.215 A 
BRANCH  28   3
ATOM      3  O   UNL     1     -16.614   1.171  29.337  0.00  0.00    -0.474 OA
BRANCH   3  29
ATOM     29  C   UNL     1     -15.441   1.276  30.133  0.00  0.00    +0.258 C 
BRANCH  29  30
ATOM     30  C   UNL     1     -14.916  -0.117  30.427  0.00  0.00    +0.200 C 
BRANCH  30   5
ATOM      5  O   UNL     1     -14.399  -0.679  29.227  0.00  0.00    -0.380 OA
ATOM     31  C   UNL     1     -13.060  -1.126  29.396  0.00  0.00    +0.194 C 
ENDBRANCH  30   5
ENDBRANCH  29  30
ENDBRANCH   3  29
ENDBRANCH  28   3
ENDBRANCH  19  23
ENDBRANCH  10  15
BRANCH   6  14
ATOM     14  C   UNL     1     -13.683   6.741  21.978  0.00  0.00    +0.120 C 
BRANCH  14  16
ATOM     16  C   UNL     1     -12.795   7.592  21.111  0.00  0.00    -0.033 A 
ATOM     17  C   UNL     1     -12.808   8.980  21.250  0.00  0.00    +0.006 A 
ATOM     18  C   UNL     1     -11.958   6.993  20.169  0.00  0.00    +0.006 A 
ATOM     20  C   UNL     1     -11.984   9.769  20.447  0.00  0.00    +0.015 A 
ATOM     21  C   UNL     1     -11.134   7.782  19.366  0.00  0.00    +0.015 A 
ATOM     22  C   UNL     1     -11.147   9.170  19.505  0.00  0.00    +0.059 A 
BRANCH  22  26
ATOM      4  O   UNL     1     -10.349  11.223  18.569  0.00  0.00    -0.245 OA
ATOM     26  C   UNL     1     -10.288   9.993  18.668  0.00  0.00    +0.337 C 
BRANCH  26   2
ATOM      2  O   UNL     1      -9.375   9.257  17.978  0.00  0.00    -0.477 OA
ATOM     32  H   UNL     1      -8.889   8.636  18.561  0.00  0.00    +0.295 HD
ENDBRANCH  26   2
ENDBRANCH  22  26
ENDBRANCH  14  16
ENDBRANCH   6  14
TORSDOF 10
ENDMDL
MODEL 3
REMARK VINA RESULT:      -6.7     30.242     33.389
REMARK  Name = 45783543
REMARK  11 active torsions:
REMARK  status: ('A' for Active; 'I' for Inactive)
REMARK    1  A    between atoms: O_2  and  C_26
REMARK    2  A    between atoms: O_3  and  C_28
REMARK    3  A    between atoms: O_3  and  C_29
REMARK    4  A    between atoms: O_5  and  C_30
REMARK    5  A    between atoms: O_5  and  C_31
REMARK    6  A    between atoms: N_6  and  C_14
REMARK    7  A    between atoms: C_10  and  C_15
REMARK    8  A    between atoms: C_14  and  C_16
REMARK    9  A    between atoms: C_19  and  C_23
REMARK   10  A    between atoms: C_22  and  C_26
REMARK   11  A    between atoms: C_29  and  C_30
REMARK                            x       y       z     vdW  Elec       q    Type
REMARK                         _______ _______ _______ _____ _____    ______ ____
ROOT
ATOM      6  N   UNL     1     -14.391   5.534  33.293  0.00  0.00    -0.287 NA
ATOM     10  C   UNL     1     -15.825   5.855  33.147  0.00  0.00    +0.146 C 
ATOM     11  C   UNL     1     -15.891   7.392  33.226  0.00  0.00    +0.030 C 
ATOM     12  C   UNL     1     -14.458   7.839  33.477  0.00  0.00    +0.017 C 
ATOM     13  C   UNL     1     -13.803   6.615  34.084  0.00  0.00    +0.085 C 
ENDROOT
BRANCH  10  15
ATOM      1  O   UNL     1     -17.534   4.546  31.989  0.00  0.00    -0.336 OA
ATOM      7  N   UNL     1     -16.006   5.463  30.630  0.00  0.00    -0.190 NA
ATOM      8  N   UNL     1     -17.887   4.162  30.689  0.00  0.00    -0.056 NA
ATOM     15  C   UNL     1     -16.416   5.309  31.864  0.00  0.00    +0.245 A 
ATOM     19  C   UNL     1     -16.941   4.742  29.946  0.00  0.00    +0.204 A 
BRANCH  19  23
ATOM      9  N   UNL     1     -17.522   5.493  26.350  0.00  0.00    -0.221 NA
ATOM     23  C   UNL     1     -16.900   4.619  28.517  0.00  0.00    +0.041 A 
ATOM     24  C   UNL     1     -16.236   3.560  27.908  0.00  0.00    +0.018 A 
ATOM     25  C   UNL     1     -17.522   5.550  27.701  0.00  0.00    +0.126 A 
ATOM     27  C   UNL     1     -16.213   3.467  26.521  0.00  0.00    +0.068 A 
ATOM     28  C   UNL     1     -16.866   4.449  25.794  0.00  0.00    +0.215 A 
BRANCH  28   3
ATOM      3  O   UNL     1     -16.858   4.380  24.425  0.00  0.00    -0.474 OA
BRANCH   3  29
ATOM     29  C   UNL     1     -15.588   4.259  23.798  0.00  0.00    +0.258 C 
BRANCH  29  30
ATOM     30  C   UNL     1     -15.652   4.893  22.422  0.00  0.00    +0.200 C 
BRANCH  30   5
ATOM      5  O   UNL     1     -14.441   4.617  21.728  0.00  0.00    -0.380 OA
ATOM     31  C   UNL     1     -13.315   5.146  22.416  0.00  0.00    +0.194 C 
ENDBRANCH  30   5
ENDBRANCH  29  30
ENDBRANCH   3  29
ENDBRANCH  28   3
ENDBRANCH  19  23
ENDBRANCH  10  15
BRANCH   6  14
ATOM     14  C   UNL     1     -14.154   4.226  33.890  0.00  0.00    +0.120 C 
BRANCH  14  16
ATOM     16  C   UNL     1     -14.133   3.132  32.856  0.00  0.00    -0.033 A 
ATOM     17  C   UNL     1     -14.824   1.943  33.085  0.00  0.00    +0.006 A 
ATOM     18  C   UNL     1     -13.422   3.308  31.668  0.00  0.00    +0.006 A 
ATOM     20  C   UNL     1     -14.806   0.930  32.126  0.00  0.00    +0.015 A 
ATOM     21  C   UNL     1     -13.404   2.295  30.710  0.00  0.00    +0.015 A 
ATOM     22  C   UNL     1     -14.095   1.106  30.939  0.00  0.00    +0.059 A 
BRANCH  22  26
ATOM      4  O   UNL     1     -14.940  -0.135  29.075  0.00  0.00    -0.245 OA
ATOM     26  C   UNL     1     -14.076   0.049  29.939  0.00  0.00    +0.337 C 
BRANCH  26   2
ATOM      2  O   UNL     1     -12.977  -0.746  30.045  0.00  0.00    -0.477 OA
ATOM     32  H   UNL     1     -13.124  -1.495  30.661  0.00  0.00    +0.295 HD
ENDBRANCH  26   2
ENDBRANCH  22  26
ENDBRANCH  14  16
ENDBRANCH   6  14
TORSDOF 10
ENDMDL
MODEL 4
REMARK VINA RESULT:      -6.5     27.437     29.939
REMARK  Name = 45783543
REMARK  11 active torsions:
REMARK  status: ('A' for Active; 'I' for Inactive)
REMARK    1  A    between atoms: O_2  and  C_26
REMARK    2  A    between atoms: O_3  and  C_28
REMARK    3  A    between atoms: O_3  and  C_29
REMARK    4  A    between atoms: O_5  and  C_30
REMARK    5  A    between atoms: O_5  and  C_31
REMARK    6  A    between atoms: N_6  and  C_14
REMARK    7  A    between atoms: C_10  and  C_15
REMARK    8  A    between atoms: C_14  and  C_16
REMARK    9  A    between atoms: C_19  and  C_23
REMARK   10  A    between atoms: C_22  and  C_26
REMARK   11  A    between atoms: C_29  and  C_30
REMARK                            x       y       z     vdW  Elec       q    Type
REMARK                         _______ _______ _______ _____ _____    ______ ____
ROOT
ATOM      6  N   UNL     1     -10.251 -11.949  19.034  0.00  0.00    -0.287 NA
ATOM     10  C   UNL     1      -9.086 -12.453  19.788  0.00  0.00    +0.146 C 
ATOM     11  C   UNL     1      -9.167 -13.986  19.654  0.00  0.00    +0.030 C 
ATOM     12  C   UNL     1     -10.439 -14.248  18.863  0.00  0.00    +0.017 C 
ATOM     13  C   UNL     1     -11.267 -13.000  19.092  0.00  0.00    +0.085 C 
ENDROOT
BRANCH  10  15
ATOM      1  O   UNL     1      -6.976 -11.291  20.200  0.00  0.00    -0.336 OA
ATOM      7  N   UNL     1      -7.287 -11.891  18.065  0.00  0.00    -0.190 NA
ATOM      8  N   UNL     1      -5.841 -10.855  19.503  0.00  0.00    -0.056 NA
ATOM     15  C   UNL     1      -7.776 -11.890  19.279  0.00  0.00    +0.245 A 
ATOM     19  C   UNL     1      -6.100 -11.245  18.252  0.00  0.00    +0.204 A 
BRANCH  19  23
ATOM      9  N   UNL     1      -4.848 -10.329  14.872  0.00  0.00    -0.221 NA
ATOM     23  C   UNL     1      -5.192 -11.007  17.167  0.00  0.00    +0.041 A 
ATOM     24  C   UNL     1      -3.825 -11.208  17.320  0.00  0.00    +0.018 A 
ATOM     25  C   UNL     1      -5.649 -10.571  15.934  0.00  0.00    +0.126 A 
ATOM     27  C   UNL     1      -2.968 -10.969  16.251  0.00  0.00    +0.068 A 
ATOM     28  C   UNL     1      -3.525 -10.535  15.059  0.00  0.00    +0.215 A 
BRANCH  28   3
ATOM      3  O   UNL     1      -2.702 -10.293  13.990  0.00  0.00    -0.474 OA
BRANCH   3  29
ATOM     29  C   UNL     1      -3.152 -10.748  12.720  0.00  0.00    +0.258 C 
BRANCH  29  30
ATOM     30  C   UNL     1      -1.982 -10.759  11.755  0.00  0.00    +0.200 C 
BRANCH  30   5
ATOM      5  O   UNL     1      -2.001  -9.560  10.990  0.00  0.00    -0.380 OA
ATOM     31  C   UNL     1      -3.224  -9.415  10.281  0.00  0.00    +0.194 C 
ENDBRANCH  30   5
ENDBRANCH  29  30
ENDBRANCH   3  29
ENDBRANCH  28   3
ENDBRANCH  19  23
ENDBRANCH  10  15
BRANCH   6  14
ATOM     14  C   UNL     1     -10.751 -10.675  19.536  0.00  0.00    +0.120 C 
BRANCH  14  16
ATOM     16  C   UNL     1     -10.771  -9.619  18.463  0.00  0.00    -0.033 A 
ATOM     17  C   UNL     1      -9.576  -9.052  18.022  0.00  0.00    +0.006 A 
ATOM     18  C   UNL     1     -11.984  -9.208  17.909  0.00  0.00    +0.006 A 
ATOM     20  C   UNL     1      -9.593  -8.074  17.027  0.00  0.00    +0.015 A 
ATOM     21  C   UNL     1     -12.001  -8.230  16.915  0.00  0.00    +0.015 A 
ATOM     22  C   UNL     1     -10.806  -7.663  16.474  0.00  0.00    +0.059 A 
BRANCH  22  26
ATOM      4  O   UNL     1     -11.715  -6.496  14.593  0.00  0.00    -0.245 OA
ATOM     26  C   UNL     1     -10.825  -6.643  15.437  0.00  0.00    +0.337 C 
BRANCH  26   2
ATOM      2  O   UNL     1      -9.732  -5.834  15.484  0.00  0.00    -0.477 OA
ATOM     32  H   UNL     1      -9.396  -5.726  16.400  0.00  0.00    +0.295 HD
ENDBRANCH  26   2
ENDBRANCH  22  26
ENDBRANCH  14  16
ENDBRANCH   6  14
TORSDOF 10
ENDMDL
MODEL 5
REMARK VINA RESULT:      -6.4     27.364     29.759
REMARK  Name = 45783543
REMARK  11 active torsions:
REMARK  status: ('A' for Active; 'I' for Inactive)
REMARK    1  A    between atoms: O_2  and  C_26
REMARK    2  A    between atoms: O_3  and  C_28
REMARK    3  A    between atoms: O_3  and  C_29
REMARK    4  A    between atoms: O_5  and  C_30
REMARK    5  A    between atoms: O_5  and  C_31
REMARK    6  A    between atoms: N_6  and  C_14
REMARK    7  A    between atoms: C_10  and  C_15
REMARK    8  A    between atoms: C_14  and  C_16
REMARK    9  A    between atoms: C_19  and  C_23
REMARK   10  A    between atoms: C_22  and  C_26
REMARK   11  A    between atoms: C_29  and  C_30
REMARK                            x       y       z     vdW  Elec       q    Type
REMARK                         _______ _______ _______ _____ _____    ______ ____
ROOT
ATOM      6  N   UNL     1      -3.250 -11.908  14.023  0.00  0.00    -0.287 NA
ATOM     10  C   UNL     1      -2.388 -11.868  12.825  0.00  0.00    +0.146 C 
ATOM     11  C   UNL     1      -2.293 -13.335  12.364  0.00  0.00    +0.030 C 
ATOM     12  C   UNL     1      -3.082 -14.128  13.395  0.00  0.00    +0.017 C 
ATOM     13  C   UNL     1      -3.073 -13.232  14.618  0.00  0.00    +0.085 C 
ENDROOT
BRANCH  10  15
ATOM      1  O   UNL     1      -2.081  -9.988  11.294  0.00  0.00    -0.336 OA
ATOM      7  N   UNL     1      -4.106 -10.940  11.181  0.00  0.00    -0.190 NA
ATOM      8  N   UNL     1      -2.794  -9.275  10.321  0.00  0.00    -0.056 NA
ATOM     15  C   UNL     1      -2.927 -10.950  11.749  0.00  0.00    +0.245 A 
ATOM     19  C   UNL     1      -3.977  -9.896  10.312  0.00  0.00    +0.204 A 
BRANCH  19  23
ATOM      9  N   UNL     1      -7.057  -8.194   9.109  0.00  0.00    -0.221 NA
ATOM     23  C   UNL     1      -5.050  -9.498   9.446  0.00  0.00    +0.041 A 
ATOM     24  C   UNL     1      -5.147  -9.996   8.152  0.00  0.00    +0.018 A 
ATOM     25  C   UNL     1      -6.022  -8.608   9.873  0.00  0.00    +0.126 A 
ATOM     27  C   UNL     1      -6.197  -9.594   7.334  0.00  0.00    +0.068 A 
ATOM     28  C   UNL     1      -7.118  -8.700   7.857  0.00  0.00    +0.215 A 
BRANCH  28   3
ATOM      3  O   UNL     1      -8.164  -8.287   7.071  0.00  0.00    -0.474 OA
BRANCH   3  29
ATOM     29  C   UNL     1      -8.346  -6.884   6.934  0.00  0.00    +0.258 C 
BRANCH  29  30
ATOM     30  C   UNL     1      -9.714  -6.507   7.471  0.00  0.00    +0.200 C 
BRANCH  30   5
ATOM      5  O   UNL     1      -9.561  -5.919   8.756  0.00  0.00    -0.380 OA
ATOM     31  C   UNL     1     -10.138  -4.621   8.806  0.00  0.00    +0.194 C 
ENDBRANCH  30   5
ENDBRANCH  29  30
ENDBRANCH   3  29
ENDBRANCH  28   3
ENDBRANCH  19  23
ENDBRANCH  10  15
BRANCH   6  14
ATOM     14  C   UNL     1      -2.964 -10.838  14.972  0.00  0.00    +0.120 C 
BRANCH  14  16
ATOM     16  C   UNL     1      -4.040 -10.714  16.018  0.00  0.00    -0.033 A 
ATOM     17  C   UNL     1      -5.241 -10.076  15.709  0.00  0.00    +0.006 A 
ATOM     18  C   UNL     1      -3.835 -11.237  17.295  0.00  0.00    +0.006 A 
ATOM     20  C   UNL     1      -6.238  -9.961  16.678  0.00  0.00    +0.015 A 
ATOM     21  C   UNL     1      -4.832 -11.121  18.263  0.00  0.00    +0.015 A 
ATOM     22  C   UNL     1      -6.034 -10.484  17.955  0.00  0.00    +0.059 A 
BRANCH  22  26
ATOM      4  O   UNL     1      -8.280 -10.549  18.776  0.00  0.00    -0.245 OA
ATOM     26  C   UNL     1      -7.073 -10.364  18.965  0.00  0.00    +0.337 C 
BRANCH  26   2
ATOM      2  O   UNL     1      -6.577 -10.017  20.184  0.00  0.00    -0.477 OA
ATOM     32  H   UNL     1      -5.626  -9.781  20.138  0.00  0.00    +0.295 HD
ENDBRANCH  26   2
ENDBRANCH  22  26
ENDBRANCH  14  16
ENDBRANCH   6  14
TORSDOF 10
ENDMDL
MODEL 6
REMARK VINA RESULT:      -6.3     26.740     30.145
REMARK  Name = 45783543
REMARK  11 active torsions:
REMARK  status: ('A' for Active; 'I' for Inactive)
REMARK    1  A    between atoms: O_2  and  C_26
REMARK    2  A    between atoms: O_3  and  C_28
REMARK    3  A    between atoms: O_3  and  C_29
REMARK    4  A    between atoms: O_5  and  C_30
REMARK    5  A    between atoms: O_5  and  C_31
REMARK    6  A    between atoms: N_6  and  C_14
REMARK    7  A    between atoms: C_10  and  C_15
REMARK    8  A    between atoms: C_14  and  C_16
REMARK    9  A    between atoms: C_19  and  C_23
REMARK   10  A    between atoms: C_22  and  C_26
REMARK   11  A    between atoms: C_29  and  C_30
REMARK                            x       y       z     vdW  Elec       q    Type
REMARK                         _______ _______ _______ _____ _____    ______ ____
ROOT
ATOM      6  N   UNL     1      -3.172 -10.749  14.426  0.00  0.00    -0.287 NA
ATOM     10  C   UNL     1      -3.037 -11.323  15.780  0.00  0.00    +0.146 C 
ATOM     11  C   UNL     1      -1.736 -10.712  16.335  0.00  0.00    +0.030 C 
ATOM     12  C   UNL     1      -1.183  -9.860  15.203  0.00  0.00    +0.017 C 
ATOM     13  C   UNL     1      -1.815 -10.458  13.962  0.00  0.00    +0.085 C 
ENDROOT
BRANCH  10  15
ATOM      1  O   UNL     1      -4.067 -11.207  17.993  0.00  0.00    -0.336 OA
ATOM      7  N   UNL     1      -5.439 -10.643  16.315  0.00  0.00    -0.190 NA
ATOM      8  N   UNL     1      -5.296 -10.888  18.585  0.00  0.00    -0.056 NA
ATOM     15  C   UNL     1      -4.238 -11.037  16.656  0.00  0.00    +0.245 A 
ATOM     19  C   UNL     1      -6.052 -10.565  17.532  0.00  0.00    +0.204 A 
BRANCH  19  23
ATOM      9  N   UNL     1      -9.208  -8.672  17.001  0.00  0.00    -0.221 NA
ATOM     23  C   UNL     1      -7.422 -10.161  17.661  0.00  0.00    +0.041 A 
ATOM     24  C   UNL     1      -8.283 -10.820  18.532  0.00  0.00    +0.018 A 
ATOM     25  C   UNL     1      -7.929  -9.102  16.925  0.00  0.00    +0.126 A 
ATOM     27  C   UNL     1      -9.607 -10.407  18.637  0.00  0.00    +0.068 A 
ATOM     28  C   UNL     1     -10.016  -9.336  17.858  0.00  0.00    +0.215 A 
BRANCH  28   3
ATOM      3  O   UNL     1     -11.316  -8.909  17.943  0.00  0.00    -0.474 OA
BRANCH   3  29
ATOM     29  C   UNL     1     -12.138  -9.130  16.804  0.00  0.00    +0.258 C 
BRANCH  29  30
ATOM     30  C   UNL     1     -12.714  -7.804  16.345  0.00  0.00    +0.200 C 
BRANCH  30   5
ATOM      5  O   UNL     1     -11.854  -7.243  15.360  0.00  0.00    -0.380 OA
ATOM     31  C   UNL     1     -11.415  -5.943  15.734  0.00  0.00    +0.194 C 
ENDBRANCH  30   5
ENDBRANCH  29  30
ENDBRANCH   3  29
ENDBRANCH  28   3
ENDBRANCH  19  23
ENDBRANCH  10  15
BRANCH   6  14
ATOM     14  C   UNL     1      -3.892 -11.618  13.504  0.00  0.00    +0.120 C 
BRANCH  14  16
ATOM     16  C   UNL     1      -4.425 -10.858  12.318  0.00  0.00    -0.033 A 
ATOM     17  C   UNL     1      -5.406  -9.883  12.500  0.00  0.00    +0.006 A 
ATOM     18  C   UNL     1      -3.940 -11.130  11.039  0.00  0.00    +0.006 A 
ATOM     20  C   UNL     1      -5.899  -9.178  11.402  0.00  0.00    +0.015 A 
ATOM     21  C   UNL     1      -4.434 -10.425   9.941  0.00  0.00    +0.015 A 
ATOM     22  C   UNL     1      -5.414  -9.449  10.122  0.00  0.00    +0.059 A 
BRANCH  22  26
ATOM      4  O   UNL     1      -6.864  -7.908   9.006  0.00  0.00    -0.245 OA
ATOM     26  C   UNL     1      -5.929  -8.715   8.978  0.00  0.00    +0.337 C 
BRANCH  26   2
ATOM      2  O   UNL     1      -5.260  -9.006   7.829  0.00  0.00    -0.477 OA
ATOM     32  H   UNL     1      -4.444  -9.522   8.002  0.00  0.00    +0.295 HD
ENDBRANCH  26   2
ENDBRANCH  22  26
ENDBRANCH  14  16
ENDBRANCH   6  14
TORSDOF 10
ENDMDL
MODEL 7
REMARK VINA RESULT:      -6.3     14.653     17.390
REMARK  Name = 45783543
REMARK  11 active torsions:
REMARK  status: ('A' for Active; 'I' for Inactive)
REMARK    1  A    between atoms: O_2  and  C_26
REMARK    2  A    between atoms: O_3  and  C_28
REMARK    3  A    between atoms: O_3  and  C_29
REMARK    4  A    between atoms: O_5  and  C_30
REMARK    5  A    between atoms: O_5  and  C_31
REMARK    6  A    between atoms: N_6  and  C_14
REMARK    7  A    between atoms: C_10  and  C_15
REMARK    8  A    between atoms: C_14  and  C_16
REMARK    9  A    between atoms: C_19  and  C_23
REMARK   10  A    between atoms: C_22  and  C_26
REMARK   11  A    between atoms: C_29  and  C_30
REMARK                            x       y       z     vdW  Elec       q    Type
REMARK                         _______ _______ _______ _____ _____    ______ ____
ROOT
ATOM      6  N   UNL     1       9.791   6.771   5.455  0.00  0.00    -0.287 NA
ATOM     10  C   UNL     1      10.501   7.872   6.138  0.00  0.00    +0.146 C 
ATOM     11  C   UNL     1       9.860   7.942   7.537  0.00  0.00    +0.030 C 
ATOM     12  C   UNL     1       8.763   6.888   7.524  0.00  0.00    +0.017 C 
ATOM     13  C   UNL     1       8.456   6.708   6.051  0.00  0.00    +0.085 C 
ENDROOT
BRANCH  10  15
ATOM      1  O   UNL     1      12.446   6.736   7.088  0.00  0.00    -0.336 OA
ATOM      7  N   UNL     1      12.946   8.225   5.490  0.00  0.00    -0.190 NA
ATOM      8  N   UNL     1      13.840   6.711   6.955  0.00  0.00    -0.056 NA
ATOM     15  C   UNL     1      11.998   7.653   6.191  0.00  0.00    +0.245 A 
ATOM     19  C   UNL     1      14.057   7.614   5.994  0.00  0.00    +0.204 A 
BRANCH  19  23
ATOM      9  N   UNL     1      16.979   7.885   3.709  0.00  0.00    -0.221 NA
ATOM     23  C   UNL     1      15.372   7.929   5.515  0.00  0.00    +0.041 A 
ATOM     24  C   UNL     1      16.302   8.557   6.337  0.00  0.00    +0.018 A 
ATOM     25  C   UNL     1      15.757   7.617   4.221  0.00  0.00    +0.126 A 
ATOM     27  C   UNL     1      17.569   8.851   5.846  0.00  0.00    +0.068 A 
ATOM     28  C   UNL     1      17.856   8.496   4.538  0.00  0.00    +0.215 A 
BRANCH  28   3
ATOM      3  O   UNL     1      19.099   8.774   4.030  0.00  0.00    -0.474 OA
BRANCH   3  29
ATOM     29  C   UNL     1      19.846   7.674   3.529  0.00  0.00    +0.258 C 
BRANCH  29  30
ATOM     30  C   UNL     1      20.697   7.102   4.647  0.00  0.00    +0.200 C 
BRANCH  30   5
ATOM      5  O   UNL     1      21.717   6.288   4.082  0.00  0.00    -0.380 OA
ATOM     31  C   UNL     1      21.937   6.604   2.713  0.00  0.00    +0.194 C 
ENDBRANCH  30   5
ENDBRANCH  29  30
ENDBRANCH   3  29
ENDBRANCH  28   3
ENDBRANCH  19  23
ENDBRANCH  10  15
BRANCH   6  14
ATOM     14  C   UNL     1       9.737   6.934   4.008  0.00  0.00    +0.120 C 
BRANCH  14  16
ATOM     16  C   UNL     1      10.704   6.019   3.305  0.00  0.00    -0.033 A 
ATOM     17  C   UNL     1      10.503   4.639   3.333  0.00  0.00    +0.006 A 
ATOM     18  C   UNL     1      11.801   6.551   2.626  0.00  0.00    +0.006 A 
ATOM     20  C   UNL     1      11.399   3.791   2.681  0.00  0.00    +0.015 A 
ATOM     21  C   UNL     1      12.696   5.702   1.975  0.00  0.00    +0.015 A 
ATOM     22  C   UNL     1      12.495   4.322   2.002  0.00  0.00    +0.059 A 
BRANCH  22  26
ATOM      4  O   UNL     1      14.503   3.038   1.785  0.00  0.00    -0.245 OA
ATOM     26  C   UNL     1      13.429   3.438   1.322  0.00  0.00    +0.337 C 
BRANCH  26   2
ATOM      2  O   UNL     1      12.995   3.075   0.084  0.00  0.00    -0.477 OA
ATOM     32  H   UNL     1      12.473   2.245   0.108  0.00  0.00    +0.295 HD
ENDBRANCH  26   2
ENDBRANCH  22  26
ENDBRANCH  14  16
ENDBRANCH   6  14
TORSDOF 10
ENDMDL
MODEL 8
REMARK VINA RESULT:      -6.3     25.678     30.942
REMARK  Name = 45783543
REMARK  11 active torsions:
REMARK  status: ('A' for Active; 'I' for Inactive)
REMARK    1  A    between atoms: O_2  and  C_26
REMARK    2  A    between atoms: O_3  and  C_28
REMARK    3  A    between atoms: O_3  and  C_29
REMARK    4  A    between atoms: O_5  and  C_30
REMARK    5  A    between atoms: O_5  and  C_31
REMARK    6  A    between atoms: N_6  and  C_14
REMARK    7  A    between atoms: C_10  and  C_15
REMARK    8  A    between atoms: C_14  and  C_16
REMARK    9  A    between atoms: C_19  and  C_23
REMARK   10  A    between atoms: C_22  and  C_26
REMARK   11  A    between atoms: C_29  and  C_30
REMARK                            x       y       z     vdW  Elec       q    Type
REMARK                         _______ _______ _______ _____ _____    ______ ____
ROOT
ATOM      6  N   UNL     1     -15.029   5.365  33.431  0.00  0.00    -0.287 NA
ATOM     10  C   UNL     1     -14.448   6.227  32.382  0.00  0.00    +0.146 C 
ATOM     11  C   UNL     1     -15.662   6.779  31.612  0.00  0.00    +0.030 C 
ATOM     12  C   UNL     1     -16.874   6.126  32.260  0.00  0.00    +0.017 C 
ATOM     13  C   UNL     1     -16.305   4.879  32.906  0.00  0.00    +0.085 C 
ENDROOT
BRANCH  10  15
ATOM      1  O   UNL     1     -13.931   7.826  34.156  0.00  0.00    -0.336 OA
ATOM      7  N   UNL     1     -12.489   7.864  32.441  0.00  0.00    -0.190 NA
ATOM      8  N   UNL     1     -12.981   8.807  34.467  0.00  0.00    -0.056 NA
ATOM     15  C   UNL     1     -13.567   7.320  32.948  0.00  0.00    +0.245 A 
ATOM     19  C   UNL     1     -12.166   8.770  33.409  0.00  0.00    +0.204 A 
BRANCH  19  23
ATOM      9  N   UNL     1      -9.845  11.345  32.062  0.00  0.00    -0.221 NA
ATOM     23  C   UNL     1     -11.019   9.624  33.288  0.00  0.00    +0.041 A 
ATOM     24  C   UNL     1      -9.994   9.582  34.226  0.00  0.00    +0.018 A 
ATOM     25  C   UNL     1     -10.898  10.515  32.234  0.00  0.00    +0.126 A 
ATOM     27  C   UNL     1      -8.894  10.421  34.084  0.00  0.00    +0.068 A 
ATOM     28  C   UNL     1      -8.867  11.276  32.994  0.00  0.00    +0.215 A 
BRANCH  28   3
ATOM      3  O   UNL     1      -7.794  12.113  32.831  0.00  0.00    -0.474 OA
BRANCH   3  29
ATOM     29  C   UNL     1      -7.635  12.708  31.549  0.00  0.00    +0.258 C 
BRANCH  29  30
ATOM     30  C   UNL     1      -6.200  13.173  31.394  0.00  0.00    +0.200 C 
BRANCH  30   5
ATOM      5  O   UNL     1      -5.346  12.286  32.105  0.00  0.00    -0.380 OA
ATOM     31  C   UNL     1      -4.191  12.956  32.594  0.00  0.00    +0.194 C 
ENDBRANCH  30   5
ENDBRANCH  29  30
ENDBRANCH   3  29
ENDBRANCH  28   3
ENDBRANCH  19  23
ENDBRANCH  10  15
BRANCH   6  14
ATOM     14  C   UNL     1     -14.149   4.274  33.831  0.00  0.00    +0.120 C 
BRANCH  14  16
ATOM     16  C   UNL     1     -14.136   3.164  32.814  0.00  0.00    -0.033 A 
ATOM     17  C   UNL     1     -13.500   3.351  31.587  0.00  0.00    +0.006 A 
ATOM     18  C   UNL     1     -14.758   1.948  33.099  0.00  0.00    +0.006 A 
ATOM     20  C   UNL     1     -13.486   2.322  30.645  0.00  0.00    +0.015 A 
ATOM     21  C   UNL     1     -14.745   0.920  32.157  0.00  0.00    +0.015 A 
ATOM     22  C   UNL     1     -14.108   1.106  30.930  0.00  0.00    +0.059 A 
BRANCH  22  26
ATOM      4  O   UNL     1     -14.995  -0.207  29.137  0.00  0.00    -0.245 OA
ATOM     26  C   UNL     1     -14.094   0.034  29.948  0.00  0.00    +0.337 C 
BRANCH  26   2
ATOM      2  O   UNL     1     -12.954  -0.707  30.004  0.00  0.00    -0.477 OA
ATOM     32  H   UNL     1     -13.137  -1.667  29.918  0.00  0.00    +0.295 HD
ENDBRANCH  26   2
ENDBRANCH  22  26
ENDBRANCH  14  16
ENDBRANCH   6  14
TORSDOF 10
ENDMDL
MODEL 9
REMARK VINA RESULT:      -6.2     14.358     17.134
REMARK  Name = 45783543
REMARK  11 active torsions:
REMARK  status: ('A' for Active; 'I' for Inactive)
REMARK    1  A    between atoms: O_2  and  C_26
REMARK    2  A    between atoms: O_3  and  C_28
REMARK    3  A    between atoms: O_3  and  C_29
REMARK    4  A    between atoms: O_5  and  C_30
REMARK    5  A    between atoms: O_5  and  C_31
REMARK    6  A    between atoms: N_6  and  C_14
REMARK    7  A    between atoms: C_10  and  C_15
REMARK    8  A    between atoms: C_14  and  C_16
REMARK    9  A    between atoms: C_19  and  C_23
REMARK   10  A    between atoms: C_22  and  C_26
REMARK   11  A    between atoms: C_29  and  C_30
REMARK                            x       y       z     vdW  Elec       q    Type
REMARK                         _______ _______ _______ _____ _____    ______ ____
ROOT
ATOM      6  N   UNL     1      10.460   5.662   5.375  0.00  0.00    -0.287 NA
ATOM     10  C   UNL     1      10.115   6.876   6.142  0.00  0.00    +0.146 C 
ATOM     11  C   UNL     1       9.697   6.355   7.531  0.00  0.00    +0.030 C 
ATOM     12  C   UNL     1       9.782   4.840   7.429  0.00  0.00    +0.017 C 
ATOM     13  C   UNL     1       9.662   4.574   5.942  0.00  0.00    +0.085 C 
ENDROOT
BRANCH  10  15
ATOM      1  O   UNL     1      10.927   9.153   6.499  0.00  0.00    -0.336 OA
ATOM      7  N   UNL     1      12.538   7.671   6.022  0.00  0.00    -0.190 NA
ATOM      8  N   UNL     1      12.130   9.870   6.503  0.00  0.00    -0.056 NA
ATOM     15  C   UNL     1      11.257   7.867   6.208  0.00  0.00    +0.245 A 
ATOM     19  C   UNL     1      13.033   8.928   6.214  0.00  0.00    +0.204 A 
BRANCH  19  23
ATOM      9  N   UNL     1      16.278  10.715   6.539  0.00  0.00    -0.221 NA
ATOM     23  C   UNL     1      14.436   9.210   6.110  0.00  0.00    +0.041 A 
ATOM     24  C   UNL     1      15.304   8.307   5.507  0.00  0.00    +0.018 A 
ATOM     25  C   UNL     1      14.968  10.390   6.605  0.00  0.00    +0.126 A 
ATOM     27  C   UNL     1      16.659   8.606   5.420  0.00  0.00    +0.068 A 
ATOM     28  C   UNL     1      17.092   9.814   5.946  0.00  0.00    +0.215 A 
BRANCH  28   3
ATOM      3  O   UNL     1      18.423  10.132   5.872  0.00  0.00    -0.474 OA
BRANCH   3  29
ATOM     29  C   UNL     1      19.330   9.053   5.690  0.00  0.00    +0.258 C 
BRANCH  29  30
ATOM     30  C   UNL     1      19.890   8.642   7.039  0.00  0.00    +0.200 C 
BRANCH  30   5
ATOM      5  O   UNL     1      20.930   7.694   6.839  0.00  0.00    -0.380 OA
ATOM     31  C   UNL     1      21.547   7.858   5.569  0.00  0.00    +0.194 C 
ENDBRANCH  30   5
ENDBRANCH  29  30
ENDBRANCH   3  29
ENDBRANCH  28   3
ENDBRANCH  19  23
ENDBRANCH  10  15
BRANCH   6  14
ATOM     14  C   UNL     1      10.247   5.809   3.941  0.00  0.00    +0.120 C 
BRANCH  14  16
ATOM     16  C   UNL     1      11.405   5.271   3.144  0.00  0.00    -0.033 A 
ATOM     17  C   UNL     1      12.509   6.082   2.886  0.00  0.00    +0.006 A 
ATOM     18  C   UNL     1      11.374   3.961   2.664  0.00  0.00    +0.006 A 
ATOM     20  C   UNL     1      13.584   5.584   2.148  0.00  0.00    +0.015 A 
ATOM     21  C   UNL     1      12.447   3.464   1.925  0.00  0.00    +0.015 A 
ATOM     22  C   UNL     1      13.553   4.275   1.667  0.00  0.00    +0.059 A 
BRANCH  22  26
ATOM      4  O   UNL     1      14.790   3.823  -0.330  0.00  0.00    -0.245 OA
ATOM     26  C   UNL     1      14.672   3.756   0.898  0.00  0.00    +0.337 C 
BRANCH  26   2
ATOM      2  O   UNL     1      15.615   3.168   1.684  0.00  0.00    -0.477 OA
ATOM     32  H   UNL     1      15.373   2.247   1.920  0.00  0.00    +0.295 HD
ENDBRANCH  26   2
ENDBRANCH  22  26
ENDBRANCH  14  16
ENDBRANCH   6  14
TORSDOF 10
ENDMDL
MODEL 10
REMARK VINA RESULT:      -6.2      2.152      2.656
REMARK  Name = 45783543
REMARK  11 active torsions:
REMARK  status: ('A' for Active; 'I' for Inactive)
REMARK    1  A    between atoms: O_2  and  C_26
REMARK    2  A    between atoms: O_3  and  C_28
REMARK    3  A    between atoms: O_3  and  C_29
REMARK    4  A    between atoms: O_5  and  C_30
REMARK    5  A    between atoms: O_5  and  C_31
REMARK    6  A    between atoms: N_6  and  C_14
REMARK    7  A    between atoms: C_10  and  C_15
REMARK    8  A    between atoms: C_14  and  C_16
REMARK    9  A    between atoms: C_19  and  C_23
REMARK   10  A    between atoms: C_22  and  C_26
REMARK   11  A    between atoms: C_29  and  C_30
REMARK                            x       y       z     vdW  Elec       q    Type
REMARK                         _______ _______ _______ _____ _____    ______ ____
ROOT
ATOM      6  N   UNL     1      13.522   8.266  19.475  0.00  0.00    -0.287 NA
ATOM     10  C   UNL     1      14.194   7.213  18.688  0.00  0.00    +0.146 C 
ATOM     11  C   UNL     1      14.159   7.727  17.236  0.00  0.00    +0.030 C 
ATOM     12  C   UNL     1      13.397   9.043  17.299  0.00  0.00    +0.017 C 
ATOM     13  C   UNL     1      12.579   8.921  18.569  0.00  0.00    +0.085 C 
ENDROOT
BRANCH  10  15
ATOM      1  O   UNL     1      16.262   5.916  18.556  0.00  0.00    -0.336 OA
ATOM      7  N   UNL     1      16.286   7.522  20.118  0.00  0.00    -0.190 NA
ATOM      8  N   UNL     1      17.519   5.845  19.169  0.00  0.00    -0.056 NA
ATOM     15  C   UNL     1      15.599   6.929  19.174  0.00  0.00    +0.245 A 
ATOM     19  C   UNL     1      17.457   6.823  20.078  0.00  0.00    +0.204 A 
BRANCH  19  23
ATOM      9  N   UNL     1      20.668   6.479  21.923  0.00  0.00    -0.221 NA
ATOM     23  C   UNL     1      18.547   7.126  20.960  0.00  0.00    +0.041 A 
ATOM     24  C   UNL     1      18.566   8.307  21.693  0.00  0.00    +0.018 A 
ATOM     25  C   UNL     1      19.612   6.253  21.109  0.00  0.00    +0.126 A 
ATOM     27  C   UNL     1      19.635   8.576  22.541  0.00  0.00    +0.068 A 
ATOM     28  C   UNL     1      20.652   7.637  22.620  0.00  0.00    +0.215 A 
BRANCH  28   3
ATOM      3  O   UNL     1      21.717   7.878  23.448  0.00  0.00    -0.474 OA
BRANCH   3  29
ATOM     29  C   UNL     1      22.228   6.767  24.173  0.00  0.00    +0.258 C 
BRANCH  29  30
ATOM     30  C   UNL     1      21.467   6.634  25.478  0.00  0.00    +0.200 C 
BRANCH  30   5
ATOM      5  O   UNL     1      21.769   5.374  26.065  0.00  0.00    -0.380 OA
ATOM     31  C   UNL     1      22.790   4.697  25.344  0.00  0.00    +0.194 C 
ENDBRANCH  30   5
ENDBRANCH  29  30
ENDBRANCH   3  29
ENDBRANCH  28   3
ENDBRANCH  19  23
ENDBRANCH  10  15
BRANCH   6  14
ATOM     14  C   UNL     1      12.868   7.757  20.673  0.00  0.00    +0.120 C 
BRANCH  14  16
ATOM     16  C   UNL     1      12.457   8.869  21.603  0.00  0.00    -0.033 A 
ATOM     17  C   UNL     1      11.126   8.985  22.004  0.00  0.00    +0.006 A 
ATOM     18  C   UNL     1      13.407   9.781  22.062  0.00  0.00    +0.006 A 
ATOM     20  C   UNL     1      10.746  10.014  22.866  0.00  0.00    +0.015 A 
ATOM     21  C   UNL     1      13.026  10.810  22.923  0.00  0.00    +0.015 A 
ATOM     22  C   UNL     1      11.695  10.927  23.325  0.00  0.00    +0.059 A 
BRANCH  22  26
ATOM      4  O   UNL     1      10.134  12.302  24.507  0.00  0.00    -0.245 OA
ATOM     26  C   UNL     1      11.298  11.999  24.223  0.00  0.00    +0.337 C 
BRANCH  26   2
ATOM      2  O   UNL     1      12.366  12.663  24.745  0.00  0.00    -0.477 OA
ATOM     32  H   UNL     1      12.106  13.526  25.133  0.00  0.00    +0.295 HD
ENDBRANCH  26   2
ENDBRANCH  22  26
ENDBRANCH  14  16
ENDBRANCH   6  14
TORSDOF 10
ENDMDL
