MODEL 1
REMARK VINA RESULT:      -6.6      0.000      0.000
REMARK  Name = 11867292
REMARK  12 active torsions:
REMARK  status: ('A' for Active; 'I' for Inactive)
REMARK    1  A    between atoms: O_2  and  C_16
REMARK    2  A    between atoms: O_3  and  C_21
REMARK    3  A    between atoms: O_6  and  C_30
REMARK    4  A    between atoms: O_6  and  C_35
REMARK    5  A    between atoms: N_8  and  C_27
REMARK    6  A    between atoms: C_11  and  C_19
REMARK    7  A    between atoms: C_13  and  C_21
REMARK    8  A    between atoms: C_13  and  C_22
REMARK    9  A    between atoms: C_14  and  C_24
REMARK   10  A    between atoms: C_24  and  C_25
REMARK   11  A    between atoms: C_27  and  C_29
REMARK   12  A    between atoms: C_28  and  C_30
REMARK                            x       y       z     vdW  Elec       q    Type
REMARK                         _______ _______ _______ _____ _____    ______ ____
ROOT
ATOM      1  S   UNL     1      18.023   6.570  20.566  0.00  0.00    -0.057 S 
ATOM      5  O   UNL     1      20.536   9.256  23.432  0.00  0.00    -0.273 OA
ATOM      7  N   UNL     1      18.010   8.753  21.952  0.00  0.00    -0.229 NA
ATOM      9  N   UNL     1      20.023   7.429  22.027  0.00  0.00    -0.263 N 
ATOM     11  C   UNL     1      14.581   9.573  20.392  0.00  0.00    -0.019 C 
ATOM     12  C   UNL     1      14.186   8.036  20.258  0.00  0.00    +0.011 C 
ATOM     13  C   UNL     1      12.830   7.706  19.524  0.00  0.00    +0.021 C 
ATOM     14  C   UNL     1      15.711   9.695  21.514  0.00  0.00    +0.054 C 
ATOM     15  C   UNL     1      13.342  10.383  20.855  0.00  0.00    +0.010 C 
ATOM     16  C   UNL     1      11.712   8.636  20.072  0.00  0.00    +0.123 C 
ATOM     17  C   UNL     1      15.391   7.180  19.765  0.00  0.00    +0.049 C 
ATOM     18  C   UNL     1      12.088  10.113  20.038  0.00  0.00    +0.032 C 
ATOM     19  C   UNL     1      15.103  10.177  19.065  0.00  0.00    +0.012 C 
ATOM     20  C   UNL     1      16.787   8.657  21.317  0.00  0.00    +0.058 A 
ATOM     22  C   UNL     1      12.418   6.243  19.853  0.00  0.00    +0.016 C 
ATOM     23  C   UNL     1      16.615   7.528  20.543  0.00  0.00    +0.015 A 
ATOM     26  C   UNL     1      18.745   7.713  21.624  0.00  0.00    +0.165 A 
ATOM     28  C   UNL     1      20.828   8.196  22.889  0.00  0.00    +0.244 C 
ATOM     39  H   UNL     1      20.409   6.566  21.654  0.00  0.00    +0.157 HD
ENDROOT
BRANCH  16   2
ATOM      2  O   UNL     1      10.501   8.453  19.339  0.00  0.00    -0.391 OA
ATOM     36  H   UNL     1      10.110   9.330  19.191  0.00  0.00    +0.210 HD
ENDBRANCH  16   2
BRANCH  13  21
ATOM     21  C   UNL     1      12.901   7.780  17.982  0.00  0.00    +0.165 C 
BRANCH  21   3
ATOM      3  O   UNL     1      11.884   6.953  17.464  0.00  0.00    -0.394 OA
ATOM     37  H   UNL     1      12.298   6.356  16.817  0.00  0.00    +0.209 HD
ENDBRANCH  21   3
ENDBRANCH  13  21
BRANCH  14  24
ATOM     24  C   UNL     1      16.309  11.100  21.666  0.00  0.00    +0.106 C 
BRANCH  24  25
ATOM      4  O   UNL     1      16.491  12.749  23.428  0.00  0.00    -0.276 OA
ATOM      8  N   UNL     1      15.045  10.948  23.688  0.00  0.00    -0.311 N 
ATOM     25  C   UNL     1      15.982  11.713  23.009  0.00  0.00    +0.214 C 
ATOM     38  H   UNL     1      14.679  10.108  23.249  0.00  0.00    +0.149 HD
BRANCH   8  27
ATOM     27  C   UNL     1      14.547  11.292  25.001  0.00  0.00    +0.141 C 
BRANCH  27  29
ATOM     10  N   UNL     1      11.573  13.519  25.710  0.00  0.00    -0.263 NA
ATOM     29  C   UNL     1      13.160  11.863  24.942  0.00  0.00    -0.012 A 
ATOM     31  C   UNL     1      12.190  11.308  24.114  0.00  0.00    +0.008 A 
ATOM     32  C   UNL     1      12.803  12.958  25.714  0.00  0.00    +0.115 A 
ATOM     33  C   UNL     1      10.913  11.857  24.082  0.00  0.00    +0.020 A 
ATOM     34  C   UNL     1      10.658  12.952  24.893  0.00  0.00    +0.111 A 
ENDBRANCH  27  29
ENDBRANCH   8  27
ENDBRANCH  24  25
ENDBRANCH  14  24
BRANCH  28  30
ATOM     30  C   UNL     1      22.185   7.549  23.098  0.00  0.00    +0.255 C 
BRANCH  30   6
ATOM      6  O   UNL     1      22.253   6.298  22.446  0.00  0.00    -0.374 OA
ATOM     35  C   UNL     1      22.668   5.261  23.329  0.00  0.00    +0.194 C 
ENDBRANCH  30   6
ENDBRANCH  28  30
TORSDOF 9
ENDMDL
MODEL 2
REMARK VINA RESULT:      -6.2     28.315     31.505
REMARK  Name = 11867292
REMARK  12 active torsions:
REMARK  status: ('A' for Active; 'I' for Inactive)
REMARK    1  A    between atoms: O_2  and  C_16
REMARK    2  A    between atoms: O_3  and  C_21
REMARK    3  A    between atoms: O_6  and  C_30
REMARK    4  A    between atoms: O_6  and  C_35
REMARK    5  A    between atoms: N_8  and  C_27
REMARK    6  A    between atoms: C_11  and  C_19
REMARK    7  A    between atoms: C_13  and  C_21
REMARK    8  A    between atoms: C_13  and  C_22
REMARK    9  A    between atoms: C_14  and  C_24
REMARK   10  A    between atoms: C_24  and  C_25
REMARK   11  A    between atoms: C_27  and  C_29
REMARK   12  A    between atoms: C_28  and  C_30
REMARK                            x       y       z     vdW  Elec       q    Type
REMARK                         _______ _______ _______ _____ _____    ______ ____
ROOT
ATOM      1  S   UNL     1      -7.254 -10.417  11.275  0.00  0.00    -0.057 S 
ATOM      5  O   UNL     1     -11.252  -9.000  13.215  0.00  0.00    -0.273 OA
ATOM      7  N   UNL     1      -8.427  -9.866  13.514  0.00  0.00    -0.229 NA
ATOM      9  N   UNL     1      -9.740  -9.618  11.508  0.00  0.00    -0.263 N 
ATOM     11  C   UNL     1      -5.270 -11.134  15.330  0.00  0.00    -0.019 C 
ATOM     12  C   UNL     1      -4.310 -10.683  14.143  0.00  0.00    +0.011 C 
ATOM     13  C   UNL     1      -2.787 -11.072  14.267  0.00  0.00    +0.021 C 
ATOM     14  C   UNL     1      -6.619 -10.284  15.224  0.00  0.00    +0.054 C 
ATOM     15  C   UNL     1      -4.596 -10.812  16.689  0.00  0.00    +0.010 C 
ATOM     16  C   UNL     1      -2.286 -10.727  15.698  0.00  0.00    +0.123 C 
ATOM     17  C   UNL     1      -4.931 -11.015  12.753  0.00  0.00    +0.049 C 
ATOM     18  C   UNL     1      -3.163 -11.310  16.799  0.00  0.00    +0.032 C 
ATOM     19  C   UNL     1      -5.609 -12.645  15.290  0.00  0.00    +0.012 C 
ATOM     20  C   UNL     1      -7.135 -10.259  13.807  0.00  0.00    +0.058 A 
ATOM     22  C   UNL     1      -1.961 -10.213  13.268  0.00  0.00    +0.016 C 
ATOM     23  C   UNL     1      -6.355 -10.574  12.713  0.00  0.00    +0.015 A 
ATOM     26  C   UNL     1      -8.604  -9.917  12.212  0.00  0.00    +0.165 A 
ATOM     28  C   UNL     1     -10.971  -9.186  12.035  0.00  0.00    +0.244 C 
ATOM     39  H   UNL     1      -9.663  -9.724  10.501  0.00  0.00    +0.157 HD
ENDROOT
BRANCH  16   2
ATOM      2  O   UNL     1      -0.947 -11.184  15.886  0.00  0.00    -0.391 OA
ATOM     36  H   UNL     1      -0.989 -12.108  16.185  0.00  0.00    +0.210 HD
ENDBRANCH  16   2
BRANCH  13  21
ATOM     21  C   UNL     1      -2.469 -12.542  13.912  0.00  0.00    +0.165 C 
BRANCH  21   3
ATOM      3  O   UNL     1      -1.338 -12.547  13.071  0.00  0.00    -0.394 OA
ATOM     37  H   UNL     1      -0.561 -12.708  13.633  0.00  0.00    +0.209 HD
ENDBRANCH  21   3
ENDBRANCH  13  21
BRANCH  14  24
ATOM     24  C   UNL     1      -7.715 -10.700  16.213  0.00  0.00    +0.106 C 
BRANCH  24  25
ATOM      4  O   UNL     1      -7.604  -9.261  18.155  0.00  0.00    -0.276 OA
ATOM      8  N   UNL     1      -9.237  -8.888  16.544  0.00  0.00    -0.311 N 
ATOM     25  C   UNL     1      -8.150  -9.551  17.094  0.00  0.00    +0.214 C 
ATOM     38  H   UNL     1      -9.612  -9.204  15.653  0.00  0.00    +0.149 HD
BRANCH   8  27
ATOM     27  C   UNL     1      -9.867  -7.749  17.171  0.00  0.00    +0.141 C 
BRANCH  27  29
ATOM     10  N   UNL     1     -11.828  -5.593  14.760  0.00  0.00    -0.263 NA
ATOM     29  C   UNL     1     -11.008  -7.217  16.353  0.00  0.00    -0.012 A 
ATOM     31  C   UNL     1     -12.267  -7.808  16.408  0.00  0.00    +0.008 A 
ATOM     32  C   UNL     1     -10.842  -6.121  15.520  0.00  0.00    +0.115 A 
ATOM     33  C   UNL     1     -13.304  -7.293  15.640  0.00  0.00    +0.020 A 
ATOM     34  C   UNL     1     -13.036  -6.193  14.840  0.00  0.00    +0.111 A 
ENDBRANCH  27  29
ENDBRANCH   8  27
ENDBRANCH  24  25
ENDBRANCH  14  24
BRANCH  28  30
ATOM     30  C   UNL     1     -11.991  -8.954  10.935  0.00  0.00    +0.255 C 
BRANCH  30   6
ATOM      6  O   UNL     1     -12.858  -7.891  11.267  0.00  0.00    -0.374 OA
ATOM     35  C   UNL     1     -12.330  -6.630  10.867  0.00  0.00    +0.194 C 
ENDBRANCH  30   6
ENDBRANCH  28  30
TORSDOF 9
ENDMDL
MODEL 3
REMARK VINA RESULT:      -6.0     15.853     20.198
REMARK  Name = 11867292
REMARK  12 active torsions:
REMARK  status: ('A' for Active; 'I' for Inactive)
REMARK    1  A    between atoms: O_2  and  C_16
REMARK    2  A    between atoms: O_3  and  C_21
REMARK    3  A    between atoms: O_6  and  C_30
REMARK    4  A    between atoms: O_6  and  C_35
REMARK    5  A    between atoms: N_8  and  C_27
REMARK    6  A    between atoms: C_11  and  C_19
REMARK    7  A    between atoms: C_13  and  C_21
REMARK    8  A    between atoms: C_13  and  C_22
REMARK    9  A    between atoms: C_14  and  C_24
REMARK   10  A    between atoms: C_24  and  C_25
REMARK   11  A    between atoms: C_27  and  C_29
REMARK   12  A    between atoms: C_28  and  C_30
REMARK                            x       y       z     vdW  Elec       q    Type
REMARK                         _______ _______ _______ _____ _____    ______ ____
ROOT
ATOM      1  S   UNL     1      13.526   8.228   6.963  0.00  0.00    -0.057 S 
ATOM      5  O   UNL     1      10.625   5.503   4.533  0.00  0.00    -0.273 OA
ATOM      7  N   UNL     1      13.227   6.918   4.753  0.00  0.00    -0.229 NA
ATOM      9  N   UNL     1      11.400   6.834   6.324  0.00  0.00    -0.263 N 
ATOM     11  C   UNL     1      16.557   8.444   3.548  0.00  0.00    -0.019 C 
ATOM     12  C   UNL     1      17.148   8.517   5.025  0.00  0.00    +0.011 C 
ATOM     13  C   UNL     1      18.551   9.215   5.200  0.00  0.00    +0.021 C 
ATOM     14  C   UNL     1      15.395   7.347   3.536  0.00  0.00    +0.054 C 
ATOM     15  C   UNL     1      17.670   7.987   2.570  0.00  0.00    +0.010 C 
ATOM     16  C   UNL     1      19.529   8.679   4.116  0.00  0.00    +0.123 C 
ATOM     17  C   UNL     1      16.075   9.003   6.043  0.00  0.00    +0.049 C 
ATOM     18  C   UNL     1      18.967   8.771   2.702  0.00  0.00    +0.032 C 
ATOM     19  C   UNL     1      15.991   9.800   3.058  0.00  0.00    +0.012 C 
ATOM     20  C   UNL     1      14.466   7.527   4.711  0.00  0.00    +0.058 A 
ATOM     22  C   UNL     1      19.141   8.828   6.586  0.00  0.00    +0.016 C 
ATOM     23  C   UNL     1      14.799   8.260   5.832  0.00  0.00    +0.015 A 
ATOM     26  C   UNL     1      12.640   7.224   5.890  0.00  0.00    +0.165 A 
ATOM     28  C   UNL     1      10.484   6.015   5.639  0.00  0.00    +0.244 C 
ATOM     39  H   UNL     1      11.136   7.184   7.240  0.00  0.00    +0.157 HD
ENDROOT
BRANCH  16   2
ATOM      2  O   UNL     1      20.769   9.384   4.164  0.00  0.00    -0.391 OA
ATOM     36  H   UNL     1      21.260   9.065   4.940  0.00  0.00    +0.210 HD
ENDBRANCH  16   2
BRANCH  13  21
ATOM     21  C   UNL     1      18.506  10.759   5.185  0.00  0.00    +0.165 C 
BRANCH  21   3
ATOM      3  O   UNL     1      19.492  11.228   6.077  0.00  0.00    -0.394 OA
ATOM     37  H   UNL     1      19.365  12.188   6.170  0.00  0.00    +0.209 HD
ENDBRANCH  21   3
ENDBRANCH  13  21
BRANCH  14  24
ATOM     24  C   UNL     1      14.619   7.254   2.216  0.00  0.00    +0.106 C 
BRANCH  24  25
ATOM      4  O   UNL     1      15.501   5.437   0.885  0.00  0.00    -0.276 OA
ATOM      8  N   UNL     1      13.543   5.124   2.097  0.00  0.00    -0.311 N 
ATOM     25  C   UNL     1      14.633   5.854   1.647  0.00  0.00    +0.214 C 
ATOM     38  H   UNL     1      12.883   5.562   2.735  0.00  0.00    +0.149 HD
BRANCH   8  27
ATOM     27  C   UNL     1      13.297   3.753   1.713  0.00  0.00    +0.141 C 
BRANCH  27  29
ATOM     10  N   UNL     1      10.492   3.957  -0.815  0.00  0.00    -0.263 NA
ATOM     29  C   UNL     1      12.554   3.659   0.412  0.00  0.00    -0.012 A 
ATOM     31  C   UNL     1      13.183   3.205  -0.743  0.00  0.00    +0.008 A 
ATOM     32  C   UNL     1      11.218   4.020   0.323  0.00  0.00    +0.115 A 
ATOM     33  C   UNL     1      12.469   3.127  -1.932  0.00  0.00    +0.020 A 
ATOM     34  C   UNL     1      11.137   3.512  -1.916  0.00  0.00    +0.111 A 
ENDBRANCH  27  29
ENDBRANCH   8  27
ENDBRANCH  24  25
ENDBRANCH  14  24
BRANCH  28  30
ATOM     30  C   UNL     1       9.217   5.808   6.449  0.00  0.00    +0.255 C 
BRANCH  30   6
ATOM      6  O   UNL     1       9.460   6.011   7.825  0.00  0.00    -0.374 OA
ATOM     35  C   UNL     1       9.452   4.787   8.553  0.00  0.00    +0.194 C 
ENDBRANCH  30   6
ENDBRANCH  28  30
TORSDOF 9
ENDMDL
MODEL 4
REMARK VINA RESULT:      -6.0     16.414     20.366
REMARK  Name = 11867292
REMARK  12 active torsions:
REMARK  status: ('A' for Active; 'I' for Inactive)
REMARK    1  A    between atoms: O_2  and  C_16
REMARK    2  A    between atoms: O_3  and  C_21
REMARK    3  A    between atoms: O_6  and  C_30
REMARK    4  A    between atoms: O_6  and  C_35
REMARK    5  A    between atoms: N_8  and  C_27
REMARK    6  A    between atoms: C_11  and  C_19
REMARK    7  A    between atoms: C_13  and  C_21
REMARK    8  A    between atoms: C_13  and  C_22
REMARK    9  A    between atoms: C_14  and  C_24
REMARK   10  A    between atoms: C_24  and  C_25
REMARK   11  A    between atoms: C_27  and  C_29
REMARK   12  A    between atoms: C_28  and  C_30
REMARK                            x       y       z     vdW  Elec       q    Type
REMARK                         _______ _______ _______ _____ _____    ______ ____
ROOT
ATOM      1  S   UNL     1      15.001   7.864   6.208  0.00  0.00    -0.057 S 
ATOM      5  O   UNL     1      12.608   6.333   2.510  0.00  0.00    -0.273 OA
ATOM      7  N   UNL     1      15.108   7.454   3.657  0.00  0.00    -0.229 NA
ATOM      9  N   UNL     1      13.041   6.892   4.763  0.00  0.00    -0.263 N 
ATOM     11  C   UNL     1      18.567   9.157   3.657  0.00  0.00    -0.019 C 
ATOM     12  C   UNL     1      18.896   8.666   5.136  0.00  0.00    +0.011 C 
ATOM     13  C   UNL     1      20.236   9.189   5.782  0.00  0.00    +0.021 C 
ATOM     14  C   UNL     1      17.444   8.192   3.056  0.00  0.00    +0.054 C 
ATOM     15  C   UNL     1      19.839   9.033   2.779  0.00  0.00    +0.010 C 
ATOM     16  C   UNL     1      21.393   9.036   4.756  0.00  0.00    +0.123 C 
ATOM     17  C   UNL     1      17.655   8.800   6.068  0.00  0.00    +0.049 C 
ATOM     18  C   UNL     1      21.080   9.656   3.400  0.00  0.00    +0.032 C 
ATOM     19  C   UNL     1      18.069  10.622   3.607  0.00  0.00    +0.012 C 
ATOM     20  C   UNL     1      16.325   7.980   4.045  0.00  0.00    +0.058 A 
ATOM     22  C   UNL     1      20.586   8.302   7.011  0.00  0.00    +0.016 C 
ATOM     23  C   UNL     1      16.448   8.242   5.393  0.00  0.00    +0.015 A 
ATOM     26  C   UNL     1      14.330   7.355   4.712  0.00  0.00    +0.165 A 
ATOM     28  C   UNL     1      12.270   6.418   3.686  0.00  0.00    +0.244 C 
ATOM     39  H   UNL     1      12.618   6.900   5.687  0.00  0.00    +0.157 HD
ENDROOT
BRANCH  16   2
ATOM      2  O   UNL     1      22.595   9.618   5.262  0.00  0.00    -0.391 OA
ATOM     36  H   UNL     1      23.073   8.928   5.751  0.00  0.00    +0.210 HD
ENDBRANCH  16   2
BRANCH  13  21
ATOM     21  C   UNL     1      20.166  10.635   6.322  0.00  0.00    +0.165 C 
BRANCH  21   3
ATOM      3  O   UNL     1      20.979  10.706   7.471  0.00  0.00    -0.394 OA
ATOM     37  H   UNL     1      21.059   9.804   7.825  0.00  0.00    +0.209 HD
ENDBRANCH  21   3
ENDBRANCH  13  21
BRANCH  14  24
ATOM     24  C   UNL     1      16.907   8.618   1.683  0.00  0.00    +0.106 C 
BRANCH  24  25
ATOM      4  O   UNL     1      17.968   7.656  -0.267  0.00  0.00    -0.276 OA
ATOM      8  N   UNL     1      16.284   6.479   0.820  0.00  0.00    -0.311 N 
ATOM     25  C   UNL     1      17.136   7.557   0.631  0.00  0.00    +0.214 C 
ATOM     38  H   UNL     1      15.634   6.491   1.601  0.00  0.00    +0.149 HD
BRANCH   8  27
ATOM     27  C   UNL     1      16.278   5.317  -0.040  0.00  0.00    +0.141 C 
BRANCH  27  29
ATOM     10  N   UNL     1      13.711   3.103   1.636  0.00  0.00    -0.263 NA
ATOM     29  C   UNL     1      15.054   4.473   0.164  0.00  0.00    -0.012 A 
ATOM     31  C   UNL     1      14.144   4.267  -0.868  0.00  0.00    +0.008 A 
ATOM     32  C   UNL     1      14.793   3.874   1.387  0.00  0.00    +0.115 A 
ATOM     33  C   UNL     1      13.020   3.480  -0.650  0.00  0.00    +0.020 A 
ATOM     34  C   UNL     1      12.851   2.925   0.609  0.00  0.00    +0.111 A 
ENDBRANCH  27  29
ENDBRANCH   8  27
ENDBRANCH  24  25
ENDBRANCH  14  24
BRANCH  28  30
ATOM     30  C   UNL     1      10.888   5.991   4.144  0.00  0.00    +0.255 C 
BRANCH  30   6
ATOM      6  O   UNL     1      10.865   5.764   5.538  0.00  0.00    -0.374 OA
ATOM     35  C   UNL     1       9.552   5.479   6.009  0.00  0.00    +0.194 C 
ENDBRANCH  30   6
ENDBRANCH  28  30
TORSDOF 9
ENDMDL
MODEL 5
REMARK VINA RESULT:      -6.0     27.013     31.089
REMARK  Name = 11867292
REMARK  12 active torsions:
REMARK  status: ('A' for Active; 'I' for Inactive)
REMARK    1  A    between atoms: O_2  and  C_16
REMARK    2  A    between atoms: O_3  and  C_21
REMARK    3  A    between atoms: O_6  and  C_30
REMARK    4  A    between atoms: O_6  and  C_35
REMARK    5  A    between atoms: N_8  and  C_27
REMARK    6  A    between atoms: C_11  and  C_19
REMARK    7  A    between atoms: C_13  and  C_21
REMARK    8  A    between atoms: C_13  and  C_22
REMARK    9  A    between atoms: C_14  and  C_24
REMARK   10  A    between atoms: C_24  and  C_25
REMARK   11  A    between atoms: C_27  and  C_29
REMARK   12  A    between atoms: C_28  and  C_30
REMARK                            x       y       z     vdW  Elec       q    Type
REMARK                         _______ _______ _______ _____ _____    ______ ____
ROOT
ATOM      1  S   UNL     1     -12.614   5.240  22.317  0.00  0.00    -0.057 S 
ATOM      5  O   UNL     1     -17.023   4.444  23.611  0.00  0.00    -0.273 OA
ATOM      7  N   UNL     1     -15.082   5.878  21.880  0.00  0.00    -0.229 NA
ATOM      9  N   UNL     1     -14.670   4.240  23.599  0.00  0.00    -0.263 N 
ATOM     11  C   UNL     1     -13.815   8.584  19.441  0.00  0.00    -0.019 C 
ATOM     12  C   UNL     1     -12.532   7.732  19.039  0.00  0.00    +0.011 C 
ATOM     13  C   UNL     1     -11.486   8.422  18.081  0.00  0.00    +0.021 C 
ATOM     14  C   UNL     1     -14.912   7.577  20.023  0.00  0.00    +0.054 C 
ATOM     15  C   UNL     1     -14.399   9.264  18.176  0.00  0.00    +0.010 C 
ATOM     16  C   UNL     1     -12.240   9.091  16.898  0.00  0.00    +0.123 C 
ATOM     17  C   UNL     1     -11.888   7.051  20.284  0.00  0.00    +0.049 C 
ATOM     18  C   UNL     1     -13.367  10.014  17.348  0.00  0.00    +0.032 C 
ATOM     19  C   UNL     1     -13.508   9.675  20.496  0.00  0.00    +0.012 C 
ATOM     20  C   UNL     1     -14.300   6.623  21.017  0.00  0.00    +0.058 A 
ATOM     22  C   UNL     1     -10.554   7.333  17.480  0.00  0.00    +0.016 C 
ATOM     23  C   UNL     1     -12.943   6.390  21.105  0.00  0.00    +0.015 A 
ATOM     26  C   UNL     1     -14.300   5.120  22.617  0.00  0.00    +0.165 A 
ATOM     28  C   UNL     1     -15.979   3.957  24.031  0.00  0.00    +0.244 C 
ATOM     39  H   UNL     1     -13.901   3.749  24.049  0.00  0.00    +0.157 HD
ENDROOT
BRANCH  16   2
ATOM      2  O   UNL     1     -11.336   9.835  16.081  0.00  0.00    -0.391 OA
ATOM     36  H   UNL     1     -11.806  10.079  15.267  0.00  0.00    +0.210 HD
ENDBRANCH  16   2
BRANCH  13  21
ATOM     21  C   UNL     1     -10.548   9.432  18.778  0.00  0.00    +0.165 C 
BRANCH  21   3
ATOM      3  O   UNL     1      -9.341   9.473  18.050  0.00  0.00    -0.394 OA
ATOM     37  H   UNL     1      -9.551   9.810  17.162  0.00  0.00    +0.209 HD
ENDBRANCH  21   3
ENDBRANCH  13  21
BRANCH  14  24
ATOM     24  C   UNL     1     -16.163   8.258  20.594  0.00  0.00    +0.106 C 
BRANCH  24  25
ATOM      4  O   UNL     1     -18.437   8.621  19.851  0.00  0.00    -0.276 OA
ATOM      8  N   UNL     1     -17.169   6.934  18.878  0.00  0.00    -0.311 N 
ATOM     25  C   UNL     1     -17.390   7.987  19.754  0.00  0.00    +0.214 C 
ATOM     38  H   UNL     1     -16.260   6.478  18.871  0.00  0.00    +0.149 HD
BRANCH   8  27
ATOM     27  C   UNL     1     -18.169   6.452  17.954  0.00  0.00    +0.141 C 
BRANCH  27  29
ATOM     10  N   UNL     1     -17.565   4.738  14.638  0.00  0.00    -0.263 NA
ATOM     29  C   UNL     1     -17.586   6.142  16.606  0.00  0.00    -0.012 A 
ATOM     31  C   UNL     1     -16.565   6.920  16.070  0.00  0.00    +0.008 A 
ATOM     32  C   UNL     1     -18.047   5.071  15.856  0.00  0.00    +0.115 A 
ATOM     33  C   UNL     1     -16.044   6.608  14.820  0.00  0.00    +0.020 A 
ATOM     34  C   UNL     1     -16.574   5.516  14.150  0.00  0.00    +0.111 A 
ENDBRANCH  27  29
ENDBRANCH   8  27
ENDBRANCH  24  25
ENDBRANCH  14  24
BRANCH  28  30
ATOM     30  C   UNL     1     -15.981   2.922  25.142  0.00  0.00    +0.255 C 
BRANCH  30   6
ATOM      6  O   UNL     1     -16.344   1.651  24.646  0.00  0.00    -0.374 OA
ATOM     35  C   UNL     1     -16.917   0.829  25.658  0.00  0.00    +0.194 C 
ENDBRANCH  30   6
ENDBRANCH  28  30
TORSDOF 9
ENDMDL
MODEL 6
REMARK VINA RESULT:      -6.0     16.517     20.476
REMARK  Name = 11867292
REMARK  12 active torsions:
REMARK  status: ('A' for Active; 'I' for Inactive)
REMARK    1  A    between atoms: O_2  and  C_16
REMARK    2  A    between atoms: O_3  and  C_21
REMARK    3  A    between atoms: O_6  and  C_30
REMARK    4  A    between atoms: O_6  and  C_35
REMARK    5  A    between atoms: N_8  and  C_27
REMARK    6  A    between atoms: C_11  and  C_19
REMARK    7  A    between atoms: C_13  and  C_21
REMARK    8  A    between atoms: C_13  and  C_22
REMARK    9  A    between atoms: C_14  and  C_24
REMARK   10  A    between atoms: C_24  and  C_25
REMARK   11  A    between atoms: C_27  and  C_29
REMARK   12  A    between atoms: C_28  and  C_30
REMARK                            x       y       z     vdW  Elec       q    Type
REMARK                         _______ _______ _______ _____ _____    ______ ____
ROOT
ATOM      1  S   UNL     1      10.139   5.241   3.322  0.00  0.00    -0.057 S 
ATOM      5  O   UNL     1      12.211   7.898   6.546  0.00  0.00    -0.273 OA
ATOM      7  N   UNL     1      12.325   6.477   3.941  0.00  0.00    -0.229 NA
ATOM      9  N   UNL     1      10.508   6.624   5.519  0.00  0.00    -0.263 N 
ATOM     11  C   UNL     1      13.950   4.893   0.823  0.00  0.00    -0.019 C 
ATOM     12  C   UNL     1      12.574   4.867   0.022  0.00  0.00    +0.011 C 
ATOM     13  C   UNL     1      12.582   4.168  -1.391  0.00  0.00    +0.021 C 
ATOM     14  C   UNL     1      13.830   5.996   1.974  0.00  0.00    +0.054 C 
ATOM     15  C   UNL     1      15.096   5.311  -0.135  0.00  0.00    +0.010 C 
ATOM     16  C   UNL     1      13.815   4.662  -2.200  0.00  0.00    +0.123 C 
ATOM     17  C   UNL     1      11.393   4.422   0.936  0.00  0.00    +0.049 C 
ATOM     18  C   UNL     1      15.127   4.526  -1.438  0.00  0.00    +0.032 C 
ATOM     19  C   UNL     1      14.305   3.525   1.455  0.00  0.00    +0.012 C 
ATOM     20  C   UNL     1      12.527   5.860   2.721  0.00  0.00    +0.058 A 
ATOM     22  C   UNL     1      11.311   4.599  -2.177  0.00  0.00    +0.016 C 
ATOM     23  C   UNL     1      11.442   5.164   2.229  0.00  0.00    +0.015 A 
ATOM     26  C   UNL     1      11.105   6.213   4.356  0.00  0.00    +0.165 A 
ATOM     28  C   UNL     1      11.079   7.424   6.525  0.00  0.00    +0.244 C 
ATOM     39  H   UNL     1       9.551   6.306   5.646  0.00  0.00    +0.157 HD
ENDROOT
BRANCH  16   2
ATOM      2  O   UNL     1      13.924   3.953  -3.434  0.00  0.00    -0.391 OA
ATOM     36  H   UNL     1      14.665   3.330  -3.352  0.00  0.00    +0.210 HD
ENDBRANCH  16   2
BRANCH  13  21
ATOM     21  C   UNL     1      12.537   2.625  -1.344  0.00  0.00    +0.165 C 
BRANCH  21   3
ATOM      3  O   UNL     1      11.811   2.180  -2.468  0.00  0.00    -0.394 OA
ATOM     37  H   UNL     1      12.447   1.769  -3.078  0.00  0.00    +0.209 HD
ENDBRANCH  21   3
ENDBRANCH  13  21
BRANCH  14  24
ATOM     24  C   UNL     1      15.025   6.047   2.935  0.00  0.00    +0.106 C 
BRANCH  24  25
ATOM      4  O   UNL     1      15.269   8.373   2.312  0.00  0.00    -0.276 OA
ATOM      8  N   UNL     1      16.641   7.477   3.961  0.00  0.00    -0.311 N 
ATOM     25  C   UNL     1      15.632   7.430   3.011  0.00  0.00    +0.214 C 
ATOM     38  H   UNL     1      16.860   6.639   4.493  0.00  0.00    +0.149 HD
BRANCH   8  27
ATOM     27  C   UNL     1      17.401   8.673   4.247  0.00  0.00    +0.141 C 
BRANCH  27  29
ATOM     10  N   UNL     1      20.887   7.376   4.929  0.00  0.00    -0.263 NA
ATOM     29  C   UNL     1      18.681   8.365   4.968  0.00  0.00    -0.012 A 
ATOM     31  C   UNL     1      18.871   8.753   6.290  0.00  0.00    +0.008 A 
ATOM     32  C   UNL     1      19.712   7.685   4.337  0.00  0.00    +0.115 A 
ATOM     33  C   UNL     1      20.067   8.453   6.932  0.00  0.00    +0.020 A 
ATOM     34  C   UNL     1      21.035   7.768   6.214  0.00  0.00    +0.111 A 
ENDBRANCH  27  29
ENDBRANCH   8  27
ENDBRANCH  24  25
ENDBRANCH  14  24
BRANCH  28  30
ATOM     30  C   UNL     1      10.101   7.665   7.659  0.00  0.00    +0.255 C 
BRANCH  30   6
ATOM      6  O   UNL     1       9.390   6.486   7.972  0.00  0.00    -0.374 OA
ATOM     35  C   UNL     1      10.154   5.606   8.791  0.00  0.00    +0.194 C 
ENDBRANCH  30   6
ENDBRANCH  28  30
TORSDOF 9
ENDMDL
MODEL 7
REMARK VINA RESULT:      -6.0     27.967     31.248
REMARK  Name = 11867292
REMARK  12 active torsions:
REMARK  status: ('A' for Active; 'I' for Inactive)
REMARK    1  A    between atoms: O_2  and  C_16
REMARK    2  A    between atoms: O_3  and  C_21
REMARK    3  A    between atoms: O_6  and  C_30
REMARK    4  A    between atoms: O_6  and  C_35
REMARK    5  A    between atoms: N_8  and  C_27
REMARK    6  A    between atoms: C_11  and  C_19
REMARK    7  A    between atoms: C_13  and  C_21
REMARK    8  A    between atoms: C_13  and  C_22
REMARK    9  A    between atoms: C_14  and  C_24
REMARK   10  A    between atoms: C_24  and  C_25
REMARK   11  A    between atoms: C_27  and  C_29
REMARK   12  A    between atoms: C_28  and  C_30
REMARK                            x       y       z     vdW  Elec       q    Type
REMARK                         _______ _______ _______ _____ _____    ______ ____
ROOT
ATOM      1  S   UNL     1      -4.589  -9.212   9.817  0.00  0.00    -0.057 S 
ATOM      5  O   UNL     1      -8.918  -7.625   9.119  0.00  0.00    -0.273 OA
ATOM      7  N   UNL     1      -6.909  -8.879  10.911  0.00  0.00    -0.229 NA
ATOM      9  N   UNL     1      -6.670  -8.151   8.626  0.00  0.00    -0.263 N 
ATOM     11  C   UNL     1      -5.596 -10.809  13.981  0.00  0.00    -0.019 C 
ATOM     12  C   UNL     1      -4.103 -10.301  13.759  0.00  0.00    +0.011 C 
ATOM     13  C   UNL     1      -2.997 -10.894  14.713  0.00  0.00    +0.021 C 
ATOM     14  C   UNL     1      -6.578  -9.787  13.241  0.00  0.00    +0.054 C 
ATOM     15  C   UNL     1      -5.926 -10.793  15.496  0.00  0.00    +0.010 C 
ATOM     16  C   UNL     1      -3.507 -10.846  16.181  0.00  0.00    +0.123 C 
ATOM     17  C   UNL     1      -3.711 -10.327  12.252  0.00  0.00    +0.049 C 
ATOM     18  C   UNL     1      -4.880 -11.481  16.361  0.00  0.00    +0.032 C 
ATOM     19  C   UNL     1      -5.833 -12.238  13.434  0.00  0.00    +0.012 C 
ATOM     20  C   UNL     1      -6.088  -9.474  11.850  0.00  0.00    +0.058 A 
ATOM     22  C   UNL     1      -1.727 -10.000  14.635  0.00  0.00    +0.016 C 
ATOM     23  C   UNL     1      -4.794  -9.708  11.433  0.00  0.00    +0.015 A 
ATOM     26  C   UNL     1      -6.228  -8.700   9.800  0.00  0.00    +0.165 A 
ATOM     28  C   UNL     1      -7.958  -7.655   8.356  0.00  0.00    +0.244 C 
ATOM     39  H   UNL     1      -5.975  -8.106   7.885  0.00  0.00    +0.157 HD
ENDROOT
BRANCH  16   2
ATOM      2  O   UNL     1      -2.583 -11.494  17.056  0.00  0.00    -0.391 OA
ATOM     36  H   UNL     1      -2.309 -12.325  16.634  0.00  0.00    +0.210 HD
ENDBRANCH  16   2
BRANCH  13  21
ATOM     21  C   UNL     1      -2.525 -12.318  14.341  0.00  0.00    +0.165 C 
BRANCH  21   3
ATOM      3  O   UNL     1      -1.175 -12.440  14.729  0.00  0.00    -0.394 OA
ATOM     37  H   UNL     1      -1.041 -13.357  15.024  0.00  0.00    +0.209 HD
ENDBRANCH  21   3
ENDBRANCH  13  21
BRANCH  14  24
ATOM     24  C   UNL     1      -8.052 -10.213  13.235  0.00  0.00    +0.106 C 
BRANCH  24  25
ATOM      4  O   UNL     1      -8.785  -8.764  15.030  0.00  0.00    -0.276 OA
ATOM      8  N   UNL     1      -9.299 -11.030  15.102  0.00  0.00    -0.311 N 
ATOM     25  C   UNL     1      -8.741  -9.891  14.542  0.00  0.00    +0.214 C 
ATOM     38  H   UNL     1      -9.212 -11.917  14.613  0.00  0.00    +0.149 HD
BRANCH   8  27
ATOM     27  C   UNL     1     -10.018 -11.022  16.356  0.00  0.00    +0.141 C 
BRANCH  27  29
ATOM     10  N   UNL     1      -8.313 -11.042  19.731  0.00  0.00    -0.263 NA
ATOM     29  C   UNL     1      -9.153 -11.458  17.502  0.00  0.00    -0.012 A 
ATOM     31  C   UNL     1      -8.403 -12.628  17.432  0.00  0.00    +0.008 A 
ATOM     32  C   UNL     1      -9.073 -10.707  18.665  0.00  0.00    +0.115 A 
ATOM     33  C   UNL     1      -7.610 -13.005  18.509  0.00  0.00    +0.020 A 
ATOM     34  C   UNL     1      -7.600 -12.184  19.625  0.00  0.00    +0.111 A 
ENDBRANCH  27  29
ENDBRANCH   8  27
ENDBRANCH  24  25
ENDBRANCH  14  24
BRANCH  28  30
ATOM     30  C   UNL     1      -8.059  -7.125   6.938  0.00  0.00    +0.255 C 
BRANCH  30   6
ATOM      6  O   UNL     1      -7.766  -8.137   5.999  0.00  0.00    -0.374 OA
ATOM     35  C   UNL     1      -8.889  -8.980   5.758  0.00  0.00    +0.194 C 
ENDBRANCH  30   6
ENDBRANCH  28  30
TORSDOF 9
ENDMDL
MODEL 8
REMARK VINA RESULT:      -6.0     28.331     31.327
REMARK  Name = 11867292
REMARK  12 active torsions:
REMARK  status: ('A' for Active; 'I' for Inactive)
REMARK    1  A    between atoms: O_2  and  C_16
REMARK    2  A    between atoms: O_3  and  C_21
REMARK    3  A    between atoms: O_6  and  C_30
REMARK    4  A    between atoms: O_6  and  C_35
REMARK    5  A    between atoms: N_8  and  C_27
REMARK    6  A    between atoms: C_11  and  C_19
REMARK    7  A    between atoms: C_13  and  C_21
REMARK    8  A    between atoms: C_13  and  C_22
REMARK    9  A    between atoms: C_14  and  C_24
REMARK   10  A    between atoms: C_24  and  C_25
REMARK   11  A    between atoms: C_27  and  C_29
REMARK   12  A    between atoms: C_28  and  C_30
REMARK                            x       y       z     vdW  Elec       q    Type
REMARK                         _______ _______ _______ _____ _____    ______ ____
ROOT
ATOM      1  S   UNL     1      -8.717 -10.127  13.302  0.00  0.00    -0.057 S 
ATOM      5  O   UNL     1      -4.565  -9.043  11.476  0.00  0.00    -0.273 OA
ATOM      7  N   UNL     1      -6.176 -10.022  13.771  0.00  0.00    -0.229 NA
ATOM      9  N   UNL     1      -6.908  -9.325  11.583  0.00  0.00    -0.263 N 
ATOM     11  C   UNL     1      -6.944 -10.966  17.430  0.00  0.00    -0.019 C 
ATOM     12  C   UNL     1      -8.225 -11.820  17.024  0.00  0.00    +0.011 C 
ATOM     13  C   UNL     1      -9.095 -12.409  18.199  0.00  0.00    +0.021 C 
ATOM     14  C   UNL     1      -5.999 -10.854  16.146  0.00  0.00    +0.054 C 
ATOM     15  C   UNL     1      -6.164 -11.708  18.547  0.00  0.00    +0.010 C 
ATOM     16  C   UNL     1      -8.157 -13.071  19.248  0.00  0.00    +0.123 C 
ATOM     17  C   UNL     1      -9.061 -11.101  15.923  0.00  0.00    +0.049 C 
ATOM     18  C   UNL     1      -7.033 -12.154  19.713  0.00  0.00    +0.032 C 
ATOM     19  C   UNL     1      -7.301  -9.546  17.933  0.00  0.00    +0.012 C 
ATOM     20  C   UNL     1      -6.792 -10.482  14.919  0.00  0.00    +0.058 A 
ATOM     22  C   UNL     1     -10.020 -13.524  17.636  0.00  0.00    +0.016 C 
ATOM     23  C   UNL     1      -8.163 -10.617  14.835  0.00  0.00    +0.015 A 
ATOM     26  C   UNL     1      -7.093  -9.795  12.856  0.00  0.00    +0.165 A 
ATOM     28  C   UNL     1      -5.685  -8.984  10.977  0.00  0.00    +0.244 C 
ATOM     39  H   UNL     1      -7.758  -9.222  11.035  0.00  0.00    +0.157 HD
ENDROOT
BRANCH  16   2
ATOM      2  O   UNL     1      -8.901 -13.501  20.388  0.00  0.00    -0.391 OA
ATOM     36  H   UNL     1      -9.195 -14.412  20.222  0.00  0.00    +0.210 HD
ENDBRANCH  16   2
BRANCH  13  21
ATOM     21  C   UNL     1     -10.039 -11.388  18.872  0.00  0.00    +0.165 C 
BRANCH  21   3
ATOM      3  O   UNL     1     -11.197 -12.078  19.286  0.00  0.00    -0.394 OA
ATOM     37  H   UNL     1     -11.213 -12.059  20.258  0.00  0.00    +0.209 HD
ENDBRANCH  21   3
ENDBRANCH  13  21
BRANCH  14  24
ATOM     24  C   UNL     1      -4.783  -9.936  16.328  0.00  0.00    +0.106 C 
BRANCH  24  25
ATOM      4  O   UNL     1      -2.858 -11.357  16.688  0.00  0.00    -0.276 OA
ATOM      8  N   UNL     1      -3.133 -10.297  14.638  0.00  0.00    -0.311 N 
ATOM     25  C   UNL     1      -3.493 -10.620  15.938  0.00  0.00    +0.214 C 
ATOM     38  H   UNL     1      -3.733  -9.680  14.096  0.00  0.00    +0.149 HD
BRANCH   8  27
ATOM     27  C   UNL     1      -1.940 -10.805  13.999  0.00  0.00    +0.141 C 
BRANCH  27  29
ATOM     10  N   UNL     1      -1.817 -14.478  13.109  0.00  0.00    -0.263 NA
ATOM     29  C   UNL     1      -2.196 -12.096  13.278  0.00  0.00    -0.012 A 
ATOM     31  C   UNL     1      -3.010 -12.140  12.151  0.00  0.00    +0.008 A 
ATOM     32  C   UNL     1      -1.628 -13.284  13.713  0.00  0.00    +0.115 A 
ATOM     33  C   UNL     1      -3.228 -13.350  11.503  0.00  0.00    +0.020 A 
ATOM     34  C   UNL     1      -2.614 -14.480  12.018  0.00  0.00    +0.111 A 
ENDBRANCH  27  29
ENDBRANCH   8  27
ENDBRANCH  24  25
ENDBRANCH  14  24
BRANCH  28  30
ATOM     30  C   UNL     1      -5.890  -8.503   9.552  0.00  0.00    +0.255 C 
BRANCH  30   6
ATOM      6  O   UNL     1      -4.819  -8.907   8.725  0.00  0.00    -0.374 OA
ATOM     35  C   UNL     1      -5.207  -9.934   7.817  0.00  0.00    +0.194 C 
ENDBRANCH  30   6
ENDBRANCH  28  30
TORSDOF 9
ENDMDL
MODEL 9
REMARK VINA RESULT:      -5.8     30.617     33.450
REMARK  Name = 11867292
REMARK  12 active torsions:
REMARK  status: ('A' for Active; 'I' for Inactive)
REMARK    1  A    between atoms: O_2  and  C_16
REMARK    2  A    between atoms: O_3  and  C_21
REMARK    3  A    between atoms: O_6  and  C_30
REMARK    4  A    between atoms: O_6  and  C_35
REMARK    5  A    between atoms: N_8  and  C_27
REMARK    6  A    between atoms: C_11  and  C_19
REMARK    7  A    between atoms: C_13  and  C_21
REMARK    8  A    between atoms: C_13  and  C_22
REMARK    9  A    between atoms: C_14  and  C_24
REMARK   10  A    between atoms: C_24  and  C_25
REMARK   11  A    between atoms: C_27  and  C_29
REMARK   12  A    between atoms: C_28  and  C_30
REMARK                            x       y       z     vdW  Elec       q    Type
REMARK                         _______ _______ _______ _____ _____    ______ ____
ROOT
ATOM      1  S   UNL     1     -16.296   0.953  27.423  0.00  0.00    -0.057 S 
ATOM      5  O   UNL     1     -18.147   2.956  23.639  0.00  0.00    -0.273 OA
ATOM      7  N   UNL     1     -17.169   3.179  26.435  0.00  0.00    -0.229 NA
ATOM      9  N   UNL     1     -17.257   1.243  25.001  0.00  0.00    -0.263 N 
ATOM     11  C   UNL     1     -16.686   4.764  29.917  0.00  0.00    -0.019 C 
ATOM     12  C   UNL     1     -15.458   3.811  30.267  0.00  0.00    +0.011 C 
ATOM     13  C   UNL     1     -14.863   3.918  31.723  0.00  0.00    +0.021 C 
ATOM     14  C   UNL     1     -16.832   4.814  28.326  0.00  0.00    +0.054 C 
ATOM     15  C   UNL     1     -16.386   6.198  30.425  0.00  0.00    +0.010 C 
ATOM     16  C   UNL     1     -14.669   5.417  32.089  0.00  0.00    +0.123 C 
ATOM     17  C   UNL     1     -15.724   2.348  29.803  0.00  0.00    +0.049 C 
ATOM     18  C   UNL     1     -15.924   6.255  31.874  0.00  0.00    +0.032 C 
ATOM     19  C   UNL     1     -18.018   4.283  30.542  0.00  0.00    +0.012 C 
ATOM     20  C   UNL     1     -16.760   3.431  27.731  0.00  0.00    +0.058 A 
ATOM     22  C   UNL     1     -13.458   3.251  31.746  0.00  0.00    +0.016 C 
ATOM     23  C   UNL     1     -16.243   2.344  28.405  0.00  0.00    +0.015 A 
ATOM     26  C   UNL     1     -16.978   1.905  26.167  0.00  0.00    +0.165 A 
ATOM     28  C   UNL     1     -17.812   1.792  23.830  0.00  0.00    +0.244 C 
ATOM     39  H   UNL     1     -17.030   0.253  25.004  0.00  0.00    +0.157 HD
ENDROOT
BRANCH  16   2
ATOM      2  O   UNL     1     -14.253   5.553  33.447  0.00  0.00    -0.391 OA
ATOM     36  H   UNL     1     -14.047   6.491  33.600  0.00  0.00    +0.210 HD
ENDBRANCH  16   2
BRANCH  13  21
ATOM     21  C   UNL     1     -15.686   3.188  32.808  0.00  0.00    +0.165 C 
BRANCH  21   3
ATOM      3  O   UNL     1     -14.811   2.855  33.862  0.00  0.00    -0.394 OA
ATOM     37  H   UNL     1     -15.241   3.125  34.691  0.00  0.00    +0.209 HD
ENDBRANCH  21   3
ENDBRANCH  13  21
BRANCH  14  24
ATOM     24  C   UNL     1     -18.065   5.578  27.823  0.00  0.00    +0.106 C 
BRANCH  24  25
ATOM      4  O   UNL     1     -17.582   7.856  27.166  0.00  0.00    -0.276 OA
ATOM      8  N   UNL     1     -17.508   6.163  25.575  0.00  0.00    -0.311 N 
ATOM     25  C   UNL     1     -17.694   6.674  26.851  0.00  0.00    +0.214 C 
ATOM     38  H   UNL     1     -17.618   5.165  25.420  0.00  0.00    +0.149 HD
BRANCH   8  27
ATOM     27  C   UNL     1     -17.149   6.983  24.440  0.00  0.00    +0.141 C 
BRANCH  27  29
ATOM     10  N   UNL     1     -14.608   4.477  23.190  0.00  0.00    -0.263 NA
ATOM     29  C   UNL     1     -16.030   6.380  23.642  0.00  0.00    -0.012 A 
ATOM     31  C   UNL     1     -15.381   7.109  22.651  0.00  0.00    +0.008 A 
ATOM     32  C   UNL     1     -15.609   5.079  23.871  0.00  0.00    +0.115 A 
ATOM     33  C   UNL     1     -14.347   6.524  21.930  0.00  0.00    +0.020 A 
ATOM     34  C   UNL     1     -14.002   5.217  22.235  0.00  0.00    +0.111 A 
ENDBRANCH  27  29
ENDBRANCH   8  27
ENDBRANCH  24  25
ENDBRANCH  14  24
BRANCH  28  30
ATOM     30  C   UNL     1     -17.969   0.738  22.749  0.00  0.00    +0.255 C 
BRANCH  30   6
ATOM      6  O   UNL     1     -17.582  -0.534  23.224  0.00  0.00    -0.374 OA
ATOM     35  C   UNL     1     -18.627  -1.493  23.089  0.00  0.00    +0.194 C 
ENDBRANCH  30   6
ENDBRANCH  28  30
TORSDOF 9
ENDMDL
MODEL 10
REMARK VINA RESULT:      -5.8     29.740     32.948
REMARK  Name = 11867292
REMARK  12 active torsions:
REMARK  status: ('A' for Active; 'I' for Inactive)
REMARK    1  A    between atoms: O_2  and  C_16
REMARK    2  A    between atoms: O_3  and  C_21
REMARK    3  A    between atoms: O_6  and  C_30
REMARK    4  A    between atoms: O_6  and  C_35
REMARK    5  A    between atoms: N_8  and  C_27
REMARK    6  A    between atoms: C_11  and  C_19
REMARK    7  A    between atoms: C_13  and  C_21
REMARK    8  A    between atoms: C_13  and  C_22
REMARK    9  A    between atoms: C_14  and  C_24
REMARK   10  A    between atoms: C_24  and  C_25
REMARK   11  A    between atoms: C_27  and  C_29
REMARK   12  A    between atoms: C_28  and  C_30
REMARK                            x       y       z     vdW  Elec       q    Type
REMARK                         _______ _______ _______ _____ _____    ______ ____
ROOT
ATOM      1  S   UNL     1     -16.115   2.151  27.430  0.00  0.00    -0.057 S 
ATOM      5  O   UNL     1     -17.644   5.394  24.449  0.00  0.00    -0.273 OA
ATOM      7  N   UNL     1     -16.800   4.633  27.193  0.00  0.00    -0.229 NA
ATOM      9  N   UNL     1     -16.931   3.274  25.207  0.00  0.00    -0.263 N 
ATOM     11  C   UNL     1     -16.402   4.974  31.014  0.00  0.00    -0.019 C 
ATOM     12  C   UNL     1     -15.254   3.872  31.071  0.00  0.00    +0.011 C 
ATOM     13  C   UNL     1     -14.729   3.461  32.500  0.00  0.00    +0.021 C 
ATOM     14  C   UNL     1     -16.464   5.544  29.521  0.00  0.00    +0.054 C 
ATOM     15  C   UNL     1     -16.043   6.142  31.968  0.00  0.00    +0.010 C 
ATOM     16  C   UNL     1     -14.465   4.744  33.338  0.00  0.00    +0.123 C 
ATOM     17  C   UNL     1     -15.583   2.660  30.150  0.00  0.00    +0.049 C 
ATOM     18  C   UNL     1     -15.654   5.696  33.369  0.00  0.00    +0.032 C 
ATOM     19  C   UNL     1     -17.792   4.417  31.410  0.00  0.00    +0.012 C 
ATOM     20  C   UNL     1     -16.444   4.424  28.512  0.00  0.00    +0.058 A 
ATOM     22  C   UNL     1     -13.370   2.720  32.346  0.00  0.00    +0.016 C 
ATOM     23  C   UNL     1     -16.029   3.143  28.811  0.00  0.00    +0.015 A 
ATOM     26  C   UNL     1     -16.672   3.503  26.532  0.00  0.00    +0.165 A 
ATOM     28  C   UNL     1     -17.390   4.209  24.261  0.00  0.00    +0.244 C 
ATOM     39  H   UNL     1     -16.764   2.321  24.895  0.00  0.00    +0.157 HD
ENDROOT
BRANCH  16   2
ATOM      2  O   UNL     1     -14.111   4.405  34.679  0.00  0.00    -0.391 OA
ATOM     36  H   UNL     1     -14.130   3.436  34.753  0.00  0.00    +0.210 HD
ENDBRANCH  16   2
BRANCH  13  21
ATOM     21  C   UNL     1     -15.649   2.483  33.265  0.00  0.00    +0.165 C 
BRANCH  21   3
ATOM      3  O   UNL     1     -14.842   1.718  34.130  0.00  0.00    -0.394 OA
ATOM     37  H   UNL     1     -13.958   1.662  33.727  0.00  0.00    +0.209 HD
ENDBRANCH  21   3
ENDBRANCH  13  21
BRANCH  14  24
ATOM     24  C   UNL     1     -17.620   6.517  29.258  0.00  0.00    +0.106 C 
BRANCH  24  25
ATOM      4  O   UNL     1     -17.274   8.263  27.618  0.00  0.00    -0.276 OA
ATOM      8  N   UNL     1     -16.500   8.560  29.790  0.00  0.00    -0.311 N 
ATOM     25  C   UNL     1     -17.130   7.861  28.770  0.00  0.00    +0.214 C 
ATOM     38  H   UNL     1     -16.439   8.140  30.714  0.00  0.00    +0.149 HD
BRANCH   8  27
ATOM     27  C   UNL     1     -15.929   9.875  29.611  0.00  0.00    +0.141 C 
BRANCH  27  29
ATOM     10  N   UNL     1     -12.240  10.701  29.719  0.00  0.00    -0.263 NA
ATOM     29  C   UNL     1     -14.506   9.939  30.083  0.00  0.00    -0.012 A 
ATOM     31  C   UNL     1     -14.116   9.327  31.270  0.00  0.00    +0.008 A 
ATOM     32  C   UNL     1     -13.538  10.608  29.350  0.00  0.00    +0.115 A 
ATOM     33  C   UNL     1     -12.790   9.401  31.681  0.00  0.00    +0.020 A 
ATOM     34  C   UNL     1     -11.899  10.094  30.876  0.00  0.00    +0.111 A 
ENDBRANCH  27  29
ENDBRANCH   8  27
ENDBRANCH  24  25
ENDBRANCH  14  24
BRANCH  28  30
ATOM     30  C   UNL     1     -17.555   3.574  22.893  0.00  0.00    +0.255 C 
BRANCH  30   6
ATOM      6  O   UNL     1     -17.029   2.263  22.878  0.00  0.00    -0.374 OA
ATOM     35  C   UNL     1     -17.983   1.313  22.414  0.00  0.00    +0.194 C 
ENDBRANCH  30   6
ENDBRANCH  28  30
TORSDOF 9
ENDMDL
