MODEL 1
REMARK VINA RESULT:      -7.3      0.000      0.000
REMARK  Name = 11884015
REMARK  9 active torsions:
REMARK  status: ('A' for Active; 'I' for Inactive)
REMARK    1  A    between atoms: O_3  and  C_13
REMARK    2  A    between atoms: O_3  and  C_17
REMARK    3  A    between atoms: O_6  and  C_30
REMARK    4  A    between atoms: O_6  and  C_31
REMARK    5  A    between atoms: N_8  and  C_12
REMARK    6  A    between atoms: N_9  and  C_21
REMARK    7  A    between atoms: C_16  and  C_18
REMARK    8  A    between atoms: C_27  and  C_30
REMARK    9  A    between atoms: C_31  and  C_32
REMARK                            x       y       z     vdW  Elec       q    Type
REMARK                         _______ _______ _______ _____ _____    ______ ____
ROOT
ATOM      1  O   UNL     1     -17.030   4.684  25.581  0.00  0.00    -0.368 OA
ATOM      2  O   UNL     1     -16.863   1.916  24.272  0.00  0.00    -0.368 OA
ATOM     10  C   UNL     1     -16.159   2.487  25.395  0.00  0.00    +0.173 C 
ATOM     11  C   UNL     1     -15.911   3.944  25.065  0.00  0.00    +0.192 C 
ATOM     12  C   UNL     1     -17.066   2.538  26.603  0.00  0.00    +0.130 C 
ATOM     13  C   UNL     1     -15.894   3.938  23.554  0.00  0.00    +0.235 C 
ATOM     14  C   UNL     1     -17.864   3.807  26.353  0.00  0.00    +0.185 C 
ATOM     15  C   UNL     1     -16.942   2.898  23.228  0.00  0.00    +0.207 C 
ENDROOT
BRANCH  12   8
ATOM      4  O   UNL     1     -16.511   0.405  28.443  0.00  0.00    -0.270 OA
ATOM      8  N   UNL     1     -16.305   2.630  27.825  0.00  0.00    -0.304 N 
ATOM     16  C   UNL     1     -16.089   1.538  28.654  0.00  0.00    +0.244 C 
ATOM     33  H   UNL     1     -16.016   3.557  28.119  0.00  0.00    +0.149 HD
BRANCH  16  18
ATOM     18  C   UNL     1     -15.307   1.804  29.890  0.00  0.00    +0.037 A 
ATOM     19  C   UNL     1     -14.593   2.994  30.020  0.00  0.00    +0.013 A 
ATOM     20  C   UNL     1     -15.289   0.862  30.919  0.00  0.00    +0.013 A 
ATOM     22  C   UNL     1     -13.859   3.243  31.180  0.00  0.00    +0.001 A 
ATOM     23  C   UNL     1     -14.555   1.111  32.079  0.00  0.00    +0.001 A 
ATOM     24  C   UNL     1     -13.839   2.302  32.209  0.00  0.00    +0.000 A 
ENDBRANCH  16  18
ENDBRANCH  12   8
BRANCH  13   3
ATOM      3  O   UNL     1     -16.194   5.192  22.983  0.00  0.00    -0.442 OA
BRANCH   3  17
ATOM      5  O   UNL     1     -15.597   5.224  20.776  0.00  0.00    -0.226 OA
ATOM      9  N   UNL     1     -14.426   6.456  22.384  0.00  0.00    -0.251 N 
ATOM     17  C   UNL     1     -15.407   5.600  21.926  0.00  0.00    +0.405 C 
ATOM     34  H   UNL     1     -14.428   6.650  23.384  0.00  0.00    +0.158 HD
BRANCH   9  21
ATOM     21  C   UNL     1     -13.413   7.100  21.637  0.00  0.00    +0.037 A 
ATOM     25  C   UNL     1     -13.396   8.491  21.538  0.00  0.00    +0.038 A 
ATOM     26  C   UNL     1     -12.430   6.343  20.999  0.00  0.00    +0.023 A 
ATOM     27  C   UNL     1     -12.396   9.126  20.801  0.00  0.00    +0.061 A 
ATOM     28  C   UNL     1     -11.430   6.978  20.263  0.00  0.00    +0.003 A 
ATOM     29  C   UNL     1     -11.413   8.369  20.163  0.00  0.00    +0.015 A 
BRANCH  27  30
ATOM      7  O   UNL     1     -12.262  11.346  21.659  0.00  0.00    -0.245 OA
ATOM     30  C   UNL     1     -12.378  10.576  20.697  0.00  0.00    +0.339 C 
BRANCH  30   6
ATOM      6  O   UNL     1     -12.503  10.989  19.398  0.00  0.00    -0.461 OA
BRANCH   6  31
ATOM     31  C   UNL     1     -11.599  12.005  18.952  0.00  0.00    +0.229 C 
ATOM     32  C   UNL     1     -10.453  11.354  18.208  0.00  0.00    +0.048 C 
ENDBRANCH   6  31
ENDBRANCH  30   6
ENDBRANCH  27  30
ENDBRANCH   9  21
ENDBRANCH   3  17
ENDBRANCH  13   3
TORSDOF 8
ENDMDL
MODEL 2
REMARK VINA RESULT:      -7.2     16.445     19.513
REMARK  Name = 11884015
REMARK  9 active torsions:
REMARK  status: ('A' for Active; 'I' for Inactive)
REMARK    1  A    between atoms: O_3  and  C_13
REMARK    2  A    between atoms: O_3  and  C_17
REMARK    3  A    between atoms: O_6  and  C_30
REMARK    4  A    between atoms: O_6  and  C_31
REMARK    5  A    between atoms: N_8  and  C_12
REMARK    6  A    between atoms: N_9  and  C_21
REMARK    7  A    between atoms: C_16  and  C_18
REMARK    8  A    between atoms: C_27  and  C_30
REMARK    9  A    between atoms: C_31  and  C_32
REMARK                            x       y       z     vdW  Elec       q    Type
REMARK                         _______ _______ _______ _____ _____    ______ ____
ROOT
ATOM      1  O   UNL     1     -12.392  -7.924  14.582  0.00  0.00    -0.368 OA
ATOM      2  O   UNL     1     -11.144  -5.957  16.576  0.00  0.00    -0.368 OA
ATOM     10  C   UNL     1     -11.134  -5.991  15.134  0.00  0.00    +0.173 C 
ATOM     11  C   UNL     1     -11.043  -7.448  14.729  0.00  0.00    +0.192 C 
ATOM     12  C   UNL     1     -12.475  -5.549  14.596  0.00  0.00    +0.130 C 
ATOM     13  C   UNL     1     -10.355  -8.075  15.918  0.00  0.00    +0.235 C 
ATOM     14  C   UNL     1     -13.300  -6.820  14.703  0.00  0.00    +0.185 C 
ATOM     15  C   UNL     1     -10.932  -7.288  17.072  0.00  0.00    +0.207 C 
ENDROOT
BRANCH  12   8
ATOM      4  O   UNL     1     -13.959  -3.423  13.362  0.00  0.00    -0.270 OA
ATOM      8  N   UNL     1     -12.370  -5.106  13.228  0.00  0.00    -0.304 N 
ATOM     16  C   UNL     1     -13.133  -4.064  12.719  0.00  0.00    +0.244 C 
ATOM     33  H   UNL     1     -11.786  -5.658  12.608  0.00  0.00    +0.149 HD
BRANCH  16  18
ATOM     18  C   UNL     1     -12.926  -3.746  11.282  0.00  0.00    +0.037 A 
ATOM     19  C   UNL     1     -14.017  -3.426  10.475  0.00  0.00    +0.013 A 
ATOM     20  C   UNL     1     -11.640  -3.767  10.742  0.00  0.00    +0.013 A 
ATOM     22  C   UNL     1     -13.822  -3.127   9.126  0.00  0.00    +0.001 A 
ATOM     23  C   UNL     1     -11.445  -3.469   9.394  0.00  0.00    +0.001 A 
ATOM     24  C   UNL     1     -12.537  -3.149   8.585  0.00  0.00    +0.000 A 
ENDBRANCH  16  18
ENDBRANCH  12   8
BRANCH  13   3
ATOM      3  O   UNL     1     -10.599  -9.458  16.045  0.00  0.00    -0.442 OA
BRANCH   3  17
ATOM      5  O   UNL     1      -9.530 -11.479  15.971  0.00  0.00    -0.226 OA
ATOM      9  N   UNL     1      -8.417  -9.522  16.610  0.00  0.00    -0.251 N 
ATOM     17  C   UNL     1      -9.496 -10.275  16.192  0.00  0.00    +0.405 C 
ATOM     34  H   UNL     1      -8.585  -8.527  16.741  0.00  0.00    +0.158 HD
BRANCH   9  21
ATOM     21  C   UNL     1      -7.100  -9.962  16.881  0.00  0.00    +0.037 A 
ATOM     25  C   UNL     1      -6.207 -10.179  15.832  0.00  0.00    +0.038 A 
ATOM     26  C   UNL     1      -6.696 -10.178  18.198  0.00  0.00    +0.023 A 
ATOM     27  C   UNL     1      -4.909 -10.612  16.100  0.00  0.00    +0.061 A 
ATOM     28  C   UNL     1      -5.397 -10.611  18.466  0.00  0.00    +0.003 A 
ATOM     29  C   UNL     1      -4.504 -10.828  17.417  0.00  0.00    +0.015 A 
BRANCH  27  30
ATOM      7  O   UNL     1      -4.110 -10.378  13.866  0.00  0.00    -0.245 OA
ATOM     30  C   UNL     1      -3.977 -10.839  15.007  0.00  0.00    +0.339 C 
BRANCH  30   6
ATOM      6  O   UNL     1      -2.928 -11.627  15.395  0.00  0.00    -0.461 OA
BRANCH   6  31
ATOM     31  C   UNL     1      -1.636 -11.282  14.886  0.00  0.00    +0.229 C 
ATOM     32  C   UNL     1      -1.049 -10.176  15.737  0.00  0.00    +0.048 C 
ENDBRANCH   6  31
ENDBRANCH  30   6
ENDBRANCH  27  30
ENDBRANCH   9  21
ENDBRANCH   3  17
ENDBRANCH  13   3
TORSDOF 8
ENDMDL
MODEL 3
REMARK VINA RESULT:      -7.2      2.229     10.490
REMARK  Name = 11884015
REMARK  9 active torsions:
REMARK  status: ('A' for Active; 'I' for Inactive)
REMARK    1  A    between atoms: O_3  and  C_13
REMARK    2  A    between atoms: O_3  and  C_17
REMARK    3  A    between atoms: O_6  and  C_30
REMARK    4  A    between atoms: O_6  and  C_31
REMARK    5  A    between atoms: N_8  and  C_12
REMARK    6  A    between atoms: N_9  and  C_21
REMARK    7  A    between atoms: C_16  and  C_18
REMARK    8  A    between atoms: C_27  and  C_30
REMARK    9  A    between atoms: C_31  and  C_32
REMARK                            x       y       z     vdW  Elec       q    Type
REMARK                         _______ _______ _______ _____ _____    ______ ____
ROOT
ATOM      1  O   UNL     1     -16.402   2.776  23.617  0.00  0.00    -0.368 OA
ATOM      2  O   UNL     1     -17.403   5.076  25.380  0.00  0.00    -0.368 OA
ATOM     10  C   UNL     1     -16.226   4.946  24.556  0.00  0.00    +0.173 C 
ATOM     11  C   UNL     1     -15.762   3.509  24.675  0.00  0.00    +0.192 C 
ATOM     12  C   UNL     1     -16.598   5.087  23.098  0.00  0.00    +0.130 C 
ATOM     13  C   UNL     1     -16.289   3.108  26.032  0.00  0.00    +0.235 C 
ATOM     14  C   UNL     1     -17.093   3.693  22.755  0.00  0.00    +0.185 C 
ATOM     15  C   UNL     1     -17.606   3.847  26.094  0.00  0.00    +0.207 C 
ENDROOT
BRANCH  12   8
ATOM      4  O   UNL     1     -16.057   7.657  21.935  0.00  0.00    -0.270 OA
ATOM      8  N   UNL     1     -15.452   5.448  22.298  0.00  0.00    -0.304 N 
ATOM     16  C   UNL     1     -15.277   6.722  21.776  0.00  0.00    +0.244 C 
ATOM     33  H   UNL     1     -14.819   4.700  22.036  0.00  0.00    +0.149 HD
BRANCH  16  18
ATOM     18  C   UNL     1     -14.057   6.926  20.952  0.00  0.00    +0.037 A 
ATOM     19  C   UNL     1     -12.817   6.498  21.425  0.00  0.00    +0.013 A 
ATOM     20  C   UNL     1     -14.154   7.544  19.706  0.00  0.00    +0.013 A 
ATOM     22  C   UNL     1     -11.673   6.690  20.651  0.00  0.00    +0.001 A 
ATOM     23  C   UNL     1     -13.009   7.736  18.931  0.00  0.00    +0.001 A 
ATOM     24  C   UNL     1     -11.768   7.308  19.405  0.00  0.00    +0.000 A 
ENDBRANCH  16  18
ENDBRANCH  12   8
BRANCH  13   3
ATOM      3  O   UNL     1     -16.454   1.715  26.182  0.00  0.00    -0.442 OA
BRANCH   3  17
ATOM      5  O   UNL     1     -17.485   0.468  27.797  0.00  0.00    -0.226 OA
ATOM      9  N   UNL     1     -15.594   1.764  28.265  0.00  0.00    -0.251 N 
ATOM     17  C   UNL     1     -16.592   1.239  27.469  0.00  0.00    +0.405 C 
ATOM     34  H   UNL     1     -14.937   2.394  27.808  0.00  0.00    +0.158 HD
BRANCH   9  21
ATOM     21  C   UNL     1     -15.368   1.538  29.643  0.00  0.00    +0.037 A 
ATOM     25  C   UNL     1     -15.608   2.555  30.566  0.00  0.00    +0.038 A 
ATOM     26  C   UNL     1     -14.905   0.296  30.077  0.00  0.00    +0.023 A 
ATOM     27  C   UNL     1     -15.386   2.331  31.924  0.00  0.00    +0.061 A 
ATOM     28  C   UNL     1     -14.684   0.071  31.436  0.00  0.00    +0.003 A 
ATOM     29  C   UNL     1     -14.924   1.089  32.359  0.00  0.00    +0.015 A 
BRANCH  27  30
ATOM      7  O   UNL     1     -16.741   3.913  33.084  0.00  0.00    -0.245 OA
ATOM     30  C   UNL     1     -15.636   3.391  32.887  0.00  0.00    +0.339 C 
BRANCH  30   6
ATOM      6  O   UNL     1     -14.495   3.743  33.556  0.00  0.00    -0.461 OA
BRANCH   6  31
ATOM     31  C   UNL     1     -14.323   5.132  33.856  0.00  0.00    +0.229 C 
ATOM     32  C   UNL     1     -14.051   5.885  32.571  0.00  0.00    +0.048 C 
ENDBRANCH   6  31
ENDBRANCH  30   6
ENDBRANCH  27  30
ENDBRANCH   9  21
ENDBRANCH   3  17
ENDBRANCH  13   3
TORSDOF 8
ENDMDL
MODEL 4
REMARK VINA RESULT:      -7.1     18.475     20.349
REMARK  Name = 11884015
REMARK  9 active torsions:
REMARK  status: ('A' for Active; 'I' for Inactive)
REMARK    1  A    between atoms: O_3  and  C_13
REMARK    2  A    between atoms: O_3  and  C_17
REMARK    3  A    between atoms: O_6  and  C_30
REMARK    4  A    between atoms: O_6  and  C_31
REMARK    5  A    between atoms: N_8  and  C_12
REMARK    6  A    between atoms: N_9  and  C_21
REMARK    7  A    between atoms: C_16  and  C_18
REMARK    8  A    between atoms: C_27  and  C_30
REMARK    9  A    between atoms: C_31  and  C_32
REMARK                            x       y       z     vdW  Elec       q    Type
REMARK                         _______ _______ _______ _____ _____    ______ ____
ROOT
ATOM      1  O   UNL     1      -7.006 -11.608  16.942  0.00  0.00    -0.368 OA
ATOM      2  O   UNL     1      -6.424 -10.948  19.879  0.00  0.00    -0.368 OA
ATOM     10  C   UNL     1      -7.028 -10.169  18.826  0.00  0.00    +0.173 C 
ATOM     11  C   UNL     1      -6.295 -10.515  17.546  0.00  0.00    +0.192 C 
ATOM     12  C   UNL     1      -8.440 -10.645  18.575  0.00  0.00    +0.130 C 
ATOM     13  C   UNL     1      -4.938 -10.942  18.053  0.00  0.00    +0.235 C 
ATOM     14  C   UNL     1      -8.219 -11.847  17.672  0.00  0.00    +0.185 C 
ATOM     15  C   UNL     1      -5.288 -11.644  19.346  0.00  0.00    +0.207 C 
ENDROOT
BRANCH  12   8
ATOM      4  O   UNL     1     -11.282 -10.278  18.767  0.00  0.00    -0.270 OA
ATOM      8  N   UNL     1      -9.225  -9.631  17.914  0.00  0.00    -0.304 N 
ATOM     16  C   UNL     1     -10.601  -9.532  18.069  0.00  0.00    +0.244 C 
ATOM     33  H   UNL     1      -8.746  -9.045  17.238  0.00  0.00    +0.149 HD
BRANCH  16  18
ATOM     18  C   UNL     1     -11.267  -8.449  17.300  0.00  0.00    +0.037 A 
ATOM     19  C   UNL     1     -12.593  -8.595  16.894  0.00  0.00    +0.013 A 
ATOM     20  C   UNL     1     -10.565  -7.285  16.985  0.00  0.00    +0.013 A 
ATOM     22  C   UNL     1     -13.217  -7.577  16.173  0.00  0.00    +0.001 A 
ATOM     23  C   UNL     1     -11.190  -6.267  16.264  0.00  0.00    +0.001 A 
ATOM     24  C   UNL     1     -12.516  -6.414  15.857  0.00  0.00    +0.000 A 
ENDBRANCH  16  18
ENDBRANCH  12   8
BRANCH  13   3
ATOM      3  O   UNL     1      -4.245 -11.786  17.162  0.00  0.00    -0.442 OA
BRANCH   3  17
ATOM      5  O   UNL     1      -2.485 -10.514  16.445  0.00  0.00    -0.226 OA
ATOM      9  N   UNL     1      -4.032 -11.429  14.946  0.00  0.00    -0.251 N 
ATOM     17  C   UNL     1      -3.484 -11.173  16.187  0.00  0.00    +0.405 C 
ATOM     34  H   UNL     1      -4.872 -12.003  14.933  0.00  0.00    +0.158 HD
BRANCH   9  21
ATOM     21  C   UNL     1      -3.569 -10.992  13.683  0.00  0.00    +0.037 A 
ATOM     25  C   UNL     1      -4.433 -10.321  12.817  0.00  0.00    +0.038 A 
ATOM     26  C   UNL     1      -2.248 -11.232  13.304  0.00  0.00    +0.023 A 
ATOM     27  C   UNL     1      -3.976  -9.888  11.573  0.00  0.00    +0.061 A 
ATOM     28  C   UNL     1      -1.791 -10.799  12.058  0.00  0.00    +0.003 A 
ATOM     29  C   UNL     1      -2.655 -10.128  11.193  0.00  0.00    +0.015 A 
BRANCH  27  30
ATOM      7  O   UNL     1      -5.997  -8.771  10.983  0.00  0.00    -0.245 OA
ATOM     30  C   UNL     1      -4.875  -9.189  10.670  0.00  0.00    +0.339 C 
BRANCH  30   6
ATOM      6  O   UNL     1      -4.327  -9.046   9.424  0.00  0.00    -0.461 OA
BRANCH   6  31
ATOM     31  C   UNL     1      -5.077  -9.569   8.322  0.00  0.00    +0.229 C 
ATOM     32  C   UNL     1      -4.654 -11.000   8.072  0.00  0.00    +0.048 C 
ENDBRANCH   6  31
ENDBRANCH  30   6
ENDBRANCH  27  30
ENDBRANCH   9  21
ENDBRANCH   3  17
ENDBRANCH  13   3
TORSDOF 8
ENDMDL
MODEL 5
REMARK VINA RESULT:      -6.9      1.205      2.000
REMARK  Name = 11884015
REMARK  9 active torsions:
REMARK  status: ('A' for Active; 'I' for Inactive)
REMARK    1  A    between atoms: O_3  and  C_13
REMARK    2  A    between atoms: O_3  and  C_17
REMARK    3  A    between atoms: O_6  and  C_30
REMARK    4  A    between atoms: O_6  and  C_31
REMARK    5  A    between atoms: N_8  and  C_12
REMARK    6  A    between atoms: N_9  and  C_21
REMARK    7  A    between atoms: C_16  and  C_18
REMARK    8  A    between atoms: C_27  and  C_30
REMARK    9  A    between atoms: C_31  and  C_32
REMARK                            x       y       z     vdW  Elec       q    Type
REMARK                         _______ _______ _______ _____ _____    ______ ____
ROOT
ATOM      1  O   UNL     1     -16.457   4.800  25.321  0.00  0.00    -0.368 OA
ATOM      2  O   UNL     1     -17.059   2.024  24.165  0.00  0.00    -0.368 OA
ATOM     10  C   UNL     1     -16.218   2.441  25.261  0.00  0.00    +0.173 C 
ATOM     11  C   UNL     1     -15.586   3.757  24.854  0.00  0.00    +0.192 C 
ATOM     12  C   UNL     1     -17.069   2.803  26.457  0.00  0.00    +0.130 C 
ATOM     13  C   UNL     1     -15.581   3.664  23.347  0.00  0.00    +0.235 C 
ATOM     14  C   UNL     1     -17.493   4.225  26.132  0.00  0.00    +0.185 C 
ATOM     15  C   UNL     1     -16.875   2.932  23.069  0.00  0.00    +0.207 C 
ENDROOT
BRANCH  12   8
ATOM      4  O   UNL     1     -16.819   0.559  28.231  0.00  0.00    -0.270 OA
ATOM      8  N   UNL     1     -16.303   2.751  27.679  0.00  0.00    -0.304 N 
ATOM     16  C   UNL     1     -16.243   1.615  28.474  0.00  0.00    +0.244 C 
ATOM     33  H   UNL     1     -15.887   3.619  27.999  0.00  0.00    +0.149 HD
BRANCH  16  18
ATOM     18  C   UNL     1     -15.432   1.731  29.714  0.00  0.00    +0.037 A 
ATOM     19  C   UNL     1     -15.453   0.706  30.659  0.00  0.00    +0.013 A 
ATOM     20  C   UNL     1     -14.650   2.866  29.932  0.00  0.00    +0.013 A 
ATOM     22  C   UNL     1     -14.691   0.815  31.822  0.00  0.00    +0.001 A 
ATOM     23  C   UNL     1     -13.889   2.975  31.096  0.00  0.00    +0.001 A 
ATOM     24  C   UNL     1     -13.910   1.949  32.042  0.00  0.00    +0.000 A 
ENDBRANCH  16  18
ENDBRANCH  12   8
BRANCH  13   3
ATOM      3  O   UNL     1     -15.533   4.919  22.706  0.00  0.00    -0.442 OA
BRANCH   3  17
ATOM      5  O   UNL     1     -13.248   4.873  22.773  0.00  0.00    -0.226 OA
ATOM      9  N   UNL     1     -14.412   6.602  21.710  0.00  0.00    -0.251 N 
ATOM     17  C   UNL     1     -14.282   5.426  22.421  0.00  0.00    +0.405 C 
ATOM     34  H   UNL     1     -15.362   6.906  21.511  0.00  0.00    +0.158 HD
BRANCH   9  21
ATOM     21  C   UNL     1     -13.384   7.443  21.221  0.00  0.00    +0.037 A 
ATOM     25  C   UNL     1     -13.362   8.793  21.570  0.00  0.00    +0.038 A 
ATOM     26  C   UNL     1     -12.394   6.919  20.390  0.00  0.00    +0.023 A 
ATOM     27  C   UNL     1     -12.348   9.620  21.089  0.00  0.00    +0.061 A 
ATOM     28  C   UNL     1     -11.379   7.748  19.909  0.00  0.00    +0.003 A 
ATOM     29  C   UNL     1     -11.356   9.098  20.258  0.00  0.00    +0.015 A 
BRANCH  27  30
ATOM      7  O   UNL     1     -12.692  11.949  20.711  0.00  0.00    -0.245 OA
ATOM     30  C   UNL     1     -12.323  11.028  21.452  0.00  0.00    +0.339 C 
BRANCH  30   6
ATOM      6  O   UNL     1     -11.842  11.214  22.719  0.00  0.00    -0.461 OA
BRANCH   6  31
ATOM     31  C   UNL     1     -12.744  11.773  23.679  0.00  0.00    +0.229 C 
ATOM     32  C   UNL     1     -12.909  10.800  24.827  0.00  0.00    +0.048 C 
ENDBRANCH   6  31
ENDBRANCH  30   6
ENDBRANCH  27  30
ENDBRANCH   9  21
ENDBRANCH   3  17
ENDBRANCH  13   3
TORSDOF 8
ENDMDL
MODEL 6
REMARK VINA RESULT:      -6.8      1.669      2.200
REMARK  Name = 11884015
REMARK  9 active torsions:
REMARK  status: ('A' for Active; 'I' for Inactive)
REMARK    1  A    between atoms: O_3  and  C_13
REMARK    2  A    between atoms: O_3  and  C_17
REMARK    3  A    between atoms: O_6  and  C_30
REMARK    4  A    between atoms: O_6  and  C_31
REMARK    5  A    between atoms: N_8  and  C_12
REMARK    6  A    between atoms: N_9  and  C_21
REMARK    7  A    between atoms: C_16  and  C_18
REMARK    8  A    between atoms: C_27  and  C_30
REMARK    9  A    between atoms: C_31  and  C_32
REMARK                            x       y       z     vdW  Elec       q    Type
REMARK                         _______ _______ _______ _____ _____    ______ ____
ROOT
ATOM      1  O   UNL     1     -17.062   4.465  25.465  0.00  0.00    -0.368 OA
ATOM      2  O   UNL     1     -17.275   1.731  24.094  0.00  0.00    -0.368 OA
ATOM     10  C   UNL     1     -16.536   2.163  25.255  0.00  0.00    +0.173 C 
ATOM     11  C   UNL     1     -16.052   3.570  24.971  0.00  0.00    +0.192 C 
ATOM     12  C   UNL     1     -17.471   2.332  26.431  0.00  0.00    +0.130 C 
ATOM     13  C   UNL     1     -15.976   3.589  23.463  0.00  0.00    +0.235 C 
ATOM     14  C   UNL     1     -18.052   3.714  26.183  0.00  0.00    +0.185 C 
ATOM     15  C   UNL     1     -17.159   2.733  23.073  0.00  0.00    +0.207 C 
ENDROOT
BRANCH  12   8
ATOM      4  O   UNL     1     -17.554   0.216  28.370  0.00  0.00    -0.270 OA
ATOM      8  N   UNL     1     -16.755   2.281  27.682  0.00  0.00    -0.304 N 
ATOM     16  C   UNL     1     -16.859   1.210  28.559  0.00  0.00    +0.244 C 
ATOM     33  H   UNL     1     -16.244   3.114  27.955  0.00  0.00    +0.149 HD
BRANCH  16  18
ATOM     18  C   UNL     1     -16.077   1.321  29.817  0.00  0.00    +0.037 A 
ATOM     19  C   UNL     1     -15.522   0.181  30.396  0.00  0.00    +0.013 A 
ATOM     20  C   UNL     1     -15.898   2.567  30.419  0.00  0.00    +0.013 A 
ATOM     22  C   UNL     1     -14.788   0.285  31.578  0.00  0.00    +0.001 A 
ATOM     23  C   UNL     1     -15.164   2.672  31.601  0.00  0.00    +0.001 A 
ATOM     24  C   UNL     1     -14.609   1.530  32.180  0.00  0.00    +0.000 A 
ENDBRANCH  16  18
ENDBRANCH  12   8
BRANCH  13   3
ATOM      3  O   UNL     1     -16.055   4.885  22.912  0.00  0.00    -0.442 OA
BRANCH   3  17
ATOM      5  O   UNL     1     -14.002   4.626  21.939  0.00  0.00    -0.226 OA
ATOM      9  N   UNL     1     -15.062   6.710  22.035  0.00  0.00    -0.251 N 
ATOM     17  C   UNL     1     -14.935   5.352  22.254  0.00  0.00    +0.405 C 
ATOM     34  H   UNL     1     -15.918   7.143  22.374  0.00  0.00    +0.158 HD
BRANCH   9  21
ATOM     21  C   UNL     1     -14.146   7.578  21.397  0.00  0.00    +0.037 A 
ATOM     25  C   UNL     1     -13.851   7.409  20.045  0.00  0.00    +0.038 A 
ATOM     26  C   UNL     1     -13.539   8.604  22.121  0.00  0.00    +0.023 A 
ATOM     27  C   UNL     1     -12.948   8.266  19.415  0.00  0.00    +0.061 A 
ATOM     28  C   UNL     1     -12.637   9.462  21.491  0.00  0.00    +0.003 A 
ATOM     29  C   UNL     1     -12.341   9.293  20.139  0.00  0.00    +0.015 A 
BRANCH  27  30
ATOM      7  O   UNL     1     -13.478   8.117  17.096  0.00  0.00    -0.245 OA
ATOM     30  C   UNL     1     -12.639   8.091  18.006  0.00  0.00    +0.339 C 
BRANCH  30   6
ATOM      6  O   UNL     1     -11.300   7.894  17.804  0.00  0.00    -0.461 OA
BRANCH   6  31
ATOM     31  C   UNL     1     -10.644   8.782  16.894  0.00  0.00    +0.229 C 
ATOM     32  C   UNL     1     -10.535   8.111  15.542  0.00  0.00    +0.048 C 
ENDBRANCH   6  31
ENDBRANCH  30   6
ENDBRANCH  27  30
ENDBRANCH   9  21
ENDBRANCH   3  17
ENDBRANCH  13   3
TORSDOF 8
ENDMDL
MODEL 7
REMARK VINA RESULT:      -6.7     20.851     22.569
REMARK  Name = 11884015
REMARK  9 active torsions:
REMARK  status: ('A' for Active; 'I' for Inactive)
REMARK    1  A    between atoms: O_3  and  C_13
REMARK    2  A    between atoms: O_3  and  C_17
REMARK    3  A    between atoms: O_6  and  C_30
REMARK    4  A    between atoms: O_6  and  C_31
REMARK    5  A    between atoms: N_8  and  C_12
REMARK    6  A    between atoms: N_9  and  C_21
REMARK    7  A    between atoms: C_16  and  C_18
REMARK    8  A    between atoms: C_27  and  C_30
REMARK    9  A    between atoms: C_31  and  C_32
REMARK                            x       y       z     vdW  Elec       q    Type
REMARK                         _______ _______ _______ _____ _____    ______ ____
ROOT
ATOM      1  O   UNL     1      -3.980 -12.176  14.585  0.00  0.00    -0.368 OA
ATOM      2  O   UNL     1      -2.105 -10.898  16.647  0.00  0.00    -0.368 OA
ATOM     10  C   UNL     1      -3.460 -10.584  16.263  0.00  0.00    +0.173 C 
ATOM     11  C   UNL     1      -3.558 -10.815  14.768  0.00  0.00    +0.192 C 
ATOM     12  C   UNL     1      -4.413 -11.599  16.849  0.00  0.00    +0.130 C 
ATOM     13  C   UNL     1      -2.134 -10.603  14.312  0.00  0.00    +0.235 C 
ATOM     14  C   UNL     1      -4.311 -12.747  15.860  0.00  0.00    +0.185 C 
ATOM     15  C   UNL     1      -1.342 -11.177  15.464  0.00  0.00    +0.207 C 
ENDROOT
BRANCH  12   8
ATOM      4  O   UNL     1      -5.695 -10.425  19.135  0.00  0.00    -0.270 OA
ATOM      8  N   UNL     1      -5.758 -11.080  16.912  0.00  0.00    -0.304 N 
ATOM     16  C   UNL     1      -6.293 -10.528  18.068  0.00  0.00    +0.244 C 
ATOM     33  H   UNL     1      -6.347 -11.227  16.099  0.00  0.00    +0.149 HD
BRANCH  16  18
ATOM     18  C   UNL     1      -7.700 -10.062  17.976  0.00  0.00    +0.037 A 
ATOM     19  C   UNL     1      -8.012  -8.931  17.223  0.00  0.00    +0.013 A 
ATOM     20  C   UNL     1      -8.710 -10.757  18.642  0.00  0.00    +0.013 A 
ATOM     22  C   UNL     1      -9.334  -8.493  17.137  0.00  0.00    +0.001 A 
ATOM     23  C   UNL     1     -10.032 -10.319  18.556  0.00  0.00    +0.001 A 
ATOM     24  C   UNL     1     -10.344  -9.187  17.803  0.00  0.00    +0.000 A 
ENDBRANCH  16  18
ENDBRANCH  12   8
BRANCH  13   3
ATOM      3  O   UNL     1      -1.834 -11.243  13.091  0.00  0.00    -0.442 OA
BRANCH   3  17
ATOM      5  O   UNL     1      -1.426  -9.667  11.485  0.00  0.00    -0.226 OA
ATOM      9  N   UNL     1      -3.329 -11.027  11.417  0.00  0.00    -0.251 N 
ATOM     17  C   UNL     1      -2.140 -10.554  11.935  0.00  0.00    +0.405 C 
ATOM     34  H   UNL     1      -3.781 -11.776  11.938  0.00  0.00    +0.158 HD
BRANCH   9  21
ATOM     21  C   UNL     1      -4.001 -10.600  10.248  0.00  0.00    +0.037 A 
ATOM     25  C   UNL     1      -4.088 -11.447   9.144  0.00  0.00    +0.038 A 
ATOM     26  C   UNL     1      -4.578  -9.331  10.202  0.00  0.00    +0.023 A 
ATOM     27  C   UNL     1      -4.752 -11.026   7.992  0.00  0.00    +0.061 A 
ATOM     28  C   UNL     1      -5.243  -8.910   9.050  0.00  0.00    +0.003 A 
ATOM     29  C   UNL     1      -5.329  -9.756   7.945  0.00  0.00    +0.015 A 
BRANCH  27  30
ATOM      7  O   UNL     1      -4.968 -13.137   6.907  0.00  0.00    -0.245 OA
ATOM     30  C   UNL     1      -4.842 -11.907   6.840  0.00  0.00    +0.339 C 
BRANCH  30   6
ATOM      6  O   UNL     1      -4.773 -11.210   5.665  0.00  0.00    -0.461 OA
BRANCH   6  31
ATOM     31  C   UNL     1      -5.291 -11.855   4.497  0.00  0.00    +0.229 C 
ATOM     32  C   UNL     1      -6.618 -11.225   4.132  0.00  0.00    +0.048 C 
ENDBRANCH   6  31
ENDBRANCH  30   6
ENDBRANCH  27  30
ENDBRANCH   9  21
ENDBRANCH   3  17
ENDBRANCH  13   3
TORSDOF 8
ENDMDL
MODEL 8
REMARK VINA RESULT:      -6.7     32.706     36.465
REMARK  Name = 11884015
REMARK  9 active torsions:
REMARK  status: ('A' for Active; 'I' for Inactive)
REMARK    1  A    between atoms: O_3  and  C_13
REMARK    2  A    between atoms: O_3  and  C_17
REMARK    3  A    between atoms: O_6  and  C_30
REMARK    4  A    between atoms: O_6  and  C_31
REMARK    5  A    between atoms: N_8  and  C_12
REMARK    6  A    between atoms: N_9  and  C_21
REMARK    7  A    between atoms: C_16  and  C_18
REMARK    8  A    between atoms: C_27  and  C_30
REMARK    9  A    between atoms: C_31  and  C_32
REMARK                            x       y       z     vdW  Elec       q    Type
REMARK                         _______ _______ _______ _____ _____    ______ ____
ROOT
ATOM      1  O   UNL     1      13.692   8.406   4.336  0.00  0.00    -0.368 OA
ATOM      2  O   UNL     1      12.975   8.688   7.304  0.00  0.00    -0.368 OA
ATOM     10  C   UNL     1      14.091   8.053   6.647  0.00  0.00    +0.173 C 
ATOM     11  C   UNL     1      13.555   7.424   5.377  0.00  0.00    +0.192 C 
ATOM     12  C   UNL     1      15.063   9.098   6.150  0.00  0.00    +0.130 C 
ATOM     13  C   UNL     1      12.106   7.176   5.724  0.00  0.00    +0.235 C 
ATOM     14  C   UNL     1      14.430   9.530   4.839  0.00  0.00    +0.185 C 
ATOM     15  C   UNL     1      11.774   8.373   6.584  0.00  0.00    +0.207 C 
ENDROOT
BRANCH  12   8
ATOM      4  O   UNL     1      17.568  10.498   6.252  0.00  0.00    -0.270 OA
ATOM      8  N   UNL     1      16.375   8.535   5.938  0.00  0.00    -0.304 N 
ATOM     16  C   UNL     1      17.534   9.295   6.008  0.00  0.00    +0.244 C 
ATOM     33  H   UNL     1      16.417   7.570   5.627  0.00  0.00    +0.149 HD
BRANCH  16  18
ATOM     18  C   UNL     1      18.804   8.572   5.739  0.00  0.00    +0.037 A 
ATOM     19  C   UNL     1      19.768   8.462   6.740  0.00  0.00    +0.013 A 
ATOM     20  C   UNL     1      19.030   8.003   4.486  0.00  0.00    +0.013 A 
ATOM     22  C   UNL     1      20.960   7.782   6.488  0.00  0.00    +0.001 A 
ATOM     23  C   UNL     1      20.222   7.324   4.233  0.00  0.00    +0.001 A 
ATOM     24  C   UNL     1      21.188   7.214   5.235  0.00  0.00    +0.000 A 
ENDBRANCH  16  18
ENDBRANCH  12   8
BRANCH  13   3
ATOM      3  O   UNL     1      11.265   7.084   4.595  0.00  0.00    -0.442 OA
BRANCH   3  17
ATOM      5  O   UNL     1      10.824   4.860   4.294  0.00  0.00    -0.226 OA
ATOM      9  N   UNL     1      11.965   6.116   2.682  0.00  0.00    -0.251 N 
ATOM     17  C   UNL     1      11.309   5.905   3.879  0.00  0.00    +0.405 C 
ATOM     34  H   UNL     1      12.301   7.062   2.514  0.00  0.00    +0.158 HD
BRANCH   9  21
ATOM     21  C   UNL     1      12.229   5.179   1.657  0.00  0.00    +0.037 A 
ATOM     25  C   UNL     1      11.309   4.995   0.625  0.00  0.00    +0.038 A 
ATOM     26  C   UNL     1      13.411   4.439   1.679  0.00  0.00    +0.023 A 
ATOM     27  C   UNL     1      11.571   4.072  -0.386  0.00  0.00    +0.061 A 
ATOM     28  C   UNL     1      13.673   3.515   0.666  0.00  0.00    +0.003 A 
ATOM     29  C   UNL     1      12.753   3.331  -0.366  0.00  0.00    +0.015 A 
BRANCH  27  30
ATOM      7  O   UNL     1       9.646   4.621  -1.681  0.00  0.00    -0.245 OA
ATOM     30  C   UNL     1      10.613   3.879  -1.462  0.00  0.00    +0.339 C 
BRANCH  30   6
ATOM      6  O   UNL     1      10.910   2.773  -2.211  0.00  0.00    -0.461 OA
BRANCH   6  31
ATOM     31  C   UNL     1      10.422   2.750  -3.556  0.00  0.00    +0.229 C 
ATOM     32  C   UNL     1       9.304   1.734  -3.658  0.00  0.00    +0.048 C 
ENDBRANCH   6  31
ENDBRANCH  30   6
ENDBRANCH  27  30
ENDBRANCH   9  21
ENDBRANCH   3  17
ENDBRANCH  13   3
TORSDOF 8
ENDMDL
MODEL 9
REMARK VINA RESULT:      -6.7     19.885     21.554
REMARK  Name = 11884015
REMARK  9 active torsions:
REMARK  status: ('A' for Active; 'I' for Inactive)
REMARK    1  A    between atoms: O_3  and  C_13
REMARK    2  A    between atoms: O_3  and  C_17
REMARK    3  A    between atoms: O_6  and  C_30
REMARK    4  A    between atoms: O_6  and  C_31
REMARK    5  A    between atoms: N_8  and  C_12
REMARK    6  A    between atoms: N_9  and  C_21
REMARK    7  A    between atoms: C_16  and  C_18
REMARK    8  A    between atoms: C_27  and  C_30
REMARK    9  A    between atoms: C_31  and  C_32
REMARK                            x       y       z     vdW  Elec       q    Type
REMARK                         _______ _______ _______ _____ _____    ______ ____
ROOT
ATOM      1  O   UNL     1      -4.165 -11.999  14.483  0.00  0.00    -0.368 OA
ATOM      2  O   UNL     1      -2.077 -10.869  16.423  0.00  0.00    -0.368 OA
ATOM     10  C   UNL     1      -3.421 -10.446  16.113  0.00  0.00    +0.173 C 
ATOM     11  C   UNL     1      -3.623 -10.676  14.629  0.00  0.00    +0.192 C 
ATOM     12  C   UNL     1      -4.419 -11.377  16.763  0.00  0.00    +0.130 C 
ATOM     13  C   UNL     1      -2.215 -10.585  14.091  0.00  0.00    +0.235 C 
ATOM     14  C   UNL     1      -4.468 -12.534  15.780  0.00  0.00    +0.185 C 
ATOM     15  C   UNL     1      -1.407 -11.216  15.202  0.00  0.00    +0.207 C 
ENDROOT
BRANCH  12   8
ATOM      4  O   UNL     1      -6.324 -11.801  18.869  0.00  0.00    -0.270 OA
ATOM      8  N   UNL     1      -5.710 -10.748  16.896  0.00  0.00    -0.304 N 
ATOM     16  C   UNL     1      -6.567 -11.018  17.955  0.00  0.00    +0.244 C 
ATOM     33  H   UNL     1      -6.024 -10.170  16.123  0.00  0.00    +0.149 HD
BRANCH  16  18
ATOM     18  C   UNL     1      -7.872 -10.308  17.934  0.00  0.00    +0.037 A 
ATOM     19  C   UNL     1      -8.031  -9.166  17.150  0.00  0.00    +0.013 A 
ATOM     20  C   UNL     1      -8.937 -10.785  18.697  0.00  0.00    +0.013 A 
ATOM     22  C   UNL     1      -9.257  -8.500  17.131  0.00  0.00    +0.001 A 
ATOM     23  C   UNL     1     -10.163 -10.119  18.678  0.00  0.00    +0.001 A 
ATOM     24  C   UNL     1     -10.322  -8.975  17.894  0.00  0.00    +0.000 A 
ENDBRANCH  16  18
ENDBRANCH  12   8
BRANCH  13   3
ATOM      3  O   UNL     1      -2.039 -11.253  12.861  0.00  0.00    -0.442 OA
BRANCH   3  17
ATOM      5  O   UNL     1      -1.827  -9.673  11.222  0.00  0.00    -0.226 OA
ATOM      9  N   UNL     1      -3.658 -11.128  11.297  0.00  0.00    -0.251 N 
ATOM     17  C   UNL     1      -2.461 -10.591  11.726  0.00  0.00    +0.405 C 
ATOM     34  H   UNL     1      -4.034 -11.893  11.853  0.00  0.00    +0.158 HD
BRANCH   9  21
ATOM     21  C   UNL     1      -4.433 -10.745  10.178  0.00  0.00    +0.037 A 
ATOM     25  C   UNL     1      -5.464  -9.818  10.326  0.00  0.00    +0.038 A 
ATOM     26  C   UNL     1      -4.164 -11.297   8.925  0.00  0.00    +0.023 A 
ATOM     27  C   UNL     1      -6.227  -9.441   9.221  0.00  0.00    +0.061 A 
ATOM     28  C   UNL     1      -4.928 -10.918   7.819  0.00  0.00    +0.003 A 
ATOM     29  C   UNL     1      -5.958  -9.991   7.968  0.00  0.00    +0.015 A 
BRANCH  27  30
ATOM      7  O   UNL     1      -8.366  -8.698   9.966  0.00  0.00    -0.245 OA
ATOM     30  C   UNL     1      -7.302  -8.474   9.375  0.00  0.00    +0.339 C 
BRANCH  30   6
ATOM      6  O   UNL     1      -6.994  -7.279   8.785  0.00  0.00    -0.461 OA
BRANCH   6  31
ATOM     31  C   UNL     1      -8.048  -6.610   8.086  0.00  0.00    +0.229 C 
ATOM     32  C   UNL     1      -8.241  -7.265   6.736  0.00  0.00    +0.048 C 
ENDBRANCH   6  31
ENDBRANCH  30   6
ENDBRANCH  27  30
ENDBRANCH   9  21
ENDBRANCH   3  17
ENDBRANCH  13   3
TORSDOF 8
ENDMDL
MODEL 10
REMARK VINA RESULT:      -6.5     17.436     19.969
REMARK  Name = 11884015
REMARK  9 active torsions:
REMARK  status: ('A' for Active; 'I' for Inactive)
REMARK    1  A    between atoms: O_3  and  C_13
REMARK    2  A    between atoms: O_3  and  C_17
REMARK    3  A    between atoms: O_6  and  C_30
REMARK    4  A    between atoms: O_6  and  C_31
REMARK    5  A    between atoms: N_8  and  C_12
REMARK    6  A    between atoms: N_9  and  C_21
REMARK    7  A    between atoms: C_16  and  C_18
REMARK    8  A    between atoms: C_27  and  C_30
REMARK    9  A    between atoms: C_31  and  C_32
REMARK                            x       y       z     vdW  Elec       q    Type
REMARK                         _______ _______ _______ _____ _____    ______ ____
ROOT
ATOM      1  O   UNL     1     -10.940  -9.238  15.107  0.00  0.00    -0.368 OA
ATOM      2  O   UNL     1      -9.825  -7.816  17.584  0.00  0.00    -0.368 OA
ATOM     10  C   UNL     1     -10.123  -7.333  16.258  0.00  0.00    +0.173 C 
ATOM     11  C   UNL     1      -9.758  -8.442  15.292  0.00  0.00    +0.192 C 
ATOM     12  C   UNL     1     -11.617  -7.181  16.086  0.00  0.00    +0.130 C 
ATOM     13  C   UNL     1      -8.690  -9.195  16.050  0.00  0.00    +0.235 C 
ATOM     14  C   UNL     1     -12.050  -8.599  15.756  0.00  0.00    +0.185 C 
ATOM     15  C   UNL     1      -9.181  -9.094  17.477  0.00  0.00    +0.207 C 
ENDROOT
BRANCH  12   8
ATOM      4  O   UNL     1     -14.222  -6.217  15.357  0.00  0.00    -0.270 OA
ATOM      8  N   UNL     1     -11.930  -6.274  15.009  0.00  0.00    -0.304 N 
ATOM     16  C   UNL     1     -13.227  -5.862  14.731  0.00  0.00    +0.244 C 
ATOM     33  H   UNL     1     -11.172  -6.022  14.382  0.00  0.00    +0.149 HD
BRANCH  16  18
ATOM     18  C   UNL     1     -13.385  -4.946  13.572  0.00  0.00    +0.037 A 
ATOM     19  C   UNL     1     -14.660  -4.582  13.141  0.00  0.00    +0.013 A 
ATOM     20  C   UNL     1     -12.258  -4.451  12.916  0.00  0.00    +0.013 A 
ATOM     22  C   UNL     1     -14.808  -3.721  12.053  0.00  0.00    +0.001 A 
ATOM     23  C   UNL     1     -12.407  -3.591  11.828  0.00  0.00    +0.001 A 
ATOM     24  C   UNL     1     -13.683  -3.226  11.396  0.00  0.00    +0.000 A 
ENDBRANCH  16  18
ENDBRANCH  12   8
BRANCH  13   3
ATOM      3  O   UNL     1      -8.542 -10.534  15.633  0.00  0.00    -0.442 OA
BRANCH   3  17
ATOM      5  O   UNL     1      -7.169 -12.122  16.539  0.00  0.00    -0.226 OA
ATOM      9  N   UNL     1      -6.337 -10.409  15.178  0.00  0.00    -0.251 N 
ATOM     17  C   UNL     1      -7.312 -11.122  15.848  0.00  0.00    +0.405 C 
ATOM     34  H   UNL     1      -6.654  -9.598  14.652  0.00  0.00    +0.158 HD
BRANCH   9  21
ATOM     21  C   UNL     1      -4.948 -10.667  15.132  0.00  0.00    +0.037 A 
ATOM     25  C   UNL     1      -4.364 -11.140  13.957  0.00  0.00    +0.038 A 
ATOM     26  C   UNL     1      -4.161 -10.447  16.262  0.00  0.00    +0.023 A 
ATOM     27  C   UNL     1      -2.994 -11.393  13.911  0.00  0.00    +0.061 A 
ATOM     28  C   UNL     1      -2.789 -10.699  16.217  0.00  0.00    +0.003 A 
ATOM     29  C   UNL     1      -2.206 -11.173  15.042  0.00  0.00    +0.015 A 
BRANCH  27  30
ATOM      7  O   UNL     1      -2.668 -12.965  12.149  0.00  0.00    -0.245 OA
ATOM     30  C   UNL     1      -2.385 -11.887  12.688  0.00  0.00    +0.339 C 
BRANCH  30   6
ATOM      6  O   UNL     1      -1.456 -11.010  12.197  0.00  0.00    -0.461 OA
BRANCH   6  31
ATOM     31  C   UNL     1      -1.949  -9.890  11.456  0.00  0.00    +0.229 C 
ATOM     32  C   UNL     1      -0.790  -8.984  11.100  0.00  0.00    +0.048 C 
ENDBRANCH   6  31
ENDBRANCH  30   6
ENDBRANCH  27  30
ENDBRANCH   9  21
ENDBRANCH   3  17
ENDBRANCH  13   3
TORSDOF 8
ENDMDL
