MODEL 1
REMARK VINA RESULT:      -7.4      0.000      0.000
REMARK  Name = 11911786
REMARK  7 active torsions:
REMARK  status: ('A' for Active; 'I' for Inactive)
REMARK    1  A    between atoms: N_4  and  C_11
REMARK    2  A    between atoms: N_5  and  C_12
REMARK    3  A    between atoms: N_8  and  C_30
REMARK    4  A    between atoms: N_8  and  C_31
REMARK    5  A    between atoms: N_8  and  C_32
REMARK    6  A    between atoms: C_15  and  C_21
REMARK    7  A    between atoms: C_22  and  C_24
REMARK                            x       y       z     vdW  Elec       q    Type
REMARK                         _______ _______ _______ _____ _____    ______ ____
ROOT
ATOM      1  O   UNL     1      13.690   8.977  17.884  0.00  0.00    -0.370 OA
ATOM      2  O   UNL     1      13.367   7.968  20.819  0.00  0.00    -0.370 OA
ATOM      9  C   UNL     1      13.896   9.177  20.246  0.00  0.00    +0.171 C 
ATOM     10  C   UNL     1      14.615   8.790  18.968  0.00  0.00    +0.171 C 
ATOM     11  C   UNL     1      12.772  10.073  19.782  0.00  0.00    +0.130 C 
ATOM     12  C   UNL     1      14.923   7.322  19.149  0.00  0.00    +0.130 C 
ATOM     13  C   UNL     1      12.471   9.536  18.395  0.00  0.00    +0.185 C 
ATOM     14  C   UNL     1      13.767   6.851  20.013  0.00  0.00    +0.185 C 
ENDROOT
BRANCH  11   4
ATOM      4  N   UNL     1      13.232  11.441  19.700  0.00  0.00    -0.306 N 
ATOM      6  N   UNL     1      11.862  12.125  21.478  0.00  0.00    -0.219 NA
ATOM      7  N   UNL     1      13.301  13.695  20.351  0.00  0.00    -0.223 NA
ATOM     20  C   UNL     1      12.785  12.450  20.534  0.00  0.00    +0.216 A 
ATOM     21  C   UNL     1      11.448  13.132  22.275  0.00  0.00    +0.049 A 
ATOM     23  C   UNL     1      11.908  14.429  22.172  0.00  0.00    +0.043 A 
ATOM     25  C   UNL     1      12.843  14.654  21.182  0.00  0.00    +0.116 A 
ATOM     33  H   UNL     1      13.959  11.684  19.035  0.00  0.00    +0.149 HD
BRANCH  21  15
ATOM     15  C   UNL     1      10.417  12.786  23.334  0.00  0.00    +0.038 C 
ATOM     16  C   UNL     1      10.153  13.840  24.418  0.00  0.00    +0.010 C 
ATOM     17  C   UNL     1      10.831  11.562  24.158  0.00  0.00    +0.010 C 
ATOM     18  C   UNL     1      11.079  13.500  25.590  0.00  0.00    +0.001 C 
ATOM     19  C   UNL     1      11.688  12.137  25.278  0.00  0.00    +0.001 C 
ENDBRANCH  21  15
ENDBRANCH  11   4
BRANCH  12   5
ATOM      3  O   UNL     1      16.945   5.395  18.480  0.00  0.00    -0.270 OA
ATOM      5  N   UNL     1      16.188   7.132  19.817  0.00  0.00    -0.304 N 
ATOM     22  C   UNL     1      17.105   6.169  19.419  0.00  0.00    +0.244 C 
ATOM     34  H   UNL     1      16.338   7.658  20.672  0.00  0.00    +0.149 HD
BRANCH  22  24
ATOM     24  C   UNL     1      18.348   6.082  20.227  0.00  0.00    +0.037 A 
ATOM     26  C   UNL     1      19.313   5.163  19.870  0.00  0.00    +0.015 A 
ATOM     27  C   UNL     1      18.500   6.925  21.309  0.00  0.00    +0.015 A 
ATOM     28  C   UNL     1      20.481   5.083  20.628  0.00  0.00    +0.024 A 
ATOM     29  C   UNL     1      19.668   6.845  22.067  0.00  0.00    +0.024 A 
ATOM     30  C   UNL     1      20.658   5.924  21.726  0.00  0.00    +0.029 A 
BRANCH  30   8
ATOM      8  N   UNL     1      21.841   5.844  22.492  0.00  0.00    -0.336 N 
ATOM     31  C   UNL     1      22.298   4.567  23.004  0.00  0.00    +0.129 C 
ATOM     32  C   UNL     1      22.605   7.039  22.789  0.00  0.00    +0.129 C 
ENDBRANCH  30   8
ENDBRANCH  22  24
ENDBRANCH  12   5
TORSDOF 5
ENDMDL
MODEL 2
REMARK VINA RESULT:      -7.2     28.062     31.300
REMARK  Name = 11911786
REMARK  7 active torsions:
REMARK  status: ('A' for Active; 'I' for Inactive)
REMARK    1  A    between atoms: N_4  and  C_11
REMARK    2  A    between atoms: N_5  and  C_12
REMARK    3  A    between atoms: N_8  and  C_30
REMARK    4  A    between atoms: N_8  and  C_31
REMARK    5  A    between atoms: N_8  and  C_32
REMARK    6  A    between atoms: C_15  and  C_21
REMARK    7  A    between atoms: C_22  and  C_24
REMARK                            x       y       z     vdW  Elec       q    Type
REMARK                         _______ _______ _______ _____ _____    ______ ____
ROOT
ATOM      1  O   UNL     1     -16.835   3.224  22.654  0.00  0.00    -0.370 OA
ATOM      2  O   UNL     1     -17.138   5.773  24.430  0.00  0.00    -0.370 OA
ATOM      9  C   UNL     1     -16.003   5.102  23.855  0.00  0.00    +0.171 C 
ATOM     10  C   UNL     1     -16.280   3.613  23.922  0.00  0.00    +0.171 C 
ATOM     11  C   UNL     1     -15.913   5.396  22.376  0.00  0.00    +0.130 C 
ATOM     12  C   UNL     1     -17.317   3.480  25.013  0.00  0.00    +0.130 C 
ATOM     13  C   UNL     1     -16.841   4.358  21.775  0.00  0.00    +0.185 C 
ATOM     14  C   UNL     1     -18.072   4.793  24.906  0.00  0.00    +0.185 C 
ENDROOT
BRANCH  11   4
ATOM      4  N   UNL     1     -14.560   5.187  21.912  0.00  0.00    -0.306 N 
ATOM      6  N   UNL     1     -14.144   7.490  21.742  0.00  0.00    -0.219 NA
ATOM      7  N   UNL     1     -12.442   5.880  21.175  0.00  0.00    -0.223 NA
ATOM     20  C   UNL     1     -13.689   6.217  21.600  0.00  0.00    +0.216 A 
ATOM     21  C   UNL     1     -13.270   8.469  21.431  0.00  0.00    +0.049 A 
ATOM     23  C   UNL     1     -11.982   8.236  20.991  0.00  0.00    +0.043 A 
ATOM     25  C   UNL     1     -11.619   6.909  20.881  0.00  0.00    +0.116 A 
ATOM     33  H   UNL     1     -14.193   4.243  21.853  0.00  0.00    +0.149 HD
BRANCH  21  15
ATOM     15  C   UNL     1     -13.761   9.897  21.582  0.00  0.00    +0.038 C 
ATOM     16  C   UNL     1     -12.692  10.999  21.631  0.00  0.00    +0.010 C 
ATOM     17  C   UNL     1     -14.511  10.108  22.902  0.00  0.00    +0.010 C 
ATOM     18  C   UNL     1     -12.376  11.233  23.112  0.00  0.00    +0.001 C 
ATOM     19  C   UNL     1     -13.418  10.450  23.905  0.00  0.00    +0.001 C 
ENDBRANCH  21  15
ENDBRANCH  11   4
BRANCH  12   5
ATOM      3  O   UNL     1     -17.225   1.099  26.617  0.00  0.00    -0.270 OA
ATOM      5  N   UNL     1     -16.697   3.336  26.308  0.00  0.00    -0.304 N 
ATOM     22  C   UNL     1     -16.705   2.139  27.010  0.00  0.00    +0.244 C 
ATOM     34  H   UNL     1     -16.349   4.183  26.746  0.00  0.00    +0.149 HD
BRANCH  22  24
ATOM     24  C   UNL     1     -16.047   2.163  28.342  0.00  0.00    +0.037 A 
ATOM     26  C   UNL     1     -15.440   3.327  28.764  0.00  0.00    +0.015 A 
ATOM     27  C   UNL     1     -16.066   1.020  29.116  0.00  0.00    +0.015 A 
ATOM     28  C   UNL     1     -14.824   3.350  30.015  0.00  0.00    +0.024 A 
ATOM     29  C   UNL     1     -15.451   1.044  30.366  0.00  0.00    +0.024 A 
ATOM     30  C   UNL     1     -14.830   2.208  30.817  0.00  0.00    +0.029 A 
BRANCH  30   8
ATOM      8  N   UNL     1     -14.208   2.232  32.083  0.00  0.00    -0.336 N 
ATOM     31  C   UNL     1     -14.703   1.397  33.159  0.00  0.00    +0.129 C 
ATOM     32  C   UNL     1     -13.075   3.102  32.327  0.00  0.00    +0.129 C 
ENDBRANCH  30   8
ENDBRANCH  22  24
ENDBRANCH  12   5
TORSDOF 5
ENDMDL
MODEL 3
REMARK VINA RESULT:      -7.0     28.210     31.838
REMARK  Name = 11911786
REMARK  7 active torsions:
REMARK  status: ('A' for Active; 'I' for Inactive)
REMARK    1  A    between atoms: N_4  and  C_11
REMARK    2  A    between atoms: N_5  and  C_12
REMARK    3  A    between atoms: N_8  and  C_30
REMARK    4  A    between atoms: N_8  and  C_31
REMARK    5  A    between atoms: N_8  and  C_32
REMARK    6  A    between atoms: C_15  and  C_21
REMARK    7  A    between atoms: C_22  and  C_24
REMARK                            x       y       z     vdW  Elec       q    Type
REMARK                         _______ _______ _______ _____ _____    ______ ____
ROOT
ATOM      1  O   UNL     1      -5.987 -10.770  19.827  0.00  0.00    -0.370 OA
ATOM      2  O   UNL     1      -7.425 -12.288  17.510  0.00  0.00    -0.370 OA
ATOM      9  C   UNL     1      -6.425 -11.256  17.539  0.00  0.00    +0.171 C 
ATOM     10  C   UNL     1      -6.762 -10.336  18.696  0.00  0.00    +0.171 C 
ATOM     11  C   UNL     1      -5.081 -11.838  17.908  0.00  0.00    +0.130 C 
ATOM     12  C   UNL     1      -8.233 -10.578  18.942  0.00  0.00    +0.130 C 
ATOM     13  C   UNL     1      -5.128 -11.847  19.424  0.00  0.00    +0.185 C 
ATOM     14  C   UNL     1      -8.397 -12.031  18.534  0.00  0.00    +0.185 C 
ENDROOT
BRANCH  11   4
ATOM      4  N   UNL     1      -4.021 -10.970  17.445  0.00  0.00    -0.306 N 
ATOM      6  N   UNL     1      -3.609 -12.297  15.554  0.00  0.00    -0.219 NA
ATOM      7  N   UNL     1      -2.328 -10.298  15.965  0.00  0.00    -0.223 NA
ATOM     20  C   UNL     1      -3.298 -11.195  16.286  0.00  0.00    +0.216 A 
ATOM     21  C   UNL     1      -2.886 -12.486  14.431  0.00  0.00    +0.049 A 
ATOM     23  C   UNL     1      -1.880 -11.636  14.015  0.00  0.00    +0.043 A 
ATOM     25  C   UNL     1      -1.643 -10.548  14.829  0.00  0.00    +0.116 A 
ATOM     33  H   UNL     1      -3.817 -10.117  17.955  0.00  0.00    +0.149 HD
BRANCH  21  15
ATOM     15  C   UNL     1      -3.219 -13.712  13.601  0.00  0.00    +0.038 C 
ATOM     16  C   UNL     1      -3.880 -14.889  14.332  0.00  0.00    +0.010 C 
ATOM     17  C   UNL     1      -1.964 -14.358  13.003  0.00  0.00    +0.010 C 
ATOM     18  C   UNL     1      -2.746 -15.822  14.768  0.00  0.00    +0.001 C 
ATOM     19  C   UNL     1      -1.479 -15.310  14.089  0.00  0.00    +0.001 C 
ENDBRANCH  21  15
ENDBRANCH  11   4
BRANCH  12   5
ATOM      3  O   UNL     1     -10.998  -9.926  19.363  0.00  0.00    -0.270 OA
ATOM      5  N   UNL     1      -9.048  -9.710  18.126  0.00  0.00    -0.304 N 
ATOM     22  C   UNL     1     -10.382  -9.455  18.411  0.00  0.00    +0.244 C 
ATOM     34  H   UNL     1      -8.638  -9.378  17.259  0.00  0.00    +0.149 HD
BRANCH  22  24
ATOM     24  C   UNL     1     -11.090  -8.562  17.459  0.00  0.00    +0.037 A 
ATOM     26  C   UNL     1     -10.458  -7.414  17.027  0.00  0.00    +0.015 A 
ATOM     27  C   UNL     1     -12.357  -8.909  17.035  0.00  0.00    +0.015 A 
ATOM     28  C   UNL     1     -11.123  -6.575  16.131  0.00  0.00    +0.024 A 
ATOM     29  C   UNL     1     -13.020  -8.071  16.139  0.00  0.00    +0.024 A 
ATOM     30  C   UNL     1     -12.403  -6.904  15.687  0.00  0.00    +0.029 A 
BRANCH  30   8
ATOM      8  N   UNL     1     -13.074  -6.057  14.780  0.00  0.00    -0.336 N 
ATOM     31  C   UNL     1     -14.507  -6.171  14.594  0.00  0.00    +0.129 C 
ATOM     32  C   UNL     1     -12.338  -5.073  14.013  0.00  0.00    +0.129 C 
ENDBRANCH  30   8
ENDBRANCH  22  24
ENDBRANCH  12   5
TORSDOF 5
ENDMDL
MODEL 4
REMARK VINA RESULT:      -6.9     28.461     31.233
REMARK  Name = 11911786
REMARK  7 active torsions:
REMARK  status: ('A' for Active; 'I' for Inactive)
REMARK    1  A    between atoms: N_4  and  C_11
REMARK    2  A    between atoms: N_5  and  C_12
REMARK    3  A    between atoms: N_8  and  C_30
REMARK    4  A    between atoms: N_8  and  C_31
REMARK    5  A    between atoms: N_8  and  C_32
REMARK    6  A    between atoms: C_15  and  C_21
REMARK    7  A    between atoms: C_22  and  C_24
REMARK                            x       y       z     vdW  Elec       q    Type
REMARK                         _______ _______ _______ _____ _____    ______ ____
ROOT
ATOM      1  O   UNL     1      -4.918  -8.802  10.161  0.00  0.00    -0.370 OA
ATOM      2  O   UNL     1      -6.022 -11.718  10.029  0.00  0.00    -0.370 OA
ATOM      9  C   UNL     1      -4.737 -11.166  10.365  0.00  0.00    +0.171 C 
ATOM     10  C   UNL     1      -4.505  -9.980   9.449  0.00  0.00    +0.171 C 
ATOM     11  C   UNL     1      -4.771 -10.563  11.749  0.00  0.00    +0.130 C 
ATOM     12  C   UNL     1      -5.424 -10.235   8.277  0.00  0.00    +0.130 C 
ATOM     13  C   UNL     1      -5.312  -9.169  11.492  0.00  0.00    +0.185 C 
ATOM     14  C   UNL     1      -6.572 -10.990   8.921  0.00  0.00    +0.185 C 
ENDROOT
BRANCH  11   4
ATOM      4  N   UNL     1      -3.431 -10.488  12.289  0.00  0.00    -0.306 N 
ATOM      6  N   UNL     1      -4.191 -10.679  14.500  0.00  0.00    -0.219 NA
ATOM      7  N   UNL     1      -1.840 -10.465  14.015  0.00  0.00    -0.223 NA
ATOM     20  C   UNL     1      -3.146 -10.546  13.642  0.00  0.00    +0.216 A 
ATOM     21  C   UNL     1      -3.878 -10.733  15.811  0.00  0.00    +0.049 A 
ATOM     23  C   UNL     1      -2.587 -10.660  16.294  0.00  0.00    +0.043 A 
ATOM     25  C   UNL     1      -1.599 -10.526  15.341  0.00  0.00    +0.116 A 
ATOM     33  H   UNL     1      -2.640 -10.442  11.655  0.00  0.00    +0.149 HD
BRANCH  21  15
ATOM     15  C   UNL     1      -5.034 -10.881  16.785  0.00  0.00    +0.038 C 
ATOM     16  C   UNL     1      -4.676 -11.072  18.266  0.00  0.00    +0.010 C 
ATOM     17  C   UNL     1      -5.877 -12.126  16.487  0.00  0.00    +0.010 C 
ATOM     18  C   UNL     1      -4.625 -12.583  18.509  0.00  0.00    +0.001 C 
ATOM     19  C   UNL     1      -5.180 -13.243  17.251  0.00  0.00    +0.001 C 
ENDBRANCH  21  15
ENDBRANCH  11   4
BRANCH  12   5
ATOM      3  O   UNL     1      -6.123 -10.388   5.495  0.00  0.00    -0.270 OA
ATOM      5  N   UNL     1      -4.773 -11.034   7.267  0.00  0.00    -0.304 N 
ATOM     22  C   UNL     1      -5.186 -11.042   5.941  0.00  0.00    +0.244 C 
ATOM     34  H   UNL     1      -4.064 -11.687   7.585  0.00  0.00    +0.149 HD
BRANCH  22  24
ATOM     24  C   UNL     1      -4.429 -11.939   5.031  0.00  0.00    +0.037 A 
ATOM     26  C   UNL     1      -3.252 -12.504   5.479  0.00  0.00    +0.015 A 
ATOM     27  C   UNL     1      -4.926 -12.181   3.767  0.00  0.00    +0.015 A 
ATOM     28  C   UNL     1      -2.542 -13.347   4.625  0.00  0.00    +0.024 A 
ATOM     29  C   UNL     1      -4.216 -13.025   2.914  0.00  0.00    +0.024 A 
ATOM     30  C   UNL     1      -3.024 -13.608   3.342  0.00  0.00    +0.029 A 
BRANCH  30   8
ATOM      8  N   UNL     1      -2.306 -14.463   2.479  0.00  0.00    -0.336 N 
ATOM     31  C   UNL     1      -3.005 -15.436   1.663  0.00  0.00    +0.129 C 
ATOM     32  C   UNL     1      -0.861 -14.389   2.409  0.00  0.00    +0.129 C 
ENDBRANCH  30   8
ENDBRANCH  22  24
ENDBRANCH  12   5
TORSDOF 5
ENDMDL
MODEL 5
REMARK VINA RESULT:      -6.9     27.829     31.376
REMARK  Name = 11911786
REMARK  7 active torsions:
REMARK  status: ('A' for Active; 'I' for Inactive)
REMARK    1  A    between atoms: N_4  and  C_11
REMARK    2  A    between atoms: N_5  and  C_12
REMARK    3  A    between atoms: N_8  and  C_30
REMARK    4  A    between atoms: N_8  and  C_31
REMARK    5  A    between atoms: N_8  and  C_32
REMARK    6  A    between atoms: C_15  and  C_21
REMARK    7  A    between atoms: C_22  and  C_24
REMARK                            x       y       z     vdW  Elec       q    Type
REMARK                         _______ _______ _______ _____ _____    ______ ____
ROOT
ATOM      1  O   UNL     1      -5.017 -11.408  19.915  0.00  0.00    -0.370 OA
ATOM      2  O   UNL     1      -6.453 -12.765  17.499  0.00  0.00    -0.370 OA
ATOM      9  C   UNL     1      -5.520 -11.676  17.604  0.00  0.00    +0.171 C 
ATOM     10  C   UNL     1      -5.865 -10.910  18.866  0.00  0.00    +0.171 C 
ATOM     11  C   UNL     1      -4.127 -12.201  17.859  0.00  0.00    +0.130 C 
ATOM     12  C   UNL     1      -7.306 -11.276  19.137  0.00  0.00    +0.130 C 
ATOM     13  C   UNL     1      -4.108 -12.375  19.366  0.00  0.00    +0.185 C 
ATOM     14  C   UNL     1      -7.394 -12.685  18.579  0.00  0.00    +0.185 C 
ENDROOT
BRANCH  11   4
ATOM      4  N   UNL     1      -3.146 -11.219  17.456  0.00  0.00    -0.306 N 
ATOM      6  N   UNL     1      -3.298 -11.830  15.196  0.00  0.00    -0.219 NA
ATOM      7  N   UNL     1      -1.808 -10.073  15.904  0.00  0.00    -0.223 NA
ATOM     20  C   UNL     1      -2.739 -11.035  16.147  0.00  0.00    +0.216 A 
ATOM     21  C   UNL     1      -2.879 -11.625  13.930  0.00  0.00    +0.049 A 
ATOM     23  C   UNL     1      -1.941 -10.676  13.578  0.00  0.00    +0.043 A 
ATOM     25  C   UNL     1      -1.435  -9.922  14.616  0.00  0.00    +0.116 A 
ATOM     33  H   UNL     1      -2.762 -10.585  18.149  0.00  0.00    +0.149 HD
BRANCH  21  15
ATOM     15  C   UNL     1      -3.493 -12.504  12.856  0.00  0.00    +0.038 C 
ATOM     16  C   UNL     1      -2.990 -12.303  11.420  0.00  0.00    +0.010 C 
ATOM     17  C   UNL     1      -5.001 -12.267  12.714  0.00  0.00    +0.010 C 
ATOM     18  C   UNL     1      -3.941 -11.296  10.764  0.00  0.00    +0.001 C 
ATOM     19  C   UNL     1      -5.107 -11.109  11.730  0.00  0.00    +0.001 C 
ENDBRANCH  21  15
ENDBRANCH  11   4
BRANCH  12   5
ATOM      3  O   UNL     1     -10.097 -10.894  19.697  0.00  0.00    -0.270 OA
ATOM      5  N   UNL     1      -8.209 -10.384  18.450  0.00  0.00    -0.304 N 
ATOM     22  C   UNL     1      -9.549 -10.268  18.795  0.00  0.00    +0.244 C 
ATOM     34  H   UNL     1      -7.853  -9.921  17.620  0.00  0.00    +0.149 HD
BRANCH  22  24
ATOM     24  C   UNL     1     -10.351  -9.326  17.974  0.00  0.00    +0.037 A 
ATOM     26  C   UNL     1      -9.740  -8.199  17.463  0.00  0.00    +0.015 A 
ATOM     27  C   UNL     1     -11.682  -9.608  17.745  0.00  0.00    +0.015 A 
ATOM     28  C   UNL     1     -10.493  -7.315  16.691  0.00  0.00    +0.024 A 
ATOM     29  C   UNL     1     -12.435  -8.725  16.972  0.00  0.00    +0.024 A 
ATOM     30  C   UNL     1     -11.840  -7.579  16.445  0.00  0.00    +0.029 A 
BRANCH  30   8
ATOM      8  N   UNL     1     -12.602  -6.685  15.662  0.00  0.00    -0.336 N 
ATOM     31  C   UNL     1     -11.949  -5.794  14.723  0.00  0.00    +0.129 C 
ATOM     32  C   UNL     1     -14.044  -6.637  15.796  0.00  0.00    +0.129 C 
ENDBRANCH  30   8
ENDBRANCH  22  24
ENDBRANCH  12   5
TORSDOF 5
ENDMDL
MODEL 6
REMARK VINA RESULT:      -6.9     28.920     31.232
REMARK  Name = 11911786
REMARK  7 active torsions:
REMARK  status: ('A' for Active; 'I' for Inactive)
REMARK    1  A    between atoms: N_4  and  C_11
REMARK    2  A    between atoms: N_5  and  C_12
REMARK    3  A    between atoms: N_8  and  C_30
REMARK    4  A    between atoms: N_8  and  C_31
REMARK    5  A    between atoms: N_8  and  C_32
REMARK    6  A    between atoms: C_15  and  C_21
REMARK    7  A    between atoms: C_22  and  C_24
REMARK                            x       y       z     vdW  Elec       q    Type
REMARK                         _______ _______ _______ _____ _____    ______ ____
ROOT
ATOM      1  O   UNL     1     -11.921  -9.594  16.145  0.00  0.00    -0.370 OA
ATOM      2  O   UNL     1     -10.083  -7.090  15.844  0.00  0.00    -0.370 OA
ATOM      9  C   UNL     1     -10.541  -8.092  14.920  0.00  0.00    +0.171 C 
ATOM     10  C   UNL     1     -10.577  -9.410  15.668  0.00  0.00    +0.171 C 
ATOM     11  C   UNL     1     -11.982  -7.839  14.544  0.00  0.00    +0.130 C 
ATOM     12  C   UNL     1      -9.632  -9.201  16.828  0.00  0.00    +0.130 C 
ATOM     13  C   UNL     1     -12.742  -8.517  15.669  0.00  0.00    +0.185 C 
ATOM     14  C   UNL     1      -9.772  -7.714  17.098  0.00  0.00    +0.185 C 
ENDROOT
BRANCH  11   4
ATOM      4  N   UNL     1     -12.283  -8.476  13.282  0.00  0.00    -0.306 N 
ATOM      6  N   UNL     1     -12.332  -6.430  12.134  0.00  0.00    -0.219 NA
ATOM      7  N   UNL     1     -12.733  -8.506  10.978  0.00  0.00    -0.223 NA
ATOM     20  C   UNL     1     -12.454  -7.783  12.096  0.00  0.00    +0.216 A 
ATOM     21  C   UNL     1     -12.504  -5.786  10.961  0.00  0.00    +0.049 A 
ATOM     23  C   UNL     1     -12.790  -6.424   9.771  0.00  0.00    +0.043 A 
ATOM     25  C   UNL     1     -12.893  -7.798   9.840  0.00  0.00    +0.116 A 
ATOM     33  H   UNL     1     -12.324  -9.488  13.231  0.00  0.00    +0.149 HD
BRANCH  21  15
ATOM     15  C   UNL     1     -12.372  -4.274  10.986  0.00  0.00    +0.038 C 
ATOM     16  C   UNL     1     -12.696  -3.568  12.310  0.00  0.00    +0.010 C 
ATOM     17  C   UNL     1     -13.339  -3.598  10.007  0.00  0.00    +0.010 C 
ATOM     18  C   UNL     1     -14.174  -3.171  12.240  0.00  0.00    +0.001 C 
ATOM     19  C   UNL     1     -14.624  -3.430  10.806  0.00  0.00    +0.001 C 
ENDBRANCH  21  15
ENDBRANCH  11   4
BRANCH  12   5
ATOM      3  O   UNL     1      -7.618 -10.301  18.556  0.00  0.00    -0.270 OA
ATOM      5  N   UNL     1      -8.278  -9.542  16.466  0.00  0.00    -0.304 N 
ATOM     22  C   UNL     1      -7.372 -10.071  17.375  0.00  0.00    +0.244 C 
ATOM     34  H   UNL     1      -7.969  -9.272  15.537  0.00  0.00    +0.149 HD
BRANCH  22  24
ATOM     24  C   UNL     1      -6.009 -10.343  16.852  0.00  0.00    +0.037 A 
ATOM     26  C   UNL     1      -5.026 -10.749  17.731  0.00  0.00    +0.015 A 
ATOM     27  C   UNL     1      -5.769 -10.184  15.503  0.00  0.00    +0.015 A 
ATOM     28  C   UNL     1      -3.746 -11.005  17.239  0.00  0.00    +0.024 A 
ATOM     29  C   UNL     1      -4.490 -10.441  15.011  0.00  0.00    +0.024 A 
ATOM     30  C   UNL     1      -3.478 -10.852  15.879  0.00  0.00    +0.029 A 
BRANCH  30   8
ATOM      8  N   UNL     1      -2.184 -11.113  15.382  0.00  0.00    -0.336 N 
ATOM     31  C   UNL     1      -1.960 -12.212  14.463  0.00  0.00    +0.129 C 
ATOM     32  C   UNL     1      -1.061 -10.297  15.794  0.00  0.00    +0.129 C 
ENDBRANCH  30   8
ENDBRANCH  22  24
ENDBRANCH  12   5
TORSDOF 5
ENDMDL
MODEL 7
REMARK VINA RESULT:      -6.9      4.619     11.934
REMARK  Name = 11911786
REMARK  7 active torsions:
REMARK  status: ('A' for Active; 'I' for Inactive)
REMARK    1  A    between atoms: N_4  and  C_11
REMARK    2  A    between atoms: N_5  and  C_12
REMARK    3  A    between atoms: N_8  and  C_30
REMARK    4  A    between atoms: N_8  and  C_31
REMARK    5  A    between atoms: N_8  and  C_32
REMARK    6  A    between atoms: C_15  and  C_21
REMARK    7  A    between atoms: C_22  and  C_24
REMARK                            x       y       z     vdW  Elec       q    Type
REMARK                         _______ _______ _______ _____ _____    ______ ____
ROOT
ATOM      1  O   UNL     1      22.608   8.510  23.074  0.00  0.00    -0.370 OA
ATOM      2  O   UNL     1      21.040   5.945  23.911  0.00  0.00    -0.370 OA
ATOM      9  C   UNL     1      21.726   6.330  22.708  0.00  0.00    +0.171 C 
ATOM     10  C   UNL     1      21.484   7.814  22.508  0.00  0.00    +0.171 C 
ATOM     11  C   UNL     1      23.221   6.221  22.899  0.00  0.00    +0.130 C 
ATOM     12  C   UNL     1      20.234   8.094  23.309  0.00  0.00    +0.130 C 
ATOM     13  C   UNL     1      23.572   7.553  23.536  0.00  0.00    +0.185 C 
ATOM     14  C   UNL     1      20.335   7.080  24.435  0.00  0.00    +0.185 C 
ENDROOT
BRANCH  11   4
ATOM      4  N   UNL     1      23.875   6.092  21.617  0.00  0.00    -0.306 N 
ATOM      6  N   UNL     1      24.014   3.756  21.798  0.00  0.00    -0.219 NA
ATOM      7  N   UNL     1      24.871   4.899  19.857  0.00  0.00    -0.223 NA
ATOM     20  C   UNL     1      24.265   4.879  21.075  0.00  0.00    +0.216 A 
ATOM     21  C   UNL     1      24.406   2.592  21.241  0.00  0.00    +0.049 A 
ATOM     23  C   UNL     1      25.028   2.502  20.012  0.00  0.00    +0.043 A 
ATOM     25  C   UNL     1      25.237   3.699  19.359  0.00  0.00    +0.116 A 
ATOM     33  H   UNL     1      24.020   6.917  21.045  0.00  0.00    +0.149 HD
BRANCH  21  15
ATOM     15  C   UNL     1      24.134   1.328  22.036  0.00  0.00    +0.038 C 
ATOM     16  C   UNL     1      23.930   1.487  23.549  0.00  0.00    +0.010 C 
ATOM     17  C   UNL     1      25.306   0.343  21.964  0.00  0.00    +0.010 C 
ATOM     18  C   UNL     1      25.303   1.281  24.197  0.00  0.00    +0.001 C 
ATOM     19  C   UNL     1      26.229   0.774  23.096  0.00  0.00    +0.001 C 
ENDBRANCH  21  15
ENDBRANCH  11   4
BRANCH  12   5
ATOM      3  O   UNL     1      19.050   9.945  21.460  0.00  0.00    -0.270 OA
ATOM      5  N   UNL     1      19.047   7.880  22.517  0.00  0.00    -0.304 N 
ATOM     22  C   UNL     1      18.549   8.840  21.646  0.00  0.00    +0.244 C 
ATOM     34  H   UNL     1      18.516   7.036  22.704  0.00  0.00    +0.149 HD
BRANCH  22  24
ATOM     24  C   UNL     1      17.303   8.476  20.924  0.00  0.00    +0.037 A 
ATOM     26  C   UNL     1      16.413   9.475  20.586  0.00  0.00    +0.015 A 
ATOM     27  C   UNL     1      17.076   7.152  20.610  0.00  0.00    +0.015 A 
ATOM     28  C   UNL     1      15.243   9.134  19.907  0.00  0.00    +0.024 A 
ATOM     29  C   UNL     1      15.908   6.812  19.930  0.00  0.00    +0.024 A 
ATOM     30  C   UNL     1      14.991   7.802  19.578  0.00  0.00    +0.029 A 
BRANCH  30   8
ATOM      8  N   UNL     1      13.810   7.458  18.889  0.00  0.00    -0.336 N 
ATOM     31  C   UNL     1      12.704   6.839  19.593  0.00  0.00    +0.129 C 
ATOM     32  C   UNL     1      13.692   7.705  17.466  0.00  0.00    +0.129 C 
ENDBRANCH  30   8
ENDBRANCH  22  24
ENDBRANCH  12   5
TORSDOF 5
ENDMDL
MODEL 8
REMARK VINA RESULT:      -6.7      4.425     11.848
REMARK  Name = 11911786
REMARK  7 active torsions:
REMARK  status: ('A' for Active; 'I' for Inactive)
REMARK    1  A    between atoms: N_4  and  C_11
REMARK    2  A    between atoms: N_5  and  C_12
REMARK    3  A    between atoms: N_8  and  C_30
REMARK    4  A    between atoms: N_8  and  C_31
REMARK    5  A    between atoms: N_8  and  C_32
REMARK    6  A    between atoms: C_15  and  C_21
REMARK    7  A    between atoms: C_22  and  C_24
REMARK                            x       y       z     vdW  Elec       q    Type
REMARK                         _______ _______ _______ _____ _____    ______ ____
ROOT
ATOM      1  O   UNL     1      22.486   7.695  21.951  0.00  0.00    -0.370 OA
ATOM      2  O   UNL     1      20.685   6.318  24.096  0.00  0.00    -0.370 OA
ATOM      9  C   UNL     1      21.181   5.901  22.812  0.00  0.00    +0.171 C 
ATOM     10  C   UNL     1      21.170   7.119  21.909  0.00  0.00    +0.171 C 
ATOM     11  C   UNL     1      22.641   5.526  22.910  0.00  0.00    +0.130 C 
ATOM     12  C   UNL     1      20.169   8.048  22.557  0.00  0.00    +0.130 C 
ATOM     13  C   UNL     1      23.338   6.864  22.755  0.00  0.00    +0.185 C 
ATOM     14  C   UNL     1      20.307   7.700  24.028  0.00  0.00    +0.185 C 
ENDROOT
BRANCH  11   4
ATOM      4  N   UNL     1      22.999   4.645  21.821  0.00  0.00    -0.306 N 
ATOM      6  N   UNL     1      23.645   2.924  23.279  0.00  0.00    -0.219 NA
ATOM      7  N   UNL     1      23.790   2.640  20.890  0.00  0.00    -0.223 NA
ATOM     20  C   UNL     1      23.493   3.365  22.002  0.00  0.00    +0.216 A 
ATOM     21  C   UNL     1      24.127   1.672  23.420  0.00  0.00    +0.049 A 
ATOM     23  C   UNL     1      24.459   0.855  22.358  0.00  0.00    +0.043 A 
ATOM     25  C   UNL     1      24.268   1.397  21.104  0.00  0.00    +0.116 A 
ATOM     33  H   UNL     1      22.840   4.944  20.865  0.00  0.00    +0.149 HD
BRANCH  21  15
ATOM     15  C   UNL     1      24.304   1.163  24.839  0.00  0.00    +0.038 C 
ATOM     16  C   UNL     1      24.246  -0.357  25.046  0.00  0.00    +0.010 C 
ATOM     17  C   UNL     1      23.194   1.665  25.770  0.00  0.00    +0.010 C 
ATOM     18  C   UNL     1      22.792  -0.694  25.390  0.00  0.00    +0.001 C 
ATOM     19  C   UNL     1      22.081   0.637  25.614  0.00  0.00    +0.001 C 
ENDBRANCH  21  15
ENDBRANCH  11   4
BRANCH  12   5
ATOM      3  O   UNL     1      18.549   9.797  20.955  0.00  0.00    -0.270 OA
ATOM      5  N   UNL     1      18.832   7.789  22.081  0.00  0.00    -0.304 N 
ATOM     22  C   UNL     1      18.125   8.701  21.309  0.00  0.00    +0.244 C 
ATOM     34  H   UNL     1      18.375   6.952  22.430  0.00  0.00    +0.149 HD
BRANCH  22  24
ATOM     24  C   UNL     1      16.750   8.295  20.921  0.00  0.00    +0.037 A 
ATOM     26  C   UNL     1      16.387   6.969  21.042  0.00  0.00    +0.015 A 
ATOM     27  C   UNL     1      15.877   9.256  20.455  0.00  0.00    +0.015 A 
ATOM     28  C   UNL     1      15.095   6.588  20.680  0.00  0.00    +0.024 A 
ATOM     29  C   UNL     1      14.585   8.875  20.094  0.00  0.00    +0.024 A 
ATOM     30  C   UNL     1      14.194   7.542  20.206  0.00  0.00    +0.029 A 
BRANCH  30   8
ATOM      8  N   UNL     1      12.887   7.156  19.842  0.00  0.00    -0.336 N 
ATOM     31  C   UNL     1      11.975   6.624  20.835  0.00  0.00    +0.129 C 
ATOM     32  C   UNL     1      12.443   7.274  18.467  0.00  0.00    +0.129 C 
ENDBRANCH  30   8
ENDBRANCH  22  24
ENDBRANCH  12   5
TORSDOF 5
ENDMDL
MODEL 9
REMARK VINA RESULT:      -6.5     10.395     14.507
REMARK  Name = 11911786
REMARK  7 active torsions:
REMARK  status: ('A' for Active; 'I' for Inactive)
REMARK    1  A    between atoms: N_4  and  C_11
REMARK    2  A    between atoms: N_5  and  C_12
REMARK    3  A    between atoms: N_8  and  C_30
REMARK    4  A    between atoms: N_8  and  C_31
REMARK    5  A    between atoms: N_8  and  C_32
REMARK    6  A    between atoms: C_15  and  C_21
REMARK    7  A    between atoms: C_22  and  C_24
REMARK                            x       y       z     vdW  Elec       q    Type
REMARK                         _______ _______ _______ _____ _____    ______ ____
ROOT
ATOM      1  O   UNL     1      23.135  -3.718  26.890  0.00  0.00    -0.370 OA
ATOM      2  O   UNL     1      20.658  -1.844  27.199  0.00  0.00    -0.370 OA
ATOM      9  C   UNL     1      21.051  -2.801  26.199  0.00  0.00    +0.171 C 
ATOM     10  C   UNL     1      22.556  -2.703  26.051  0.00  0.00    +0.171 C 
ATOM     11  C   UNL     1      20.818  -4.207  26.699  0.00  0.00    +0.130 C 
ATOM     12  C   UNL     1      22.890  -1.329  26.582  0.00  0.00    +0.130 C 
ATOM     13  C   UNL     1      22.084  -4.494  27.484  0.00  0.00    +0.185 C 
ATOM     14  C   UNL     1      21.816  -1.116  27.633  0.00  0.00    +0.185 C 
ENDROOT
BRANCH  11   4
ATOM      4  N   UNL     1      20.705  -5.117  25.581  0.00  0.00    -0.306 N 
ATOM      6  N   UNL     1      18.618  -4.252  24.945  0.00  0.00    -0.219 NA
ATOM      7  N   UNL     1      19.643  -6.046  23.704  0.00  0.00    -0.223 NA
ATOM     20  C   UNL     1      19.623  -5.139  24.718  0.00  0.00    +0.216 A 
ATOM     21  C   UNL     1      17.580  -4.300  24.086  0.00  0.00    +0.049 A 
ATOM     23  C   UNL     1      17.502  -5.180  23.026  0.00  0.00    +0.043 A 
ATOM     25  C   UNL     1      18.573  -6.038  22.882  0.00  0.00    +0.116 A 
ATOM     33  H   UNL     1      21.472  -5.746  25.370  0.00  0.00    +0.149 HD
BRANCH  21  15
ATOM     15  C   UNL     1      16.448  -3.317  24.325  0.00  0.00    +0.038 C 
ATOM     16  C   UNL     1      15.730  -2.765  23.085  0.00  0.00    +0.010 C 
ATOM     17  C   UNL     1      16.936  -2.040  25.019  0.00  0.00    +0.010 C 
ATOM     18  C   UNL     1      16.436  -1.455  22.722  0.00  0.00    +0.001 C 
ATOM     19  C   UNL     1      17.383  -1.140  23.875  0.00  0.00    +0.001 C 
ENDBRANCH  21  15
ENDBRANCH  11   4
BRANCH  12   5
ATOM      3  O   UNL     1      25.044  -0.400  24.925  0.00  0.00    -0.270 OA
ATOM      5  N   UNL     1      22.809  -0.333  25.541  0.00  0.00    -0.304 N 
ATOM     22  C   UNL     1      23.911   0.053  24.790  0.00  0.00    +0.244 C 
ATOM     34  H   UNL     1      21.930   0.167  25.451  0.00  0.00    +0.149 HD
BRANCH  22  24
ATOM     24  C   UNL     1      23.668   1.109  23.775  0.00  0.00    +0.037 A 
ATOM     26  C   UNL     1      24.334   1.041  22.569  0.00  0.00    +0.015 A 
ATOM     27  C   UNL     1      22.781   2.125  24.068  0.00  0.00    +0.015 A 
ATOM     28  C   UNL     1      24.105   2.033  21.615  0.00  0.00    +0.024 A 
ATOM     29  C   UNL     1      22.551   3.115  23.115  0.00  0.00    +0.024 A 
ATOM     30  C   UNL     1      23.212   3.069  21.888  0.00  0.00    +0.029 A 
BRANCH  30   8
ATOM      8  N   UNL     1      22.979   4.071  20.922  0.00  0.00    -0.336 N 
ATOM     31  C   UNL     1      21.636   4.564  20.687  0.00  0.00    +0.129 C 
ATOM     32  C   UNL     1      24.076   4.609  20.143  0.00  0.00    +0.129 C 
ENDBRANCH  30   8
ENDBRANCH  22  24
ENDBRANCH  12   5
TORSDOF 5
ENDMDL
MODEL 10
REMARK VINA RESULT:      -6.4     15.808     19.974
REMARK  Name = 11911786
REMARK  7 active torsions:
REMARK  status: ('A' for Active; 'I' for Inactive)
REMARK    1  A    between atoms: N_4  and  C_11
REMARK    2  A    between atoms: N_5  and  C_12
REMARK    3  A    between atoms: N_8  and  C_30
REMARK    4  A    between atoms: N_8  and  C_31
REMARK    5  A    between atoms: N_8  and  C_32
REMARK    6  A    between atoms: C_15  and  C_21
REMARK    7  A    between atoms: C_22  and  C_24
REMARK                            x       y       z     vdW  Elec       q    Type
REMARK                         _______ _______ _______ _____ _____    ______ ____
ROOT
ATOM      1  O   UNL     1      10.417   4.563   4.633  0.00  0.00    -0.370 OA
ATOM      2  O   UNL     1       9.906   7.313   3.249  0.00  0.00    -0.370 OA
ATOM      9  C   UNL     1      11.102   6.590   3.592  0.00  0.00    +0.171 C 
ATOM     10  C   UNL     1      10.846   5.904   4.920  0.00  0.00    +0.171 C 
ATOM     11  C   UNL     1      11.322   5.452   2.624  0.00  0.00    +0.130 C 
ATOM     12  C   UNL     1       9.715   6.698   5.532  0.00  0.00    +0.130 C 
ATOM     13  C   UNL     1      10.472   4.343   3.215  0.00  0.00    +0.185 C 
ATOM     14  C   UNL     1       8.950   7.171   4.310  0.00  0.00    +0.185 C 
ENDROOT
BRANCH  11   4
ATOM      4  N   UNL     1      12.716   5.067   2.622  0.00  0.00    -0.306 N 
ATOM      6  N   UNL     1      12.761   4.822   0.289  0.00  0.00    -0.219 NA
ATOM      7  N   UNL     1      14.732   4.412   1.614  0.00  0.00    -0.223 NA
ATOM     20  C   UNL     1      13.424   4.758   1.474  0.00  0.00    +0.216 A 
ATOM     21  C   UNL     1      13.480   4.516  -0.810  0.00  0.00    +0.049 A 
ATOM     23  C   UNL     1      14.812   4.153  -0.778  0.00  0.00    +0.043 A 
ATOM     25  C   UNL     1      15.391   4.118   0.474  0.00  0.00    +0.116 A 
ATOM     33  H   UNL     1      13.234   5.067   3.495  0.00  0.00    +0.149 HD
BRANCH  21  15
ATOM     15  C   UNL     1      12.756   4.582  -2.142  0.00  0.00    +0.038 C 
ATOM     16  C   UNL     1      11.227   4.442  -2.111  0.00  0.00    +0.010 C 
ATOM     17  C   UNL     1      13.172   3.442  -3.078  0.00  0.00    +0.010 C 
ATOM     18  C   UNL     1      10.922   2.956  -2.321  0.00  0.00    +0.001 C 
ATOM     19  C   UNL     1      12.241   2.294  -2.707  0.00  0.00    +0.001 C 
ENDBRANCH  21  15
ENDBRANCH  11   4
BRANCH  12   5
ATOM      3  O   UNL     1       8.491   7.872   7.850  0.00  0.00    -0.270 OA
ATOM      5  N   UNL     1      10.215   7.812   6.301  0.00  0.00    -0.304 N 
ATOM     22  C   UNL     1       9.549   8.311   7.411  0.00  0.00    +0.244 C 
ATOM     34  H   UNL     1      11.025   8.299   5.929  0.00  0.00    +0.149 HD
BRANCH  22  24
ATOM     24  C   UNL     1      10.181   9.479   8.077  0.00  0.00    +0.037 A 
ATOM     26  C   UNL     1       9.456  10.185   9.015  0.00  0.00    +0.015 A 
ATOM     27  C   UNL     1      11.474   9.821   7.738  0.00  0.00    +0.015 A 
ATOM     28  C   UNL     1      10.050  11.280   9.641  0.00  0.00    +0.024 A 
ATOM     29  C   UNL     1      12.068  10.916   8.365  0.00  0.00    +0.024 A 
ATOM     30  C   UNL     1      11.356  11.646   9.316  0.00  0.00    +0.029 A 
BRANCH  30   8
ATOM      8  N   UNL     1      11.957  12.753   9.951  0.00  0.00    -0.336 N 
ATOM     31  C   UNL     1      12.650  12.587  11.214  0.00  0.00    +0.129 C 
ATOM     32  C   UNL     1      11.878  14.072   9.357  0.00  0.00    +0.129 C 
ENDBRANCH  30   8
ENDBRANCH  22  24
ENDBRANCH  12   5
TORSDOF 5
ENDMDL
