MODEL 1
REMARK VINA RESULT:      -7.1      0.000      0.000
REMARK  Name = 11943404
REMARK  4 active torsions:
REMARK  status: ('A' for Active; 'I' for Inactive)
REMARK    1  A    between atoms: N_3  and  C_11
REMARK    2  A    between atoms: C_5  and  C_11
REMARK    3  A    between atoms: C_7  and  C_12
REMARK    4  A    between atoms: C_13  and  C_15
REMARK                            x       y       z     vdW  Elec       q    Type
REMARK                         _______ _______ _______ _____ _____    ______ ____
ROOT
ATOM      1  O   UNL     1      16.469   5.578  18.052  0.00  0.00    -0.270 OA
ATOM      3  N   UNL     1      15.437   7.274  19.246  0.00  0.00    -0.310 N 
ATOM     13  C   UNL     1      16.449   6.388  18.977  0.00  0.00    +0.244 C 
ATOM     25  H   UNL     1      15.446   7.862  20.071  0.00  0.00    +0.149 HD
ENDROOT
BRANCH  13  15
ATOM     15  C   UNL     1      17.588   6.430  19.929  0.00  0.00    +0.037 A 
ATOM     16  C   UNL     1      18.628   5.539  19.764  0.00  0.00    +0.021 A 
ATOM     17  C   UNL     1      17.568   7.359  20.946  0.00  0.00    +0.013 A 
ATOM     18  C   UNL     1      19.712   5.568  20.656  0.00  0.00    -0.017 A 
ATOM     19  C   UNL     1      19.718   6.513  21.710  0.00  0.00    -0.018 A 
ATOM     20  C   UNL     1      18.638   7.401  21.840  0.00  0.00    +0.009 A 
ATOM     21  C   UNL     1      20.792   4.679  20.526  0.00  0.00    +0.008 A 
ATOM     22  C   UNL     1      20.801   6.541  22.602  0.00  0.00    +0.008 A 
ATOM     23  C   UNL     1      21.861   4.721  21.421  0.00  0.00    +0.001 A 
ATOM     24  C   UNL     1      21.866   5.650  22.458  0.00  0.00    +0.001 A 
ENDBRANCH  13  15
BRANCH   3  11
ATOM     11  C   UNL     1      14.227   7.336  18.409  0.00  0.00    +0.123 C 
BRANCH  11   5
ATOM      2  N   UNL     1      12.228   8.648  19.163  0.00  0.00    -0.297 NA
ATOM      4  C   UNL     1      12.569   8.108  21.685  0.00  0.00    +0.008 C 
ATOM      5  C   UNL     1      12.993   7.381  19.313  0.00  0.00    +0.074 C 
ATOM      6  C   UNL     1      13.354   7.125  20.792  0.00  0.00    +0.025 C 
ATOM      7  C   UNL     1      13.018   9.551  21.363  0.00  0.00    +0.081 C 
ATOM      8  C   UNL     1      11.084   8.002  21.290  0.00  0.00    +0.020 C 
ATOM      9  C   UNL     1      12.941   9.762  19.836  0.00  0.00    +0.101 C 
ATOM     10  C   UNL     1      10.915   8.468  19.832  0.00  0.00    +0.085 C 
BRANCH   7  12
ATOM     12  C   UNL     1      14.365   9.837  21.882  0.00  0.00    -0.101 C 
ATOM     14  C   UNL     1      15.465  10.069  22.304  0.00  0.00    +0.004 C 
ENDBRANCH   7  12
ENDBRANCH  11   5
ENDBRANCH   3  11
TORSDOF 4
ENDMDL
MODEL 2
REMARK VINA RESULT:      -7.0      1.074      2.174
REMARK  Name = 11943404
REMARK  4 active torsions:
REMARK  status: ('A' for Active; 'I' for Inactive)
REMARK    1  A    between atoms: N_3  and  C_11
REMARK    2  A    between atoms: C_5  and  C_11
REMARK    3  A    between atoms: C_7  and  C_12
REMARK    4  A    between atoms: C_13  and  C_15
REMARK                            x       y       z     vdW  Elec       q    Type
REMARK                         _______ _______ _______ _____ _____    ______ ____
ROOT
ATOM      1  O   UNL     1      16.794   5.543  18.341  0.00  0.00    -0.270 OA
ATOM      3  N   UNL     1      15.794   7.159  19.664  0.00  0.00    -0.310 N 
ATOM     13  C   UNL     1      16.813   6.321  19.292  0.00  0.00    +0.244 C 
ATOM     25  H   UNL     1      15.843   7.720  20.507  0.00  0.00    +0.149 HD
ENDROOT
BRANCH  13  15
ATOM     15  C   UNL     1      18.017   6.373  20.161  0.00  0.00    +0.037 A 
ATOM     16  C   UNL     1      19.005   5.426  19.990  0.00  0.00    +0.021 A 
ATOM     17  C   UNL     1      18.107   7.368  21.109  0.00  0.00    +0.013 A 
ATOM     18  C   UNL     1      20.149   5.464  20.803  0.00  0.00    -0.017 A 
ATOM     19  C   UNL     1      20.267   6.476  21.786  0.00  0.00    -0.018 A 
ATOM     20  C   UNL     1      19.237   7.420  21.925  0.00  0.00    +0.009 A 
ATOM     21  C   UNL     1      21.179   4.520  20.664  0.00  0.00    +0.008 A 
ATOM     22  C   UNL     1      21.411   6.514  22.599  0.00  0.00    +0.008 A 
ATOM     23  C   UNL     1      22.309   4.571  21.480  0.00  0.00    +0.001 A 
ATOM     24  C   UNL     1      22.424   5.567  22.447  0.00  0.00    +0.001 A 
ENDBRANCH  13  15
BRANCH   3  11
ATOM     11  C   UNL     1      14.525   7.204  18.919  0.00  0.00    +0.123 C 
BRANCH  11   5
ATOM      2  N   UNL     1      13.994   8.723  20.842  0.00  0.00    -0.297 NA
ATOM      4  C   UNL     1      11.417   8.584  20.505  0.00  0.00    +0.008 C 
ATOM      5  C   UNL     1      13.683   8.376  19.429  0.00  0.00    +0.074 C 
ATOM      6  C   UNL     1      12.172   8.122  19.242  0.00  0.00    +0.025 C 
ATOM      7  C   UNL     1      11.865   7.719  21.704  0.00  0.00    +0.081 C 
ATOM      8  C   UNL     1      11.862  10.028  20.803  0.00  0.00    +0.020 C 
ATOM      9  C   UNL     1      13.408   7.715  21.760  0.00  0.00    +0.101 C 
ATOM     10  C   UNL     1      13.365  10.035  21.136  0.00  0.00    +0.085 C 
BRANCH   7  12
ATOM     12  C   UNL     1      11.323   6.353  21.632  0.00  0.00    -0.101 C 
ATOM     14  C   UNL     1      10.879   5.239  21.574  0.00  0.00    +0.004 C 
ENDBRANCH   7  12
ENDBRANCH  11   5
ENDBRANCH   3  11
TORSDOF 4
ENDMDL
MODEL 3
REMARK VINA RESULT:      -6.8      1.154      2.199
REMARK  Name = 11943404
REMARK  4 active torsions:
REMARK  status: ('A' for Active; 'I' for Inactive)
REMARK    1  A    between atoms: N_3  and  C_11
REMARK    2  A    between atoms: C_5  and  C_11
REMARK    3  A    between atoms: C_7  and  C_12
REMARK    4  A    between atoms: C_13  and  C_15
REMARK                            x       y       z     vdW  Elec       q    Type
REMARK                         _______ _______ _______ _____ _____    ______ ____
ROOT
ATOM      1  O   UNL     1      16.452   5.703  18.468  0.00  0.00    -0.270 OA
ATOM      3  N   UNL     1      15.477   6.896  20.198  0.00  0.00    -0.310 N 
ATOM     13  C   UNL     1      16.522   6.297  19.542  0.00  0.00    +0.244 C 
ATOM     25  H   UNL     1      15.587   7.302  21.120  0.00  0.00    +0.149 HD
ENDROOT
BRANCH  13  15
ATOM     15  C   UNL     1      17.830   6.376  20.243  0.00  0.00    +0.037 A 
ATOM     16  C   UNL     1      18.025   7.370  21.179  0.00  0.00    +0.021 A 
ATOM     17  C   UNL     1      18.804   5.453  19.935  0.00  0.00    +0.013 A 
ATOM     18  C   UNL     1      19.255   7.457  21.850  0.00  0.00    -0.017 A 
ATOM     19  C   UNL     1      20.275   6.520  21.553  0.00  0.00    -0.018 A 
ATOM     20  C   UNL     1      20.032   5.525  20.593  0.00  0.00    +0.009 A 
ATOM     21  C   UNL     1      19.498   8.452  22.810  0.00  0.00    +0.008 A 
ATOM     22  C   UNL     1      21.505   6.607  22.224  0.00  0.00    +0.008 A 
ATOM     23  C   UNL     1      20.726   8.525  23.468  0.00  0.00    +0.001 A 
ATOM     24  C   UNL     1      21.728   7.604  23.175  0.00  0.00    +0.001 A 
ENDBRANCH  13  15
BRANCH   3  11
ATOM     11  C   UNL     1      14.113   6.880  19.646  0.00  0.00    +0.123 C 
BRANCH  11   5
ATOM      2  N   UNL     1      11.719   7.284  20.272  0.00  0.00    -0.297 NA
ATOM      4  C   UNL     1      12.270   9.171  21.976  0.00  0.00    +0.008 C 
ATOM      5  C   UNL     1      13.110   7.124  20.775  0.00  0.00    +0.074 C 
ATOM      6  C   UNL     1      13.519   8.324  21.657  0.00  0.00    +0.025 C 
ATOM      7  C   UNL     1      11.711   9.760  20.661  0.00  0.00    +0.081 C 
ATOM      8  C   UNL     1      11.197   8.216  22.531  0.00  0.00    +0.020 C 
ATOM      9  C   UNL     1      11.551   8.615  19.638  0.00  0.00    +0.101 C 
ATOM     10  C   UNL     1      10.803   7.208  21.437  0.00  0.00    +0.085 C 
BRANCH   7  12
ATOM     12  C   UNL     1      12.560  10.840  20.135  0.00  0.00    -0.101 C 
ATOM     14  C   UNL     1      13.252  11.723  19.707  0.00  0.00    +0.004 C 
ENDBRANCH   7  12
ENDBRANCH  11   5
ENDBRANCH   3  11
TORSDOF 4
ENDMDL
MODEL 4
REMARK VINA RESULT:      -6.6      1.503      2.493
REMARK  Name = 11943404
REMARK  4 active torsions:
REMARK  status: ('A' for Active; 'I' for Inactive)
REMARK    1  A    between atoms: N_3  and  C_11
REMARK    2  A    between atoms: C_5  and  C_11
REMARK    3  A    between atoms: C_7  and  C_12
REMARK    4  A    between atoms: C_13  and  C_15
REMARK                            x       y       z     vdW  Elec       q    Type
REMARK                         _______ _______ _______ _____ _____    ______ ____
ROOT
ATOM      1  O   UNL     1      17.672   5.467  18.403  0.00  0.00    -0.270 OA
ATOM      3  N   UNL     1      16.483   6.879  19.802  0.00  0.00    -0.310 N 
ATOM     13  C   UNL     1      17.564   6.115  19.441  0.00  0.00    +0.244 C 
ATOM     25  H   UNL     1      16.424   7.327  20.710  0.00  0.00    +0.149 HD
ENDROOT
BRANCH  13  15
ATOM     15  C   UNL     1      18.666   6.078  20.437  0.00  0.00    +0.037 A 
ATOM     16  C   UNL     1      19.676   5.152  20.279  0.00  0.00    +0.021 A 
ATOM     17  C   UNL     1      18.643   6.971  21.485  0.00  0.00    +0.013 A 
ATOM     18  C   UNL     1      20.724   5.106  21.212  0.00  0.00    -0.017 A 
ATOM     19  C   UNL     1      20.726   6.013  22.299  0.00  0.00    -0.018 A 
ATOM     20  C   UNL     1      19.677   6.940  22.420  0.00  0.00    +0.009 A 
ATOM     21  C   UNL     1      21.773   4.180  21.091  0.00  0.00    +0.008 A 
ATOM     22  C   UNL     1      21.774   5.967  23.231  0.00  0.00    +0.008 A 
ATOM     23  C   UNL     1      22.808   4.148  22.026  0.00  0.00    +0.001 A 
ATOM     24  C   UNL     1      22.808   5.040  23.095  0.00  0.00    +0.001 A 
ENDBRANCH  13  15
BRANCH   3  11
ATOM     11  C   UNL     1      15.300   6.994  18.935  0.00  0.00    +0.123 C 
BRANCH  11   5
ATOM      2  N   UNL     1      12.861   6.980  19.515  0.00  0.00    -0.297 NA
ATOM      4  C   UNL     1      12.571   9.552  19.239  0.00  0.00    +0.008 C 
ATOM      5  C   UNL     1      14.167   7.663  19.716  0.00  0.00    +0.074 C 
ATOM      6  C   UNL     1      14.058   9.170  19.393  0.00  0.00    +0.025 C 
ATOM      7  C   UNL     1      11.979   8.796  18.029  0.00  0.00    +0.081 C 
ATOM      8  C   UNL     1      11.834   9.040  20.491  0.00  0.00    +0.020 C 
ATOM      9  C   UNL     1      12.316   7.296  18.170  0.00  0.00    +0.101 C 
ATOM     10  C   UNL     1      11.913   7.503  20.531  0.00  0.00    +0.085 C 
BRANCH   7  12
ATOM     12  C   UNL     1      12.462   9.340  16.750  0.00  0.00    -0.101 C 
ATOM     14  C   UNL     1      12.854   9.784  15.705  0.00  0.00    +0.004 C 
ENDBRANCH   7  12
ENDBRANCH  11   5
ENDBRANCH   3  11
TORSDOF 4
ENDMDL
MODEL 5
REMARK VINA RESULT:      -6.5      1.943      7.940
REMARK  Name = 11943404
REMARK  4 active torsions:
REMARK  status: ('A' for Active; 'I' for Inactive)
REMARK    1  A    between atoms: N_3  and  C_11
REMARK    2  A    between atoms: C_5  and  C_11
REMARK    3  A    between atoms: C_7  and  C_12
REMARK    4  A    between atoms: C_13  and  C_15
REMARK                            x       y       z     vdW  Elec       q    Type
REMARK                         _______ _______ _______ _____ _____    ______ ____
ROOT
ATOM      1  O   UNL     1      16.916   5.489  18.202  0.00  0.00    -0.270 OA
ATOM      3  N   UNL     1      17.455   6.456  20.236  0.00  0.00    -0.310 N 
ATOM     13  C   UNL     1      16.625   6.171  19.182  0.00  0.00    +0.244 C 
ATOM     25  H   UNL     1      17.180   7.091  20.977  0.00  0.00    +0.149 HD
ENDROOT
BRANCH  13  15
ATOM     15  C   UNL     1      15.274   6.785  19.264  0.00  0.00    +0.037 A 
ATOM     16  C   UNL     1      14.582   6.715  20.455  0.00  0.00    +0.021 A 
ATOM     17  C   UNL     1      14.759   7.403  18.147  0.00  0.00    +0.013 A 
ATOM     18  C   UNL     1      13.305   7.291  20.547  0.00  0.00    -0.017 A 
ATOM     19  C   UNL     1      12.751   7.934  19.414  0.00  0.00    -0.018 A 
ATOM     20  C   UNL     1      13.491   7.981  18.222  0.00  0.00    +0.009 A 
ATOM     21  C   UNL     1      12.564   7.244  21.739  0.00  0.00    +0.008 A 
ATOM     22  C   UNL     1      11.474   8.510  19.506  0.00  0.00    +0.008 A 
ATOM     23  C   UNL     1      11.296   7.821  21.814  0.00  0.00    +0.001 A 
ATOM     24  C   UNL     1      10.752   8.453  20.699  0.00  0.00    +0.001 A 
ENDBRANCH  13  15
BRANCH   3  11
ATOM     11  C   UNL     1      18.834   5.945  20.289  0.00  0.00    +0.123 C 
BRANCH  11   5
ATOM      2  N   UNL     1      20.994   7.213  20.387  0.00  0.00    -0.297 NA
ATOM      4  C   UNL     1      21.421   6.692  22.901  0.00  0.00    +0.008 C 
ATOM      5  C   UNL     1      19.706   6.927  21.074  0.00  0.00    +0.074 C 
ATOM      6  C   UNL     1      19.946   6.451  22.523  0.00  0.00    +0.025 C 
ATOM      7  C   UNL     1      22.322   5.823  21.995  0.00  0.00    +0.081 C 
ATOM      8  C   UNL     1      21.745   8.163  22.574  0.00  0.00    +0.020 C 
ATOM      9  C   UNL     1      21.917   6.059  20.524  0.00  0.00    +0.101 C 
ATOM     10  C   UNL     1      21.616   8.384  21.057  0.00  0.00    +0.085 C 
BRANCH   7  12
ATOM     12  C   UNL     1      22.251   4.397  22.353  0.00  0.00    -0.101 C 
ATOM     14  C   UNL     1      22.191   3.234  22.645  0.00  0.00    +0.004 C 
ENDBRANCH   7  12
ENDBRANCH  11   5
ENDBRANCH   3  11
TORSDOF 4
ENDMDL
MODEL 6
REMARK VINA RESULT:      -6.4      1.584      2.783
REMARK  Name = 11943404
REMARK  4 active torsions:
REMARK  status: ('A' for Active; 'I' for Inactive)
REMARK    1  A    between atoms: N_3  and  C_11
REMARK    2  A    between atoms: C_5  and  C_11
REMARK    3  A    between atoms: C_7  and  C_12
REMARK    4  A    between atoms: C_13  and  C_15
REMARK                            x       y       z     vdW  Elec       q    Type
REMARK                         _______ _______ _______ _____ _____    ______ ____
ROOT
ATOM      1  O   UNL     1      17.305   9.667  20.907  0.00  0.00    -0.270 OA
ATOM      3  N   UNL     1      15.903   8.200  22.023  0.00  0.00    -0.310 N 
ATOM     13  C   UNL     1      17.041   8.548  21.341  0.00  0.00    +0.244 C 
ATOM     25  H   UNL     1      15.709   7.240  22.286  0.00  0.00    +0.149 HD
ENDROOT
BRANCH  13  15
ATOM     15  C   UNL     1      17.997   7.435  21.108  0.00  0.00    +0.037 A 
ATOM     16  C   UNL     1      19.078   7.298  21.953  0.00  0.00    +0.021 A 
ATOM     17  C   UNL     1      17.772   6.577  20.055  0.00  0.00    +0.013 A 
ATOM     18  C   UNL     1      19.990   6.251  21.746  0.00  0.00    -0.017 A 
ATOM     19  C   UNL     1      19.782   5.353  20.671  0.00  0.00    -0.018 A 
ATOM     20  C   UNL     1      18.667   5.530  19.836  0.00  0.00    +0.009 A 
ATOM     21  C   UNL     1      21.105   6.073  22.582  0.00  0.00    +0.008 A 
ATOM     22  C   UNL     1      20.694   4.306  20.464  0.00  0.00    +0.008 A 
ATOM     23  C   UNL     1      22.001   5.027  22.362  0.00  0.00    +0.001 A 
ATOM     24  C   UNL     1      21.796   4.145  21.304  0.00  0.00    +0.001 A 
ENDBRANCH  13  15
BRANCH   3  11
ATOM     11  C   UNL     1      14.846   9.184  22.308  0.00  0.00    +0.123 C 
BRANCH  11   5
ATOM      2  N   UNL     1      13.609   7.539  20.878  0.00  0.00    -0.297 NA
ATOM      4  C   UNL     1      11.714   9.206  20.243  0.00  0.00    +0.008 C 
ATOM      5  C   UNL     1      13.489   8.594  21.920  0.00  0.00    +0.074 C 
ATOM      6  C   UNL     1      12.490   9.688  21.486  0.00  0.00    +0.025 C 
ATOM      7  C   UNL     1      12.704   9.023  19.071  0.00  0.00    +0.081 C 
ATOM      8  C   UNL     1      11.143   7.813  20.570  0.00  0.00    +0.020 C 
ATOM      9  C   UNL     1      13.884   8.153  19.554  0.00  0.00    +0.101 C 
ATOM     10  C   UNL     1      12.307   6.831  20.796  0.00  0.00    +0.085 C 
BRANCH   7  12
ATOM     12  C   UNL     1      13.168  10.312  18.534  0.00  0.00    -0.101 C 
ATOM     14  C   UNL     1      13.544  11.364  18.096  0.00  0.00    +0.004 C 
ENDBRANCH   7  12
ENDBRANCH  11   5
ENDBRANCH   3  11
TORSDOF 4
ENDMDL
MODEL 7
REMARK VINA RESULT:      -6.4      4.474      8.292
REMARK  Name = 11943404
REMARK  4 active torsions:
REMARK  status: ('A' for Active; 'I' for Inactive)
REMARK    1  A    between atoms: N_3  and  C_11
REMARK    2  A    between atoms: C_5  and  C_11
REMARK    3  A    between atoms: C_7  and  C_12
REMARK    4  A    between atoms: C_13  and  C_15
REMARK                            x       y       z     vdW  Elec       q    Type
REMARK                         _______ _______ _______ _____ _____    ______ ____
ROOT
ATOM      1  O   UNL     1      11.658   8.687  22.693  0.00  0.00    -0.270 OA
ATOM      3  N   UNL     1      11.247   9.446  20.544  0.00  0.00    -0.310 N 
ATOM     13  C   UNL     1      11.422   9.592  21.896  0.00  0.00    +0.244 C 
ATOM     25  H   UNL     1      10.976  10.223  19.952  0.00  0.00    +0.149 HD
ENDROOT
BRANCH  13  15
ATOM     15  C   UNL     1      11.278  10.983  22.400  0.00  0.00    +0.037 A 
ATOM     16  C   UNL     1      11.071  11.185  23.749  0.00  0.00    +0.021 A 
ATOM     17  C   UNL     1      11.356  12.024  21.502  0.00  0.00    +0.013 A 
ATOM     18  C   UNL     1      10.934  12.494  24.239  0.00  0.00    -0.017 A 
ATOM     19  C   UNL     1      11.011  13.583  23.338  0.00  0.00    -0.018 A 
ATOM     20  C   UNL     1      11.223  13.330  21.973  0.00  0.00    +0.009 A 
ATOM     21  C   UNL     1      10.722  12.747  25.604  0.00  0.00    +0.008 A 
ATOM     22  C   UNL     1      10.874  14.892  23.828  0.00  0.00    +0.008 A 
ATOM     23  C   UNL     1      10.588  14.053  26.075  0.00  0.00    +0.001 A 
ATOM     24  C   UNL     1      10.664  15.124  25.188  0.00  0.00    +0.001 A 
ENDBRANCH  13  15
BRANCH   3  11
ATOM     11  C   UNL     1      11.331   8.126  19.897  0.00  0.00    +0.123 C 
BRANCH  11   5
ATOM      2  N   UNL     1      13.446   7.426  18.746  0.00  0.00    -0.297 NA
ATOM      4  C   UNL     1      14.008   9.816  17.882  0.00  0.00    +0.008 C 
ATOM      5  C   UNL     1      12.202   8.236  18.643  0.00  0.00    +0.074 C 
ATOM      6  C   UNL     1      12.526   9.705  18.295  0.00  0.00    +0.025 C 
ATOM      7  C   UNL     1      14.897   9.441  19.089  0.00  0.00    +0.081 C 
ATOM      8  C   UNL     1      14.261   8.757  16.793  0.00  0.00    +0.020 C 
ATOM      9  C   UNL     1      14.416   8.087  19.654  0.00  0.00    +0.101 C 
ATOM     10  C   UNL     1      14.054   7.355  17.394  0.00  0.00    +0.085 C 
BRANCH   7  12
ATOM     12  C   UNL     1      14.895  10.489  20.122  0.00  0.00    -0.101 C 
ATOM     14  C   UNL     1      14.895  11.345  20.964  0.00  0.00    +0.004 C 
ENDBRANCH   7  12
ENDBRANCH  11   5
ENDBRANCH   3  11
TORSDOF 4
ENDMDL
MODEL 8
REMARK VINA RESULT:      -6.3     26.909     28.894
REMARK  Name = 11943404
REMARK  4 active torsions:
REMARK  status: ('A' for Active; 'I' for Inactive)
REMARK    1  A    between atoms: N_3  and  C_11
REMARK    2  A    between atoms: C_5  and  C_11
REMARK    3  A    between atoms: C_7  and  C_12
REMARK    4  A    between atoms: C_13  and  C_15
REMARK                            x       y       z     vdW  Elec       q    Type
REMARK                         _______ _______ _______ _____ _____    ______ ____
ROOT
ATOM      1  O   UNL     1      -2.912 -12.498  14.312  0.00  0.00    -0.270 OA
ATOM      3  N   UNL     1      -3.092 -10.429  15.337  0.00  0.00    -0.310 N 
ATOM     13  C   UNL     1      -3.118 -11.287  14.268  0.00  0.00    +0.244 C 
ATOM     25  H   UNL     1      -3.193  -9.427  15.221  0.00  0.00    +0.149 HD
ENDROOT
BRANCH  13  15
ATOM     15  C   UNL     1      -3.400 -10.647  12.957  0.00  0.00    +0.037 A 
ATOM     16  C   UNL     1      -4.698 -10.293  12.653  0.00  0.00    +0.021 A 
ATOM     17  C   UNL     1      -2.354 -10.429  12.087  0.00  0.00    +0.013 A 
ATOM     18  C   UNL     1      -4.979  -9.686  11.419  0.00  0.00    -0.017 A 
ATOM     19  C   UNL     1      -3.922  -9.450  10.506  0.00  0.00    -0.018 A 
ATOM     20  C   UNL     1      -2.616  -9.827  10.857  0.00  0.00    +0.009 A 
ATOM     21  C   UNL     1      -6.285  -9.309  11.068  0.00  0.00    +0.008 A 
ATOM     22  C   UNL     1      -4.204  -8.843   9.271  0.00  0.00    +0.008 A 
ATOM     23  C   UNL     1      -6.547  -8.708   9.837  0.00  0.00    +0.001 A 
ATOM     24  C   UNL     1      -5.508  -8.475   8.940  0.00  0.00    +0.001 A 
ENDBRANCH  13  15
BRANCH   3  11
ATOM     11  C   UNL     1      -2.800 -10.906  16.698  0.00  0.00    +0.123 C 
BRANCH  11   5
ATOM      2  N   UNL     1      -4.402 -11.911  18.344  0.00  0.00    -0.297 NA
ATOM      4  C   UNL     1      -6.515 -10.883  17.225  0.00  0.00    +0.008 C 
ATOM      5  C   UNL     1      -4.030 -10.689  17.582  0.00  0.00    +0.074 C 
ATOM      6  C   UNL     1      -5.232 -10.156  16.772  0.00  0.00    +0.025 C 
ATOM      7  C   UNL     1      -6.387 -12.386  16.888  0.00  0.00    +0.081 C 
ATOM      8  C   UNL     1      -6.588 -10.772  18.759  0.00  0.00    +0.020 C 
ATOM      9  C   UNL     1      -5.043 -12.903  17.444  0.00  0.00    +0.101 C 
ATOM     10  C   UNL     1      -5.393 -11.519  19.378  0.00  0.00    +0.085 C 
BRANCH   7  12
ATOM     12  C   UNL     1      -6.508 -12.640  15.444  0.00  0.00    -0.101 C 
ATOM     14  C   UNL     1      -6.609 -12.846  14.266  0.00  0.00    +0.004 C 
ENDBRANCH   7  12
ENDBRANCH  11   5
ENDBRANCH   3  11
TORSDOF 4
ENDMDL
MODEL 9
REMARK VINA RESULT:      -6.3     16.405     19.465
REMARK  Name = 11943404
REMARK  4 active torsions:
REMARK  status: ('A' for Active; 'I' for Inactive)
REMARK    1  A    between atoms: N_3  and  C_11
REMARK    2  A    between atoms: C_5  and  C_11
REMARK    3  A    between atoms: C_7  and  C_12
REMARK    4  A    between atoms: C_13  and  C_15
REMARK                            x       y       z     vdW  Elec       q    Type
REMARK                         _______ _______ _______ _____ _____    ______ ____
ROOT
ATOM      1  O   UNL     1       9.809   6.470   2.305  0.00  0.00    -0.270 OA
ATOM      3  N   UNL     1      10.855   4.482   2.867  0.00  0.00    -0.310 N 
ATOM     13  C   UNL     1      10.163   5.636   3.134  0.00  0.00    +0.244 C 
ATOM     25  H   UNL     1      11.186   3.873   3.607  0.00  0.00    +0.149 HD
ENDROOT
BRANCH  13  15
ATOM     15  C   UNL     1       9.860   5.867   4.571  0.00  0.00    +0.037 A 
ATOM     16  C   UNL     1       9.988   4.817   5.456  0.00  0.00    +0.021 A 
ATOM     17  C   UNL     1       9.462   7.123   4.970  0.00  0.00    +0.013 A 
ATOM     18  C   UNL     1       9.706   5.020   6.816  0.00  0.00    -0.017 A 
ATOM     19  C   UNL     1       9.295   6.302   7.255  0.00  0.00    -0.018 A 
ATOM     20  C   UNL     1       9.179   7.342   6.319  0.00  0.00    +0.009 A 
ATOM     21  C   UNL     1       9.823   3.980   7.752  0.00  0.00    +0.008 A 
ATOM     22  C   UNL     1       9.014   6.505   8.615  0.00  0.00    +0.008 A 
ATOM     23  C   UNL     1       9.539   4.199   9.100  0.00  0.00    +0.001 A 
ATOM     24  C   UNL     1       9.134   5.459   9.531  0.00  0.00    +0.001 A 
ENDBRANCH  13  15
BRANCH   3  11
ATOM     11  C   UNL     1      11.252   4.124   1.496  0.00  0.00    +0.123 C 
BRANCH  11   5
ATOM      2  N   UNL     1      12.873   5.749   0.484  0.00  0.00    -0.297 NA
ATOM      4  C   UNL     1      14.465   3.904  -0.430  0.00  0.00    +0.008 C 
ATOM      5  C   UNL     1      12.720   4.503   1.283  0.00  0.00    +0.074 C 
ATOM      6  C   UNL     1      13.527   3.344   0.659  0.00  0.00    +0.025 C 
ATOM      7  C   UNL     1      13.612   4.511  -1.566  0.00  0.00    +0.081 C 
ATOM      8  C   UNL     1      15.260   5.063   0.201  0.00  0.00    +0.020 C 
ATOM      9  C   UNL     1      12.583   5.480  -0.947  0.00  0.00    +0.101 C 
ATOM     10  C   UNL     1      14.286   6.188   0.594  0.00  0.00    +0.085 C 
BRANCH   7  12
ATOM     12  C   UNL     1      12.957   3.473  -2.378  0.00  0.00    -0.101 C 
ATOM     14  C   UNL     1      12.421   2.627  -3.040  0.00  0.00    +0.004 C 
ENDBRANCH   7  12
ENDBRANCH  11   5
ENDBRANCH   3  11
TORSDOF 4
ENDMDL
MODEL 10
REMARK VINA RESULT:      -6.3     27.727     29.288
REMARK  Name = 11943404
REMARK  4 active torsions:
REMARK  status: ('A' for Active; 'I' for Inactive)
REMARK    1  A    between atoms: N_3  and  C_11
REMARK    2  A    between atoms: C_5  and  C_11
REMARK    3  A    between atoms: C_7  and  C_12
REMARK    4  A    between atoms: C_13  and  C_15
REMARK                            x       y       z     vdW  Elec       q    Type
REMARK                         _______ _______ _______ _____ _____    ______ ____
ROOT
ATOM      1  O   UNL     1     -14.228  11.715  21.314  0.00  0.00    -0.270 OA
ATOM      3  N   UNL     1     -11.965  11.246  21.171  0.00  0.00    -0.310 N 
ATOM     13  C   UNL     1     -13.165  11.368  21.823  0.00  0.00    +0.244 C 
ATOM     25  H   UNL     1     -11.107  11.030  21.665  0.00  0.00    +0.149 HD
ENDROOT
BRANCH  13  15
ATOM     15  C   UNL     1     -13.121  11.069  23.278  0.00  0.00    +0.037 A 
ATOM     16  C   UNL     1     -11.898  11.032  23.914  0.00  0.00    +0.021 A 
ATOM     17  C   UNL     1     -14.305  10.838  23.943  0.00  0.00    +0.013 A 
ATOM     18  C   UNL     1     -11.841  10.751  25.288  0.00  0.00    -0.017 A 
ATOM     19  C   UNL     1     -13.043  10.511  25.997  0.00  0.00    -0.018 A 
ATOM     20  C   UNL     1     -14.266  10.558  25.309  0.00  0.00    +0.009 A 
ATOM     21  C   UNL     1     -10.618  10.703  25.977  0.00  0.00    +0.008 A 
ATOM     22  C   UNL     1     -12.986  10.230  27.371  0.00  0.00    +0.008 A 
ATOM     23  C   UNL     1     -10.579  10.423  27.343  0.00  0.00    +0.001 A 
ATOM     24  C   UNL     1     -11.761  10.186  28.039  0.00  0.00    +0.001 A 
ENDBRANCH  13  15
BRANCH   3  11
ATOM     11  C   UNL     1     -11.839  11.534  19.733  0.00  0.00    +0.123 C 
BRANCH  11   5
ATOM      2  N   UNL     1     -12.355   9.757  18.041  0.00  0.00    -0.297 NA
ATOM      4  C   UNL     1     -11.439   7.810  19.505  0.00  0.00    +0.008 C 
ATOM      5  C   UNL     1     -11.352  10.276  19.009  0.00  0.00    +0.074 C 
ATOM      6  C   UNL     1     -10.917   9.175  20.000  0.00  0.00    +0.025 C 
ATOM      7  C   UNL     1     -12.984   7.827  19.512  0.00  0.00    +0.081 C 
ATOM      8  C   UNL     1     -10.999   7.656  18.037  0.00  0.00    +0.020 C 
ATOM      9  C   UNL     1     -13.466   9.087  18.762  0.00  0.00    +0.101 C 
ATOM     10  C   UNL     1     -11.681   8.745  17.188  0.00  0.00    +0.085 C 
BRANCH   7  12
ATOM     12  C   UNL     1     -13.529   7.770  20.878  0.00  0.00    -0.101 C 
ATOM     14  C   UNL     1     -13.973   7.721  21.992  0.00  0.00    +0.004 C 
ENDBRANCH   7  12
ENDBRANCH  11   5
ENDBRANCH   3  11
TORSDOF 4
ENDMDL
