MODEL 1
REMARK VINA RESULT:      -7.2      0.000      0.000
REMARK  Name = 38029729
REMARK  15 active torsions:
REMARK  status: ('A' for Active; 'I' for Inactive)
REMARK    1  A    between atoms: S_1  and  N_7
REMARK    2  A    between atoms: S_1  and  C_22
REMARK    3  A    between atoms: O_2  and  C_21
REMARK    4  A    between atoms: O_2  and  C_23
REMARK    5  A    between atoms: N_7  and  C_16
REMARK    6  A    between atoms: N_8  and  C_29
REMARK    7  A    between atoms: C_9  and  C_13
REMARK    8  A    between atoms: C_10  and  C_16
REMARK    9  A    between atoms: C_12  and  C_17
REMARK   10  A    between atoms: C_13  and  C_18
REMARK   11  A    between atoms: C_13  and  C_19
REMARK   12  A    between atoms: C_14  and  C_20
REMARK   13  A    between atoms: C_17  and  C_21
REMARK   14  A    between atoms: C_23  and  C_28
REMARK   15  A    between atoms: C_30  and  C_31
REMARK                            x       y       z     vdW  Elec       q    Type
REMARK                         _______ _______ _______ _____ _____    ______ ____
ROOT
ATOM     16  C   UNL     1      14.441   7.616  21.540  0.00  0.00    +0.113 C 
ENDROOT
BRANCH  16  10
ATOM      9  C   UNL     1      16.669   8.836  21.649  0.00  0.00    +0.000 C 
ATOM     10  C   UNL     1      15.694   8.028  20.757  0.00  0.00    +0.030 C 
ATOM     11  C   UNL     1      18.067   8.876  21.014  0.00  0.00    +0.012 C 
ATOM     12  C   UNL     1      18.652   7.467  20.802  0.00  0.00    +0.025 C 
ATOM     14  C   UNL     1      17.646   6.530  20.165  0.00  0.00    -0.073 C 
ATOM     15  C   UNL     1      16.330   6.803  20.143  0.00  0.00    -0.023 C 
ATOM     20  C   UNL     1      18.193   5.290  19.513  0.00  0.00    +0.039 C 
BRANCH   9  13
ATOM     13  C   UNL     1      16.169  10.263  21.892  0.00  0.00    -0.013 C 
ATOM     18  C   UNL     1      15.598  10.853  20.607  0.00  0.00    +0.007 C 
ATOM     19  C   UNL     1      17.296  11.137  22.434  0.00  0.00    +0.007 C 
ENDBRANCH   9  13
BRANCH  12  17
ATOM     17  C   UNL     1      19.186   6.887  22.117  0.00  0.00    +0.128 C 
BRANCH  17  21
ATOM      3  O   UNL     1      21.272   6.425  20.957  0.00  0.00    -0.251 OA
ATOM     21  C   UNL     1      20.565   6.308  21.947  0.00  0.00    +0.308 C 
BRANCH  21   2
ATOM      2  O   UNL     1      20.890   5.630  23.088  0.00  0.00    -0.465 OA
BRANCH   2  23
ATOM     23  C   UNL     1      22.223   5.835  23.569  0.00  0.00    +0.229 C 
ATOM     28  C   UNL     1      23.037   4.585  23.311  0.00  0.00    +0.048 C 
ENDBRANCH   2  23
ENDBRANCH  21   2
ENDBRANCH  17  21
ENDBRANCH  12  17
ENDBRANCH  16  10
BRANCH  16   7
ATOM      7  N   UNL     1      13.729   6.570  20.788  0.00  0.00    -0.189 NA
ATOM     32  H   UNL     1      14.304   5.920  20.240  0.00  0.00    +0.148 HD
BRANCH   7   1
ATOM      1  S   UNL     1      12.120   6.821  20.287  0.00  0.00    +0.058 S 
ATOM      4  O   UNL     1      11.291   5.736  20.776  0.00  0.00    -0.153 OA
ATOM      5  O   UNL     1      12.110   7.169  18.879  0.00  0.00    -0.153 OA
BRANCH   1  22
ATOM     22  C   UNL     1      11.688   8.282  21.182  0.00  0.00    +0.105 A 
ATOM     24  C   UNL     1      12.086   9.534  20.710  0.00  0.00    +0.030 A 
ATOM     25  C   UNL     1      10.950   8.185  22.361  0.00  0.00    +0.030 A 
ATOM     26  C   UNL     1      11.745  10.687  21.417  0.00  0.00    +0.025 A 
ATOM     27  C   UNL     1      10.609   9.338  23.069  0.00  0.00    +0.025 A 
ATOM     29  C   UNL     1      11.007  10.589  22.597  0.00  0.00    +0.033 A 
BRANCH  29   8
ATOM      6  O   UNL     1      11.697  11.442  25.401  0.00  0.00    -0.276 OA
ATOM      8  N   UNL     1      10.665  11.742  23.303  0.00  0.00    -0.286 N 
ATOM     30  C   UNL     1      11.014  12.090  24.614  0.00  0.00    +0.214 C 
ATOM     31  C   UNL     1      10.442  13.428  25.011  0.00  0.00    +0.109 C 
ATOM     33  H   UNL     1      10.089  12.409  22.792  0.00  0.00    +0.155 HD
ENDBRANCH  29   8
ENDBRANCH   1  22
ENDBRANCH   7   1
ENDBRANCH  16   7
TORSDOF 10
ENDMDL
MODEL 2
REMARK VINA RESULT:      -6.7      2.854      4.612
REMARK  Name = 38029729
REMARK  15 active torsions:
REMARK  status: ('A' for Active; 'I' for Inactive)
REMARK    1  A    between atoms: S_1  and  N_7
REMARK    2  A    between atoms: S_1  and  C_22
REMARK    3  A    between atoms: O_2  and  C_21
REMARK    4  A    between atoms: O_2  and  C_23
REMARK    5  A    between atoms: N_7  and  C_16
REMARK    6  A    between atoms: N_8  and  C_29
REMARK    7  A    between atoms: C_9  and  C_13
REMARK    8  A    between atoms: C_10  and  C_16
REMARK    9  A    between atoms: C_12  and  C_17
REMARK   10  A    between atoms: C_13  and  C_18
REMARK   11  A    between atoms: C_13  and  C_19
REMARK   12  A    between atoms: C_14  and  C_20
REMARK   13  A    between atoms: C_17  and  C_21
REMARK   14  A    between atoms: C_23  and  C_28
REMARK   15  A    between atoms: C_30  and  C_31
REMARK                            x       y       z     vdW  Elec       q    Type
REMARK                         _______ _______ _______ _____ _____    ______ ____
ROOT
ATOM     16  C   UNL     1      13.382   7.611  18.940  0.00  0.00    +0.113 C 
ENDROOT
BRANCH  16  10
ATOM      9  C   UNL     1      14.403   9.930  19.141  0.00  0.00    +0.000 C 
ATOM     10  C   UNL     1      14.671   8.435  18.837  0.00  0.00    +0.030 C 
ATOM     11  C   UNL     1      15.720  10.658  19.453  0.00  0.00    +0.012 C 
ATOM     12  C   UNL     1      16.458  10.039  20.655  0.00  0.00    +0.025 C 
ATOM     14  C   UNL     1      16.526   8.529  20.557  0.00  0.00    -0.073 C 
ATOM     15  C   UNL     1      15.729   7.830  19.729  0.00  0.00    -0.023 C 
ATOM     20  C   UNL     1      17.564   7.841  21.399  0.00  0.00    +0.039 C 
BRANCH   9  13
ATOM     13  C   UNL     1      13.687  10.628  17.982  0.00  0.00    -0.013 C 
ATOM     18  C   UNL     1      14.358  10.283  16.657  0.00  0.00    +0.007 C 
ATOM     19  C   UNL     1      13.665  12.138  18.200  0.00  0.00    +0.007 C 
ENDBRANCH   9  13
BRANCH  12  17
ATOM     17  C   UNL     1      15.819  10.474  21.979  0.00  0.00    +0.128 C 
BRANCH  17  21
ATOM      3  O   UNL     1      17.631  11.782  22.939  0.00  0.00    -0.251 OA
ATOM     21  C   UNL     1      16.480  11.709  22.533  0.00  0.00    +0.308 C 
BRANCH  21   2
ATOM      2  O   UNL     1      15.573  12.731  22.505  0.00  0.00    -0.465 OA
BRANCH   2  23
ATOM     23  C   UNL     1      15.845  13.770  21.559  0.00  0.00    +0.229 C 
ATOM     28  C   UNL     1      14.534  14.334  21.056  0.00  0.00    +0.048 C 
ENDBRANCH   2  23
ENDBRANCH  21   2
ENDBRANCH  17  21
ENDBRANCH  12  17
ENDBRANCH  16  10
BRANCH  16   7
ATOM      7  N   UNL     1      12.834   7.744  20.300  0.00  0.00    -0.189 NA
ATOM     32  H   UNL     1      13.318   7.233  21.047  0.00  0.00    +0.148 HD
BRANCH   7   1
ATOM      1  S   UNL     1      11.185   8.105  20.526  0.00  0.00    +0.058 S 
ATOM      4  O   UNL     1      10.560   7.035  21.281  0.00  0.00    -0.153 OA
ATOM      5  O   UNL     1      10.614   8.536  19.265  0.00  0.00    -0.153 OA
BRANCH   1  22
ATOM     22  C   UNL     1      11.268   9.530  21.569  0.00  0.00    +0.105 A 
ATOM     24  C   UNL     1      11.770  10.732  21.070  0.00  0.00    +0.030 A 
ATOM     25  C   UNL     1      10.831   9.452  22.892  0.00  0.00    +0.030 A 
ATOM     26  C   UNL     1      11.835  11.856  21.893  0.00  0.00    +0.025 A 
ATOM     27  C   UNL     1      10.897  10.576  23.715  0.00  0.00    +0.025 A 
ATOM     29  C   UNL     1      11.399  11.778  23.216  0.00  0.00    +0.033 A 
BRANCH  29   8
ATOM      6  O   UNL     1       9.485  14.081  23.534  0.00  0.00    -0.276 OA
ATOM      8  N   UNL     1      11.464  12.903  24.039  0.00  0.00    -0.286 N 
ATOM     30  C   UNL     1      10.540  13.951  24.146  0.00  0.00    +0.214 C 
ATOM     31  C   UNL     1      10.979  14.984  25.154  0.00  0.00    +0.109 C 
ATOM     33  H   UNL     1      12.290  12.960  24.632  0.00  0.00    +0.155 HD
ENDBRANCH  29   8
ENDBRANCH   1  22
ENDBRANCH   7   1
ENDBRANCH  16   7
TORSDOF 10
ENDMDL
MODEL 3
REMARK VINA RESULT:      -6.6      3.141      4.820
REMARK  Name = 38029729
REMARK  15 active torsions:
REMARK  status: ('A' for Active; 'I' for Inactive)
REMARK    1  A    between atoms: S_1  and  N_7
REMARK    2  A    between atoms: S_1  and  C_22
REMARK    3  A    between atoms: O_2  and  C_21
REMARK    4  A    between atoms: O_2  and  C_23
REMARK    5  A    between atoms: N_7  and  C_16
REMARK    6  A    between atoms: N_8  and  C_29
REMARK    7  A    between atoms: C_9  and  C_13
REMARK    8  A    between atoms: C_10  and  C_16
REMARK    9  A    between atoms: C_12  and  C_17
REMARK   10  A    between atoms: C_13  and  C_18
REMARK   11  A    between atoms: C_13  and  C_19
REMARK   12  A    between atoms: C_14  and  C_20
REMARK   13  A    between atoms: C_17  and  C_21
REMARK   14  A    between atoms: C_23  and  C_28
REMARK   15  A    between atoms: C_30  and  C_31
REMARK                            x       y       z     vdW  Elec       q    Type
REMARK                         _______ _______ _______ _____ _____    ______ ____
ROOT
ATOM     16  C   UNL     1      13.848   7.627  21.260  0.00  0.00    +0.113 C 
ENDROOT
BRANCH  16  10
ATOM      9  C   UNL     1      15.971   9.018  21.412  0.00  0.00    +0.000 C 
ATOM     10  C   UNL     1      15.084   8.130  20.504  0.00  0.00    +0.030 C 
ATOM     11  C   UNL     1      17.377   9.162  20.812  0.00  0.00    +0.012 C 
ATOM     12  C   UNL     1      18.075   7.801  20.627  0.00  0.00    +0.025 C 
ATOM     14  C   UNL     1      17.161   6.785  19.974  0.00  0.00    -0.073 C 
ATOM     15  C   UNL     1      15.828   6.955  19.917  0.00  0.00    -0.023 C 
ATOM     20  C   UNL     1      17.819   5.587  19.346  0.00  0.00    +0.039 C 
BRANCH   9  13
ATOM     13  C   UNL     1      15.356  10.403  21.631  0.00  0.00    -0.013 C 
ATOM     18  C   UNL     1      16.283  11.488  21.092  0.00  0.00    +0.007 C 
ATOM     19  C   UNL     1      15.062  10.629  23.111  0.00  0.00    +0.007 C 
ENDBRANCH   9  13
BRANCH  12  17
ATOM     17  C   UNL     1      18.619   7.274  21.960  0.00  0.00    +0.128 C 
BRANCH  17  21
ATOM      3  O   UNL     1      20.776   6.983  20.876  0.00  0.00    -0.251 OA
ATOM     21  C   UNL     1      20.030   6.767  21.820  0.00  0.00    +0.308 C 
BRANCH  21   2
ATOM      2  O   UNL     1      20.331   6.024  22.927  0.00  0.00    -0.465 OA
BRANCH   2  23
ATOM     23  C   UNL     1      21.638   6.235  23.473  0.00  0.00    +0.229 C 
ATOM     28  C   UNL     1      22.435   4.954  23.353  0.00  0.00    +0.048 C 
ENDBRANCH   2  23
ENDBRANCH  21   2
ENDBRANCH  17  21
ENDBRANCH  12  17
ENDBRANCH  16  10
BRANCH  16   7
ATOM      7  N   UNL     1      12.668   8.378  20.802  0.00  0.00    -0.189 NA
ATOM     32  H   UNL     1      12.086   8.814  21.527  0.00  0.00    +0.148 HD
BRANCH   7   1
ATOM      1  S   UNL     1      11.925   7.985  19.320  0.00  0.00    +0.058 S 
ATOM      4  O   UNL     1      10.570   8.503  19.312  0.00  0.00    -0.153 OA
ATOM      5  O   UNL     1      12.175   6.589  19.018  0.00  0.00    -0.153 OA
BRANCH   1  22
ATOM     22  C   UNL     1      12.878   8.938  18.176  0.00  0.00    +0.105 A 
ATOM     24  C   UNL     1      13.094  10.297  18.409  0.00  0.00    +0.030 A 
ATOM     25  C   UNL     1      13.415   8.332  17.040  0.00  0.00    +0.030 A 
ATOM     26  C   UNL     1      13.846  11.049  17.506  0.00  0.00    +0.025 A 
ATOM     27  C   UNL     1      14.167   9.083  16.137  0.00  0.00    +0.025 A 
ATOM     29  C   UNL     1      14.382  10.442  16.370  0.00  0.00    +0.033 A 
BRANCH  29   8
ATOM      6  O   UNL     1      13.637  11.609  13.696  0.00  0.00    -0.276 OA
ATOM      8  N   UNL     1      15.135  11.194  15.468  0.00  0.00    -0.286 N 
ATOM     30  C   UNL     1      14.736  11.713  14.230  0.00  0.00    +0.214 C 
ATOM     31  C   UNL     1      15.852  12.472  13.555  0.00  0.00    +0.109 C 
ATOM     33  H   UNL     1      16.094  11.383  15.755  0.00  0.00    +0.155 HD
ENDBRANCH  29   8
ENDBRANCH   1  22
ENDBRANCH   7   1
ENDBRANCH  16   7
TORSDOF 10
ENDMDL
MODEL 4
REMARK VINA RESULT:      -6.6      2.464      3.403
REMARK  Name = 38029729
REMARK  15 active torsions:
REMARK  status: ('A' for Active; 'I' for Inactive)
REMARK    1  A    between atoms: S_1  and  N_7
REMARK    2  A    between atoms: S_1  and  C_22
REMARK    3  A    between atoms: O_2  and  C_21
REMARK    4  A    between atoms: O_2  and  C_23
REMARK    5  A    between atoms: N_7  and  C_16
REMARK    6  A    between atoms: N_8  and  C_29
REMARK    7  A    between atoms: C_9  and  C_13
REMARK    8  A    between atoms: C_10  and  C_16
REMARK    9  A    between atoms: C_12  and  C_17
REMARK   10  A    between atoms: C_13  and  C_18
REMARK   11  A    between atoms: C_13  and  C_19
REMARK   12  A    between atoms: C_14  and  C_20
REMARK   13  A    between atoms: C_17  and  C_21
REMARK   14  A    between atoms: C_23  and  C_28
REMARK   15  A    between atoms: C_30  and  C_31
REMARK                            x       y       z     vdW  Elec       q    Type
REMARK                         _______ _______ _______ _____ _____    ______ ____
ROOT
ATOM     16  C   UNL     1      12.865   6.661  19.625  0.00  0.00    +0.113 C 
ENDROOT
BRANCH  16  10
ATOM      9  C   UNL     1      14.184   8.810  19.301  0.00  0.00    +0.000 C 
ATOM     10  C   UNL     1      14.191   7.269  19.150  0.00  0.00    +0.030 C 
ATOM     11  C   UNL     1      15.617   9.361  19.236  0.00  0.00    +0.012 C 
ATOM     12  C   UNL     1      16.522   8.766  20.332  0.00  0.00    +0.025 C 
ATOM     14  C   UNL     1      16.378   7.260  20.423  0.00  0.00    -0.073 C 
ATOM     15  C   UNL     1      15.337   6.607  19.878  0.00  0.00    -0.023 C 
ATOM     20  C   UNL     1      17.485   6.516  21.117  0.00  0.00    +0.039 C 
BRANCH   9  13
ATOM     13  C   UNL     1      13.321   9.484  18.232  0.00  0.00    -0.013 C 
ATOM     18  C   UNL     1      13.758   9.044  16.839  0.00  0.00    +0.007 C 
ATOM     19  C   UNL     1      13.393  11.002  18.367  0.00  0.00    +0.007 C 
ENDBRANCH   9  13
BRANCH  12  17
ATOM     17  C   UNL     1      16.252   9.426  21.688  0.00  0.00    +0.128 C 
BRANCH  17  21
ATOM      3  O   UNL     1      17.115  11.465  22.694  0.00  0.00    -0.251 OA
ATOM     21  C   UNL     1      17.294  10.463  22.016  0.00  0.00    +0.308 C 
BRANCH  21   2
ATOM      2  O   UNL     1      18.470  10.092  21.428  0.00  0.00    -0.465 OA
BRANCH   2  23
ATOM     23  C   UNL     1      19.522   9.729  22.328  0.00  0.00    +0.229 C 
ATOM     28  C   UNL     1      20.475   8.789  21.621  0.00  0.00    +0.048 C 
ENDBRANCH   2  23
ENDBRANCH  21   2
ENDBRANCH  17  21
ENDBRANCH  12  17
ENDBRANCH  16  10
BRANCH  16   7
ATOM      7  N   UNL     1      12.527   7.219  20.944  0.00  0.00    -0.189 NA
ATOM     32  H   UNL     1      12.999   6.807  21.757  0.00  0.00    +0.148 HD
BRANCH   7   1
ATOM      1  S   UNL     1      11.013   7.958  21.199  0.00  0.00    +0.058 S 
ATOM      4  O   UNL     1      10.205   7.110  22.054  0.00  0.00    -0.153 OA
ATOM      5  O   UNL     1      10.491   8.422  19.928  0.00  0.00    -0.153 OA
BRANCH   1  22
ATOM     22  C   UNL     1      11.465   9.394  22.126  0.00  0.00    +0.105 A 
ATOM     24  C   UNL     1      12.720   9.976  21.944  0.00  0.00    +0.030 A 
ATOM     25  C   UNL     1      10.566   9.945  23.039  0.00  0.00    +0.030 A 
ATOM     26  C   UNL     1      13.076  11.109  22.677  0.00  0.00    +0.025 A 
ATOM     27  C   UNL     1      10.922  11.078  23.771  0.00  0.00    +0.025 A 
ATOM     29  C   UNL     1      12.176  11.660  23.590  0.00  0.00    +0.033 A 
BRANCH  29   8
ATOM      6  O   UNL     1      11.417  14.549  23.211  0.00  0.00    -0.276 OA
ATOM      8  N   UNL     1      12.532  12.793  24.321  0.00  0.00    -0.286 N 
ATOM     30  C   UNL     1      12.149  14.122  24.098  0.00  0.00    +0.214 C 
ATOM     31  C   UNL     1      12.752  15.058  25.116  0.00  0.00    +0.109 C 
ATOM     33  H   UNL     1      13.149  12.623  25.114  0.00  0.00    +0.155 HD
ENDBRANCH  29   8
ENDBRANCH   1  22
ENDBRANCH   7   1
ENDBRANCH  16   7
TORSDOF 10
ENDMDL
MODEL 5
REMARK VINA RESULT:      -6.5     27.877     31.634
REMARK  Name = 38029729
REMARK  15 active torsions:
REMARK  status: ('A' for Active; 'I' for Inactive)
REMARK    1  A    between atoms: S_1  and  N_7
REMARK    2  A    between atoms: S_1  and  C_22
REMARK    3  A    between atoms: O_2  and  C_21
REMARK    4  A    between atoms: O_2  and  C_23
REMARK    5  A    between atoms: N_7  and  C_16
REMARK    6  A    between atoms: N_8  and  C_29
REMARK    7  A    between atoms: C_9  and  C_13
REMARK    8  A    between atoms: C_10  and  C_16
REMARK    9  A    between atoms: C_12  and  C_17
REMARK   10  A    between atoms: C_13  and  C_18
REMARK   11  A    between atoms: C_13  and  C_19
REMARK   12  A    between atoms: C_14  and  C_20
REMARK   13  A    between atoms: C_17  and  C_21
REMARK   14  A    between atoms: C_23  and  C_28
REMARK   15  A    between atoms: C_30  and  C_31
REMARK                            x       y       z     vdW  Elec       q    Type
REMARK                         _______ _______ _______ _____ _____    ______ ____
ROOT
ATOM     16  C   UNL     1      -9.577 -10.598  19.476  0.00  0.00    +0.113 C 
ENDROOT
BRANCH  16  10
ATOM      9  C   UNL     1     -11.779  -9.775  18.507  0.00  0.00    +0.000 C 
ATOM     10  C   UNL     1     -10.522 -10.649  18.269  0.00  0.00    +0.030 C 
ATOM     11  C   UNL     1     -12.492  -9.490  17.177  0.00  0.00    +0.012 C 
ATOM     12  C   UNL     1     -11.579  -8.768  16.168  0.00  0.00    +0.025 C 
ATOM     14  C   UNL     1     -10.214  -9.420  16.078  0.00  0.00    -0.073 C 
ATOM     15  C   UNL     1      -9.764 -10.268  17.020  0.00  0.00    -0.023 C 
ATOM     20  C   UNL     1      -9.395  -9.111  14.856  0.00  0.00    +0.039 C 
BRANCH   9  13
ATOM     13  C   UNL     1     -12.754 -10.434  19.487  0.00  0.00    -0.013 C 
ATOM     18  C   UNL     1     -14.106 -10.662  18.820  0.00  0.00    +0.007 C 
ATOM     19  C   UNL     1     -12.907  -9.580  20.742  0.00  0.00    +0.007 C 
ENDBRANCH   9  13
BRANCH  12  17
ATOM     17  C   UNL     1     -11.453  -7.278  16.505  0.00  0.00    +0.128 C 
BRANCH  17  21
ATOM      3  O   UNL     1     -13.550  -6.229  15.859  0.00  0.00    -0.251 OA
ATOM     21  C   UNL     1     -12.364  -6.438  15.648  0.00  0.00    +0.308 C 
BRANCH  21   2
ATOM      2  O   UNL     1     -11.638  -5.951  14.598  0.00  0.00    -0.465 OA
BRANCH   2  23
ATOM     23  C   UNL     1     -12.371  -5.746  13.386  0.00  0.00    +0.229 C 
ATOM     28  C   UNL     1     -12.408  -4.264  13.077  0.00  0.00    +0.048 C 
ENDBRANCH   2  23
ENDBRANCH  21   2
ENDBRANCH  17  21
ENDBRANCH  12  17
ENDBRANCH  16  10
BRANCH  16   7
ATOM      7  N   UNL     1      -8.222 -10.264  19.010  0.00  0.00    -0.189 NA
ATOM     32  H   UNL     1      -8.152  -9.706  18.151  0.00  0.00    +0.148 HD
BRANCH   7   1
ATOM      1  S   UNL     1      -6.906 -11.269  19.410  0.00  0.00    +0.058 S 
ATOM      4  O   UNL     1      -7.332 -12.656  19.361  0.00  0.00    -0.153 OA
ATOM      5  O   UNL     1      -6.253 -10.749  20.596  0.00  0.00    -0.153 OA
BRANCH   1  22
ATOM     22  C   UNL     1      -5.811 -10.988  18.052  0.00  0.00    +0.105 A 
ATOM     24  C   UNL     1      -6.248 -10.265  16.942  0.00  0.00    +0.030 A 
ATOM     25  C   UNL     1      -4.510 -11.490  18.090  0.00  0.00    +0.030 A 
ATOM     26  C   UNL     1      -5.383 -10.043  15.869  0.00  0.00    +0.025 A 
ATOM     27  C   UNL     1      -3.645 -11.269  17.018  0.00  0.00    +0.025 A 
ATOM     29  C   UNL     1      -4.082 -10.545  15.907  0.00  0.00    +0.033 A 
BRANCH  29   8
ATOM      6  O   UNL     1      -3.899 -11.904  13.226  0.00  0.00    -0.276 OA
ATOM      8  N   UNL     1      -3.217 -10.322  14.835  0.00  0.00    -0.286 N 
ATOM     30  C   UNL     1      -3.175 -10.989  13.604  0.00  0.00    +0.214 C 
ATOM     31  C   UNL     1      -2.087 -10.448  12.711  0.00  0.00    +0.109 C 
ATOM     33  H   UNL     1      -2.534  -9.580  14.976  0.00  0.00    +0.155 HD
ENDBRANCH  29   8
ENDBRANCH   1  22
ENDBRANCH   7   1
ENDBRANCH  16   7
TORSDOF 10
ENDMDL
MODEL 6
REMARK VINA RESULT:      -6.4     27.979     30.263
REMARK  Name = 38029729
REMARK  15 active torsions:
REMARK  status: ('A' for Active; 'I' for Inactive)
REMARK    1  A    between atoms: S_1  and  N_7
REMARK    2  A    between atoms: S_1  and  C_22
REMARK    3  A    between atoms: O_2  and  C_21
REMARK    4  A    between atoms: O_2  and  C_23
REMARK    5  A    between atoms: N_7  and  C_16
REMARK    6  A    between atoms: N_8  and  C_29
REMARK    7  A    between atoms: C_9  and  C_13
REMARK    8  A    between atoms: C_10  and  C_16
REMARK    9  A    between atoms: C_12  and  C_17
REMARK   10  A    between atoms: C_13  and  C_18
REMARK   11  A    between atoms: C_13  and  C_19
REMARK   12  A    between atoms: C_14  and  C_20
REMARK   13  A    between atoms: C_17  and  C_21
REMARK   14  A    between atoms: C_23  and  C_28
REMARK   15  A    between atoms: C_30  and  C_31
REMARK                            x       y       z     vdW  Elec       q    Type
REMARK                         _______ _______ _______ _____ _____    ______ ____
ROOT
ATOM     16  C   UNL     1      -4.460 -11.164  14.676  0.00  0.00    +0.113 C 
ENDROOT
BRANCH  16  10
ATOM      9  C   UNL     1      -6.402 -10.735  16.260  0.00  0.00    +0.000 C 
ATOM     10  C   UNL     1      -4.886 -10.538  16.009  0.00  0.00    +0.030 C 
ATOM     11  C   UNL     1      -6.735 -10.499  17.741  0.00  0.00    +0.012 C 
ATOM     12  C   UNL     1      -5.958 -11.447  18.673  0.00  0.00    +0.025 C 
ATOM     14  C   UNL     1      -4.487 -11.511  18.311  0.00  0.00    -0.073 C 
ATOM     15  C   UNL     1      -4.025 -11.088  17.122  0.00  0.00    -0.023 C 
ATOM     20  C   UNL     1      -3.552 -12.031  19.368  0.00  0.00    +0.039 C 
BRANCH   9  13
ATOM     13  C   UNL     1      -7.250  -9.810  15.383  0.00  0.00    -0.013 C 
ATOM     18  C   UNL     1      -8.264  -9.052  16.234  0.00  0.00    +0.007 C 
ATOM     19  C   UNL     1      -7.951 -10.607  14.288  0.00  0.00    +0.007 C 
ENDBRANCH   9  13
BRANCH  12  17
ATOM     17  C   UNL     1      -6.581 -12.847  18.681  0.00  0.00    +0.128 C 
BRANCH  17  21
ATOM      3  O   UNL     1      -8.329 -12.148  20.220  0.00  0.00    -0.251 OA
ATOM     21  C   UNL     1      -7.965 -12.834  19.275  0.00  0.00    +0.308 C 
BRANCH  21   2
ATOM      2  O   UNL     1      -8.741 -13.717  18.579  0.00  0.00    -0.465 OA
BRANCH   2  23
ATOM     23  C   UNL     1      -8.912 -13.424  17.188  0.00  0.00    +0.229 C 
ATOM     28  C   UNL     1      -9.943 -12.326  17.039  0.00  0.00    +0.048 C 
ENDBRANCH   2  23
ENDBRANCH  21   2
ENDBRANCH  17  21
ENDBRANCH  12  17
ENDBRANCH  16  10
BRANCH  16   7
ATOM      7  N   UNL     1      -3.455 -10.297  14.039  0.00  0.00    -0.189 NA
ATOM     32  H   UNL     1      -3.467  -9.305  14.299  0.00  0.00    +0.148 HD
BRANCH   7   1
ATOM      1  S   UNL     1      -2.812 -10.710  12.516  0.00  0.00    +0.058 S 
ATOM      4  O   UNL     1      -2.992 -12.131  12.289  0.00  0.00    -0.153 OA
ATOM      5  O   UNL     1      -1.499 -10.110  12.376  0.00  0.00    -0.153 OA
BRANCH   1  22
ATOM     22  C   UNL     1      -3.894  -9.842  11.421  0.00  0.00    +0.105 A 
ATOM     24  C   UNL     1      -5.190  -9.522  11.828  0.00  0.00    +0.030 A 
ATOM     25  C   UNL     1      -3.454  -9.477  10.149  0.00  0.00    +0.030 A 
ATOM     26  C   UNL     1      -6.044  -8.837  10.964  0.00  0.00    +0.025 A 
ATOM     27  C   UNL     1      -4.308  -8.793   9.284  0.00  0.00    +0.025 A 
ATOM     29  C   UNL     1      -5.603  -8.473   9.691  0.00  0.00    +0.033 A 
BRANCH  29   8
ATOM      6  O   UNL     1      -7.824  -9.484   7.926  0.00  0.00    -0.276 OA
ATOM      8  N   UNL     1      -6.457  -7.787   8.827  0.00  0.00    -0.286 N 
ATOM     30  C   UNL     1      -7.478  -8.311   8.024  0.00  0.00    +0.214 C 
ATOM     31  C   UNL     1      -8.174  -7.234   7.230  0.00  0.00    +0.109 C 
ATOM     33  H   UNL     1      -6.312  -6.780   8.782  0.00  0.00    +0.155 HD
ENDBRANCH  29   8
ENDBRANCH   1  22
ENDBRANCH   7   1
ENDBRANCH  16   7
TORSDOF 10
ENDMDL
MODEL 7
REMARK VINA RESULT:      -6.3     27.914     31.435
REMARK  Name = 38029729
REMARK  15 active torsions:
REMARK  status: ('A' for Active; 'I' for Inactive)
REMARK    1  A    between atoms: S_1  and  N_7
REMARK    2  A    between atoms: S_1  and  C_22
REMARK    3  A    between atoms: O_2  and  C_21
REMARK    4  A    between atoms: O_2  and  C_23
REMARK    5  A    between atoms: N_7  and  C_16
REMARK    6  A    between atoms: N_8  and  C_29
REMARK    7  A    between atoms: C_9  and  C_13
REMARK    8  A    between atoms: C_10  and  C_16
REMARK    9  A    between atoms: C_12  and  C_17
REMARK   10  A    between atoms: C_13  and  C_18
REMARK   11  A    between atoms: C_13  and  C_19
REMARK   12  A    between atoms: C_14  and  C_20
REMARK   13  A    between atoms: C_17  and  C_21
REMARK   14  A    between atoms: C_23  and  C_28
REMARK   15  A    between atoms: C_30  and  C_31
REMARK                            x       y       z     vdW  Elec       q    Type
REMARK                         _______ _______ _______ _____ _____    ______ ____
ROOT
ATOM     16  C   UNL     1      -8.996 -10.431  18.304  0.00  0.00    +0.113 C 
ENDROOT
BRANCH  16  10
ATOM      9  C   UNL     1      -9.185 -10.240  15.776  0.00  0.00    +0.000 C 
ATOM     10  C   UNL     1      -8.810  -9.512  17.091  0.00  0.00    +0.030 C 
ATOM     11  C   UNL     1      -9.406  -9.224  14.646  0.00  0.00    +0.012 C 
ATOM     12  C   UNL     1     -10.519  -8.212  14.979  0.00  0.00    +0.025 C 
ATOM     14  C   UNL     1     -10.364  -7.647  16.377  0.00  0.00    -0.073 C 
ATOM     15  C   UNL     1      -9.586  -8.234  17.303  0.00  0.00    -0.023 C 
ATOM     20  C   UNL     1     -11.091  -6.364  16.673  0.00  0.00    +0.039 C 
BRANCH   9  13
ATOM     13  C   UNL     1      -8.116 -11.254  15.360  0.00  0.00    -0.013 C 
ATOM     18  C   UNL     1      -7.478 -10.842  14.038  0.00  0.00    +0.007 C 
ATOM     19  C   UNL     1      -8.718 -12.652  15.259  0.00  0.00    +0.007 C 
ENDBRANCH   9  13
BRANCH  12  17
ATOM     17  C   UNL     1     -11.906  -8.834  14.790  0.00  0.00    +0.128 C 
BRANCH  17  21
ATOM      3  O   UNL     1     -12.520  -8.864  12.437  0.00  0.00    -0.251 OA
ATOM     21  C   UNL     1     -12.572  -8.331  13.536  0.00  0.00    +0.308 C 
BRANCH  21   2
ATOM      2  O   UNL     1     -13.242  -7.179  13.838  0.00  0.00    -0.465 OA
BRANCH   2  23
ATOM     23  C   UNL     1     -13.127  -6.129  12.872  0.00  0.00    +0.229 C 
ATOM     28  C   UNL     1     -12.231  -5.043  13.430  0.00  0.00    +0.048 C 
ENDBRANCH   2  23
ENDBRANCH  21   2
ENDBRANCH  17  21
ENDBRANCH  12  17
ENDBRANCH  16  10
BRANCH  16   7
ATOM      7  N   UNL     1      -7.868 -10.237  19.230  0.00  0.00    -0.189 NA
ATOM     32  H   UNL     1      -7.492  -9.285  19.309  0.00  0.00    +0.148 HD
BRANCH   7   1
ATOM      1  S   UNL     1      -6.825 -11.534  19.592  0.00  0.00    +0.058 S 
ATOM      4  O   UNL     1      -7.600 -12.755  19.703  0.00  0.00    -0.153 OA
ATOM      5  O   UNL     1      -5.928 -11.140  20.661  0.00  0.00    -0.153 OA
BRANCH   1  22
ATOM     22  C   UNL     1      -5.855 -11.638  18.118  0.00  0.00    +0.105 A 
ATOM     24  C   UNL     1      -5.640 -12.875  17.509  0.00  0.00    +0.030 A 
ATOM     25  C   UNL     1      -5.305 -10.482  17.562  0.00  0.00    +0.030 A 
ATOM     26  C   UNL     1      -4.875 -12.956  16.346  0.00  0.00    +0.025 A 
ATOM     27  C   UNL     1      -4.539 -10.563  16.400  0.00  0.00    +0.025 A 
ATOM     29  C   UNL     1      -4.324 -11.800  15.791  0.00  0.00    +0.033 A 
BRANCH  29   8
ATOM      6  O   UNL     1      -1.363 -11.455  15.367  0.00  0.00    -0.276 OA
ATOM      8  N   UNL     1      -3.560 -11.882  14.627  0.00  0.00    -0.286 N 
ATOM     30  C   UNL     1      -2.177 -11.710  14.486  0.00  0.00    +0.214 C 
ATOM     31  C   UNL     1      -1.734 -11.879  13.053  0.00  0.00    +0.109 C 
ATOM     33  H   UNL     1      -4.082 -12.093  13.779  0.00  0.00    +0.155 HD
ENDBRANCH  29   8
ENDBRANCH   1  22
ENDBRANCH   7   1
ENDBRANCH  16   7
TORSDOF 10
ENDMDL
MODEL 8
REMARK VINA RESULT:      -6.3     27.855     30.758
REMARK  Name = 38029729
REMARK  15 active torsions:
REMARK  status: ('A' for Active; 'I' for Inactive)
REMARK    1  A    between atoms: S_1  and  N_7
REMARK    2  A    between atoms: S_1  and  C_22
REMARK    3  A    between atoms: O_2  and  C_21
REMARK    4  A    between atoms: O_2  and  C_23
REMARK    5  A    between atoms: N_7  and  C_16
REMARK    6  A    between atoms: N_8  and  C_29
REMARK    7  A    between atoms: C_9  and  C_13
REMARK    8  A    between atoms: C_10  and  C_16
REMARK    9  A    between atoms: C_12  and  C_17
REMARK   10  A    between atoms: C_13  and  C_18
REMARK   11  A    between atoms: C_13  and  C_19
REMARK   12  A    between atoms: C_14  and  C_20
REMARK   13  A    between atoms: C_17  and  C_21
REMARK   14  A    between atoms: C_23  and  C_28
REMARK   15  A    between atoms: C_30  and  C_31
REMARK                            x       y       z     vdW  Elec       q    Type
REMARK                         _______ _______ _______ _____ _____    ______ ____
ROOT
ATOM     16  C   UNL     1      -9.537 -10.762  19.093  0.00  0.00    +0.113 C 
ENDROOT
BRANCH  16  10
ATOM      9  C   UNL     1      -9.887  -9.504  16.911  0.00  0.00    +0.000 C 
ATOM     10  C   UNL     1     -10.131 -10.826  17.681  0.00  0.00    +0.030 C 
ATOM     11  C   UNL     1     -10.091  -9.717  15.404  0.00  0.00    +0.012 C 
ATOM     12  C   UNL     1      -9.150 -10.795  14.833  0.00  0.00    +0.025 C 
ATOM     14  C   UNL     1      -9.134 -12.040  15.696  0.00  0.00    -0.073 C 
ATOM     15  C   UNL     1      -9.588 -12.039  16.962  0.00  0.00    -0.023 C 
ATOM     20  C   UNL     1      -8.625 -13.302  15.055  0.00  0.00    +0.039 C 
BRANCH   9  13
ATOM     13  C   UNL     1     -10.801  -8.380  17.405  0.00  0.00    -0.013 C 
ATOM     18  C   UNL     1     -12.256  -8.836  17.400  0.00  0.00    +0.007 C 
ATOM     19  C   UNL     1     -10.622  -7.131  16.547  0.00  0.00    +0.007 C 
ENDBRANCH   9  13
BRANCH  12  17
ATOM     17  C   UNL     1      -7.733 -10.244  14.638  0.00  0.00    +0.128 C 
BRANCH  17  21
ATOM      3  O   UNL     1      -7.837 -11.075  12.355  0.00  0.00    -0.251 OA
ATOM     21  C   UNL     1      -7.245 -10.458  13.229  0.00  0.00    +0.308 C 
BRANCH  21   2
ATOM      2  O   UNL     1      -6.030  -9.847  13.097  0.00  0.00    -0.465 OA
BRANCH   2  23
ATOM     23  C   UNL     1      -5.824  -9.147  11.866  0.00  0.00    +0.229 C 
ATOM     28  C   UNL     1      -4.484  -9.551  11.288  0.00  0.00    +0.048 C 
ENDBRANCH   2  23
ENDBRANCH  21   2
ENDBRANCH  17  21
ENDBRANCH  12  17
ENDBRANCH  16  10
BRANCH  16   7
ATOM      7  N   UNL     1      -8.142 -10.301  19.007  0.00  0.00    -0.189 NA
ATOM     32  H   UNL     1      -7.937  -9.569  18.317  0.00  0.00    +0.148 HD
BRANCH   7   1
ATOM      1  S   UNL     1      -6.869 -11.337  19.464  0.00  0.00    +0.058 S 
ATOM      4  O   UNL     1      -7.399 -12.663  19.719  0.00  0.00    -0.153 OA
ATOM      5  O   UNL     1      -6.052 -10.674  20.462  0.00  0.00    -0.153 OA
BRANCH   1  22
ATOM     22  C   UNL     1      -5.913 -11.409  17.979  0.00  0.00    +0.105 A 
ATOM     24  C   UNL     1      -5.798 -12.611  17.281  0.00  0.00    +0.030 A 
ATOM     25  C   UNL     1      -5.272 -10.264  17.506  0.00  0.00    +0.030 A 
ATOM     26  C   UNL     1      -5.043 -12.668  16.108  0.00  0.00    +0.025 A 
ATOM     27  C   UNL     1      -4.517 -10.320  16.335  0.00  0.00    +0.025 A 
ATOM     29  C   UNL     1      -4.403 -11.522  15.636  0.00  0.00    +0.033 A 
BRANCH  29   8
ATOM      6  O   UNL     1      -1.422 -11.419  15.220  0.00  0.00    -0.276 OA
ATOM      8  N   UNL     1      -3.649 -11.579  14.463  0.00  0.00    -0.286 N 
ATOM     30  C   UNL     1      -2.256 -11.524  14.326  0.00  0.00    +0.214 C 
ATOM     31  C   UNL     1      -1.831 -11.617  12.882  0.00  0.00    +0.109 C 
ATOM     33  H   UNL     1      -4.189 -11.671  13.605  0.00  0.00    +0.155 HD
ENDBRANCH  29   8
ENDBRANCH   1  22
ENDBRANCH   7   1
ENDBRANCH  16   7
TORSDOF 10
ENDMDL
MODEL 9
REMARK VINA RESULT:      -6.3     27.169     29.912
REMARK  Name = 38029729
REMARK  15 active torsions:
REMARK  status: ('A' for Active; 'I' for Inactive)
REMARK    1  A    between atoms: S_1  and  N_7
REMARK    2  A    between atoms: S_1  and  C_22
REMARK    3  A    between atoms: O_2  and  C_21
REMARK    4  A    between atoms: O_2  and  C_23
REMARK    5  A    between atoms: N_7  and  C_16
REMARK    6  A    between atoms: N_8  and  C_29
REMARK    7  A    between atoms: C_9  and  C_13
REMARK    8  A    between atoms: C_10  and  C_16
REMARK    9  A    between atoms: C_12  and  C_17
REMARK   10  A    between atoms: C_13  and  C_18
REMARK   11  A    between atoms: C_13  and  C_19
REMARK   12  A    between atoms: C_14  and  C_20
REMARK   13  A    between atoms: C_17  and  C_21
REMARK   14  A    between atoms: C_23  and  C_28
REMARK   15  A    between atoms: C_30  and  C_31
REMARK                            x       y       z     vdW  Elec       q    Type
REMARK                         _______ _______ _______ _____ _____    ______ ____
ROOT
ATOM     16  C   UNL     1      -7.973  -9.170  17.299  0.00  0.00    +0.113 C 
ENDROOT
BRANCH  16  10
ATOM      9  C   UNL     1      -6.481 -10.178  15.504  0.00  0.00    +0.000 C 
ATOM     10  C   UNL     1      -7.262 -10.440  16.816  0.00  0.00    +0.030 C 
ATOM     11  C   UNL     1      -5.453 -11.293  15.261  0.00  0.00    +0.012 C 
ATOM     12  C   UNL     1      -4.440 -11.415  16.415  0.00  0.00    +0.025 C 
ATOM     14  C   UNL     1      -5.126 -11.408  17.767  0.00  0.00    -0.073 C 
ATOM     15  C   UNL     1      -6.391 -10.982  17.925  0.00  0.00    -0.023 C 
ATOM     20  C   UNL     1      -4.337 -11.948  18.928  0.00  0.00    +0.039 C 
BRANCH   9  13
ATOM     13  C   UNL     1      -7.417 -10.064  14.298  0.00  0.00    -0.013 C 
ATOM     18  C   UNL     1      -8.401 -11.229  14.275  0.00  0.00    +0.007 C 
ATOM     19  C   UNL     1      -6.613 -10.010  13.002  0.00  0.00    +0.007 C 
ENDBRANCH   9  13
BRANCH  12  17
ATOM     17  C   UNL     1      -3.376 -10.315  16.335  0.00  0.00    +0.128 C 
BRANCH  17  21
ATOM      3  O   UNL     1      -0.986 -10.298  15.888  0.00  0.00    -0.251 OA
ATOM     21  C   UNL     1      -2.077 -10.841  15.784  0.00  0.00    +0.308 C 
BRANCH  21   2
ATOM      2  O   UNL     1      -2.326 -12.025  15.150  0.00  0.00    -0.465 OA
BRANCH   2  23
ATOM     23  C   UNL     1      -1.626 -12.223  13.917  0.00  0.00    +0.229 C 
ATOM     28  C   UNL     1      -2.447 -11.642  12.786  0.00  0.00    +0.048 C 
ENDBRANCH   2  23
ENDBRANCH  21   2
ENDBRANCH  17  21
ENDBRANCH  12  17
ENDBRANCH  16  10
BRANCH  16   7
ATOM      7  N   UNL     1      -8.994  -9.541  18.293  0.00  0.00    -0.189 NA
ATOM     32  H   UNL     1      -8.663 -10.001  19.149  0.00  0.00    +0.148 HD
BRANCH   7   1
ATOM      1  S   UNL     1     -10.597  -9.844  17.801  0.00  0.00    +0.058 S 
ATOM      4  O   UNL     1     -11.484  -9.690  18.938  0.00  0.00    -0.153 OA
ATOM      5  O   UNL     1     -10.630 -11.059  17.010  0.00  0.00    -0.153 OA
BRANCH   1  22
ATOM     22  C   UNL     1     -10.894  -8.499  16.693  0.00  0.00    +0.105 A 
ATOM     24  C   UNL     1     -10.926  -7.191  17.177  0.00  0.00    +0.030 A 
ATOM     25  C   UNL     1     -11.096  -8.746  15.335  0.00  0.00    +0.030 A 
ATOM     26  C   UNL     1     -11.160  -6.129  16.302  0.00  0.00    +0.025 A 
ATOM     27  C   UNL     1     -11.331  -7.685  14.461  0.00  0.00    +0.025 A 
ATOM     29  C   UNL     1     -11.363  -6.376  14.944  0.00  0.00    +0.033 A 
BRANCH  29   8
ATOM      6  O   UNL     1     -13.937  -5.320  13.793  0.00  0.00    -0.276 OA
ATOM      8  N   UNL     1     -11.596  -5.314  14.070  0.00  0.00    -0.286 N 
ATOM     30  C   UNL     1     -12.822  -4.865  13.562  0.00  0.00    +0.214 C 
ATOM     31  C   UNL     1     -12.647  -3.683  12.641  0.00  0.00    +0.109 C 
ATOM     33  H   UNL     1     -10.764  -4.810  13.769  0.00  0.00    +0.155 HD
ENDBRANCH  29   8
ENDBRANCH   1  22
ENDBRANCH   7   1
ENDBRANCH  16   7
TORSDOF 10
ENDMDL
MODEL 10
REMARK VINA RESULT:      -6.3     16.644     19.090
REMARK  Name = 38029729
REMARK  15 active torsions:
REMARK  status: ('A' for Active; 'I' for Inactive)
REMARK    1  A    between atoms: S_1  and  N_7
REMARK    2  A    between atoms: S_1  and  C_22
REMARK    3  A    between atoms: O_2  and  C_21
REMARK    4  A    between atoms: O_2  and  C_23
REMARK    5  A    between atoms: N_7  and  C_16
REMARK    6  A    between atoms: N_8  and  C_29
REMARK    7  A    between atoms: C_9  and  C_13
REMARK    8  A    between atoms: C_10  and  C_16
REMARK    9  A    between atoms: C_12  and  C_17
REMARK   10  A    between atoms: C_13  and  C_18
REMARK   11  A    between atoms: C_13  and  C_19
REMARK   12  A    between atoms: C_14  and  C_20
REMARK   13  A    between atoms: C_17  and  C_21
REMARK   14  A    between atoms: C_23  and  C_28
REMARK   15  A    between atoms: C_30  and  C_31
REMARK                            x       y       z     vdW  Elec       q    Type
REMARK                         _______ _______ _______ _____ _____    ______ ____
ROOT
ATOM     16  C   UNL     1      13.426   6.358   0.529  0.00  0.00    +0.113 C 
ENDROOT
BRANCH  16  10
ATOM      9  C   UNL     1      12.422   4.549   2.006  0.00  0.00    +0.000 C 
ATOM     10  C   UNL     1      12.146   5.600   0.903  0.00  0.00    +0.030 C 
ATOM     11  C   UNL     1      11.107   4.107   2.666  0.00  0.00    +0.012 C 
ATOM     12  C   UNL     1      10.344   5.288   3.296  0.00  0.00    +0.025 C 
ATOM     14  C   UNL     1      10.265   6.472   2.354  0.00  0.00    -0.073 C 
ATOM     15  C   UNL     1      11.069   6.589   1.283  0.00  0.00    -0.023 C 
ATOM     20  C   UNL     1       9.208   7.501   2.647  0.00  0.00    +0.039 C 
BRANCH   9  13
ATOM     13  C   UNL     1      13.162   3.327   1.457  0.00  0.00    -0.013 C 
ATOM     18  C   UNL     1      14.658   3.444   1.728  0.00  0.00    +0.007 C 
ATOM     19  C   UNL     1      12.895   3.168  -0.037  0.00  0.00    +0.007 C 
ENDBRANCH   9  13
BRANCH  12  17
ATOM     17  C   UNL     1      10.966   5.694   4.637  0.00  0.00    +0.128 C 
BRANCH  17  21
ATOM      3  O   UNL     1       8.741   5.621   5.617  0.00  0.00    -0.251 OA
ATOM     21  C   UNL     1       9.956   5.641   5.753  0.00  0.00    +0.308 C 
BRANCH  21   2
ATOM      2  O   UNL     1      10.630   5.622   6.942  0.00  0.00    -0.465 OA
BRANCH   2  23
ATOM     23  C   UNL     1       9.813   5.696   8.115  0.00  0.00    +0.229 C 
ATOM     28  C   UNL     1       9.682   4.312   8.713  0.00  0.00    +0.048 C 
ENDBRANCH   2  23
ENDBRANCH  21   2
ENDBRANCH  17  21
ENDBRANCH  12  17
ENDBRANCH  16  10
BRANCH  16   7
ATOM      7  N   UNL     1      13.472   7.623   1.279  0.00  0.00    -0.189 NA
ATOM     32  H   UNL     1      13.101   8.456   0.806  0.00  0.00    +0.148 HD
BRANCH   7   1
ATOM      1  S   UNL     1      14.644   7.857   2.493  0.00  0.00    +0.058 S 
ATOM      4  O   UNL     1      15.475   8.993   2.143  0.00  0.00    -0.153 OA
ATOM      5  O   UNL     1      15.252   6.581   2.818  0.00  0.00    -0.153 OA
BRANCH   1  22
ATOM     22  C   UNL     1      13.644   8.319   3.875  0.00  0.00    +0.105 A 
ATOM     24  C   UNL     1      13.960   7.855   5.152  0.00  0.00    +0.030 A 
ATOM     25  C   UNL     1      12.537   9.148   3.689  0.00  0.00    +0.030 A 
ATOM     26  C   UNL     1      13.170   8.220   6.243  0.00  0.00    +0.025 A 
ATOM     27  C   UNL     1      11.747   9.513   4.779  0.00  0.00    +0.025 A 
ATOM     29  C   UNL     1      12.063   9.049   6.056  0.00  0.00    +0.033 A 
BRANCH  29   8
ATOM      6  O   UNL     1       9.077   8.956   6.428  0.00  0.00    -0.276 OA
ATOM      8  N   UNL     1      11.274   9.415   7.147  0.00  0.00    -0.286 N 
ATOM     30  C   UNL     1       9.880   9.352   7.266  0.00  0.00    +0.214 C 
ATOM     31  C   UNL     1       9.411   9.844   8.612  0.00  0.00    +0.109 C 
ATOM     33  H   UNL     1      11.786   9.771   7.952  0.00  0.00    +0.155 HD
ENDBRANCH  29   8
ENDBRANCH   1  22
ENDBRANCH   7   1
ENDBRANCH  16   7
TORSDOF 10
ENDMDL
