MODEL 1
REMARK VINA RESULT:      -6.0      0.000      0.000
REMARK  Name = 7685242
REMARK  4 active torsions:
REMARK  status: ('A' for Active; 'I' for Inactive)
REMARK    1  A    between atoms: S_2  and  C_20
REMARK    2  A    between atoms: S_2  and  C_24
REMARK    3  A    between atoms: C_14  and  C_19
REMARK    4  A    between atoms: C_16  and  C_20
REMARK                            x       y       z     vdW  Elec       q    Type
REMARK                         _______ _______ _______ _____ _____    ______ ____
ROOT
ATOM      3  O   UNL     1       7.206   9.170   4.286  0.00  0.00    -0.268 OA
ATOM      4  O   UNL     1      11.532  10.010   7.159  0.00  0.00    -0.275 OA
ATOM      5  N   UNL     1      11.301   7.737   6.740  0.00  0.00    -0.300 N 
ATOM      6  N   UNL     1       8.752   7.502   4.851  0.00  0.00    -0.311 N 
ATOM      7  C   UNL     1       9.079   6.755   7.283  0.00  0.00    +0.027 C 
ATOM      8  C   UNL     1      10.442   5.757   5.498  0.00  0.00    +0.054 C 
ATOM      9  C   UNL     1       9.512   5.435   6.666  0.00  0.00    +0.018 C 
ATOM     10  C   UNL     1      10.296   7.550   7.785  0.00  0.00    +0.113 C 
ATOM     11  C   UNL     1       8.276   7.536   6.241  0.00  0.00    +0.130 C 
ATOM     12  C   UNL     1      11.681   6.514   6.020  0.00  0.00    +0.117 C 
ATOM     13  C   UNL     1       9.730   6.583   4.419  0.00  0.00    +0.035 A 
ATOM     14  C   UNL     1      10.024   6.481   3.095  0.00  0.00    +0.009 A 
ATOM     15  C   UNL     1       8.077   8.360   3.965  0.00  0.00    +0.252 A 
ATOM     16  C   UNL     1      11.868   8.996   6.542  0.00  0.00    +0.225 C 
ATOM     17  C   UNL     1       9.350   7.356   2.153  0.00  0.00    +0.016 A 
ATOM     18  C   UNL     1       8.444   8.256   2.535  0.00  0.00    +0.071 A 
ENDROOT
BRANCH  14  19
ATOM      1  S   UNL     1      12.590   6.068   2.282  0.00  0.00    -0.097 S 
ATOM     19  C   UNL     1      11.000   5.535   2.627  0.00  0.00    +0.021 A 
ATOM     21  C   UNL     1      10.846   4.186   2.397  0.00  0.00    +0.016 A 
ATOM     22  C   UNL     1      12.050   3.581   1.932  0.00  0.00    +0.008 A 
ATOM     23  C   UNL     1      13.077   4.492   1.824  0.00  0.00    +0.046 A 
ENDBRANCH  14  19
BRANCH  16  20
ATOM     20  C   UNL     1      12.950   9.094   5.497  0.00  0.00    +0.164 C 
BRANCH  20   2
ATOM      2  S   UNL     1      14.498   9.447   6.344  0.00  0.00    -0.155 S 
ATOM     24  C   UNL     1      15.220   7.787   6.306  0.00  0.00    +0.085 C 
ENDBRANCH  20   2
ENDBRANCH  16  20
TORSDOF 3
ENDMDL
MODEL 2
REMARK VINA RESULT:      -5.5     25.343     27.444
REMARK  Name = 7685242
REMARK  4 active torsions:
REMARK  status: ('A' for Active; 'I' for Inactive)
REMARK    1  A    between atoms: S_2  and  C_20
REMARK    2  A    between atoms: S_2  and  C_24
REMARK    3  A    between atoms: C_14  and  C_19
REMARK    4  A    between atoms: C_16  and  C_20
REMARK                            x       y       z     vdW  Elec       q    Type
REMARK                         _______ _______ _______ _____ _____    ______ ____
ROOT
ATOM      3  O   UNL     1      -7.070 -14.897  17.010  0.00  0.00    -0.268 OA
ATOM      4  O   UNL     1      -9.377 -10.463  15.373  0.00  0.00    -0.275 OA
ATOM      5  N   UNL     1      -7.381  -9.955  16.447  0.00  0.00    -0.300 N 
ATOM      6  N   UNL     1      -6.094 -12.773  17.169  0.00  0.00    -0.311 N 
ATOM      7  C   UNL     1      -7.076 -10.966  18.702  0.00  0.00    +0.027 C 
ATOM      8  C   UNL     1      -5.106 -10.467  17.320  0.00  0.00    +0.054 C 
ATOM      9  C   UNL     1      -5.652 -10.436  18.746  0.00  0.00    +0.018 C 
ATOM     10  C   UNL     1      -7.954 -10.099  17.785  0.00  0.00    +0.113 C 
ATOM     11  C   UNL     1      -7.036 -12.424  18.242  0.00  0.00    +0.130 C 
ATOM     12  C   UNL     1      -5.967  -9.558  16.419  0.00  0.00    +0.117 C 
ATOM     13  C   UNL     1      -5.073 -11.893  16.757  0.00  0.00    +0.035 A 
ATOM     14  C   UNL     1      -4.129 -12.319  15.874  0.00  0.00    +0.009 A 
ATOM     15  C   UNL     1      -6.208 -14.085  16.674  0.00  0.00    +0.252 A 
ATOM     16  C   UNL     1      -8.191 -10.127  15.325  0.00  0.00    +0.225 C 
ATOM     17  C   UNL     1      -4.219 -13.666  15.340  0.00  0.00    +0.016 A 
ATOM     18  C   UNL     1      -5.192 -14.509  15.686  0.00  0.00    +0.071 A 
ENDROOT
BRANCH  14  19
ATOM      1  S   UNL     1      -3.053 -10.838  13.859  0.00  0.00    -0.097 S 
ATOM     19  C   UNL     1      -3.063 -11.449  15.458  0.00  0.00    +0.021 A 
ATOM     21  C   UNL     1      -1.983 -11.005  16.188  0.00  0.00    +0.016 A 
ATOM     22  C   UNL     1      -1.136 -10.151  15.424  0.00  0.00    +0.008 A 
ATOM     23  C   UNL     1      -1.601  -9.976  14.139  0.00  0.00    +0.046 A 
ENDBRANCH  14  19
BRANCH  16  20
ATOM     20  C   UNL     1      -7.547  -9.890  13.982  0.00  0.00    +0.164 C 
BRANCH  20   2
ATOM      2  S   UNL     1      -7.002 -11.483  13.348  0.00  0.00    -0.155 S 
ATOM     24  C   UNL     1      -6.335 -10.935  11.757  0.00  0.00    +0.085 C 
ENDBRANCH  20   2
ENDBRANCH  16  20
TORSDOF 3
ENDMDL
MODEL 3
REMARK VINA RESULT:      -5.4     22.601     24.612
REMARK  Name = 7685242
REMARK  4 active torsions:
REMARK  status: ('A' for Active; 'I' for Inactive)
REMARK    1  A    between atoms: S_2  and  C_20
REMARK    2  A    between atoms: S_2  and  C_24
REMARK    3  A    between atoms: C_14  and  C_19
REMARK    4  A    between atoms: C_16  and  C_20
REMARK                            x       y       z     vdW  Elec       q    Type
REMARK                         _______ _______ _______ _____ _____    ______ ____
ROOT
ATOM      3  O   UNL     1      19.544  -4.965  21.317  0.00  0.00    -0.268 OA
ATOM      4  O   UNL     1      20.758  -1.248  24.835  0.00  0.00    -0.275 OA
ATOM      5  N   UNL     1      18.569  -1.952  25.166  0.00  0.00    -0.300 N 
ATOM      6  N   UNL     1      18.135  -4.306  23.070  0.00  0.00    -0.311 N 
ATOM      7  C   UNL     1      17.114  -1.954  23.146  0.00  0.00    +0.027 C 
ATOM      8  C   UNL     1      16.667  -3.547  24.964  0.00  0.00    +0.054 C 
ATOM      9  C   UNL     1      16.006  -2.619  23.946  0.00  0.00    +0.018 C 
ATOM     10  C   UNL     1      18.043  -1.145  24.067  0.00  0.00    +0.113 C 
ATOM     11  C   UNL     1      17.873  -3.036  22.377  0.00  0.00    +0.130 C 
ATOM     12  C   UNL     1      17.560  -2.718  25.910  0.00  0.00    +0.117 C 
ATOM     13  C   UNL     1      17.493  -4.642  24.278  0.00  0.00    +0.035 A 
ATOM     14  C   UNL     1      17.645  -5.890  24.800  0.00  0.00    +0.009 A 
ATOM     15  C   UNL     1      18.971  -5.203  22.381  0.00  0.00    +0.252 A 
ATOM     16  C   UNL     1      19.928  -1.898  25.476  0.00  0.00    +0.225 C 
ATOM     17  C   UNL     1      18.505  -6.840  24.117  0.00  0.00    +0.016 A 
ATOM     18  C   UNL     1      19.150  -6.539  22.990  0.00  0.00    +0.071 A 
ENDROOT
BRANCH  14  19
ATOM      1  S   UNL     1      17.782  -6.046  27.514  0.00  0.00    -0.097 S 
ATOM     19  C   UNL     1      16.981  -6.266  26.018  0.00  0.00    +0.021 A 
ATOM     21  C   UNL     1      15.726  -6.810  26.178  0.00  0.00    +0.016 A 
ATOM     22  C   UNL     1      15.417  -7.049  27.549  0.00  0.00    +0.008 A 
ATOM     23  C   UNL     1      16.449  -6.679  28.383  0.00  0.00    +0.046 A 
ENDBRANCH  14  19
BRANCH  16  20
ATOM     20  C   UNL     1      20.383  -2.701  26.668  0.00  0.00    +0.164 C 
BRANCH  20   2
ATOM      2  S   UNL     1      21.997  -3.392  26.278  0.00  0.00    -0.155 S 
ATOM     24  C   UNL     1      21.471  -4.712  25.157  0.00  0.00    +0.085 C 
ENDBRANCH  20   2
ENDBRANCH  16  20
TORSDOF 3
ENDMDL
MODEL 4
REMARK VINA RESULT:      -5.4     24.345     26.378
REMARK  Name = 7685242
REMARK  4 active torsions:
REMARK  status: ('A' for Active; 'I' for Inactive)
REMARK    1  A    between atoms: S_2  and  C_20
REMARK    2  A    between atoms: S_2  and  C_24
REMARK    3  A    between atoms: C_14  and  C_19
REMARK    4  A    between atoms: C_16  and  C_20
REMARK                            x       y       z     vdW  Elec       q    Type
REMARK                         _______ _______ _______ _____ _____    ______ ____
ROOT
ATOM      3  O   UNL     1      -1.088 -11.047  15.580  0.00  0.00    -0.268 OA
ATOM      4  O   UNL     1      -4.833 -14.544  16.768  0.00  0.00    -0.275 OA
ATOM      5  N   UNL     1      -5.812 -12.543  16.113  0.00  0.00    -0.300 N 
ATOM      6  N   UNL     1      -3.380 -10.672  15.273  0.00  0.00    -0.311 N 
ATOM      7  C   UNL     1      -4.982 -10.500  17.269  0.00  0.00    +0.027 C 
ATOM      8  C   UNL     1      -5.853 -10.327  14.977  0.00  0.00    +0.054 C 
ATOM      9  C   UNL     1      -5.817  -9.635  16.339  0.00  0.00    +0.018 C 
ATOM     10  C   UNL     1      -5.596 -11.903  17.409  0.00  0.00    +0.113 C 
ATOM     11  C   UNL     1      -3.552 -10.554  16.728  0.00  0.00    +0.130 C 
ATOM     12  C   UNL     1      -6.512 -11.714  15.122  0.00  0.00    +0.117 C 
ATOM     13  C   UNL     1      -4.449 -10.467  14.376  0.00  0.00    +0.035 A 
ATOM     14  C   UNL     1      -4.210 -10.429  13.037  0.00  0.00    +0.009 A 
ATOM     15  C   UNL     1      -2.058 -10.878  14.840  0.00  0.00    +0.252 A 
ATOM     16  C   UNL     1      -5.421 -13.868  15.921  0.00  0.00    +0.225 C 
ATOM     17  C   UNL     1      -2.857 -10.644  12.556  0.00  0.00    +0.016 A 
ATOM     18  C   UNL     1      -1.832 -10.871  13.378  0.00  0.00    +0.071 A 
ENDROOT
BRANCH  14  19
ATOM      1  S   UNL     1      -6.023 -11.532  11.332  0.00  0.00    -0.097 S 
ATOM     19  C   UNL     1      -5.278 -10.198  12.104  0.00  0.00    +0.021 A 
ATOM     21  C   UNL     1      -5.827  -8.998  11.708  0.00  0.00    +0.016 A 
ATOM     22  C   UNL     1      -6.875  -9.177  10.758  0.00  0.00    +0.008 A 
ATOM     23  C   UNL     1      -7.085 -10.506  10.465  0.00  0.00    +0.046 A 
ENDBRANCH  14  19
BRANCH  16  20
ATOM     20  C   UNL     1      -5.743 -14.482  14.582  0.00  0.00    +0.164 C 
BRANCH  20   2
ATOM      2  S   UNL     1      -4.368 -15.547  14.124  0.00  0.00    -0.155 S 
ATOM     24  C   UNL     1      -3.196 -14.275  13.592  0.00  0.00    +0.085 C 
ENDBRANCH  20   2
ENDBRANCH  16  20
TORSDOF 3
ENDMDL
MODEL 5
REMARK VINA RESULT:      -5.3     25.463     27.444
REMARK  Name = 7685242
REMARK  4 active torsions:
REMARK  status: ('A' for Active; 'I' for Inactive)
REMARK    1  A    between atoms: S_2  and  C_20
REMARK    2  A    between atoms: S_2  and  C_24
REMARK    3  A    between atoms: C_14  and  C_19
REMARK    4  A    between atoms: C_16  and  C_20
REMARK                            x       y       z     vdW  Elec       q    Type
REMARK                         _______ _______ _______ _____ _____    ______ ____
ROOT
ATOM      3  O   UNL     1      -6.382 -15.015  16.571  0.00  0.00    -0.268 OA
ATOM      4  O   UNL     1      -8.362 -10.668  18.775  0.00  0.00    -0.275 OA
ATOM      5  N   UNL     1      -6.464 -10.128  17.550  0.00  0.00    -0.300 N 
ATOM      6  N   UNL     1      -5.568 -12.854  16.174  0.00  0.00    -0.311 N 
ATOM      7  C   UNL     1      -4.438 -11.493  18.032  0.00  0.00    +0.027 C 
ATOM      8  C   UNL     1      -4.736 -10.512  15.798  0.00  0.00    +0.054 C 
ATOM      9  C   UNL     1      -3.707 -10.811  16.887  0.00  0.00    +0.018 C 
ATOM     10  C   UNL     1      -5.546 -10.585  18.592  0.00  0.00    +0.113 C 
ATOM     11  C   UNL     1      -4.993 -12.826  17.527  0.00  0.00    +0.130 C 
ATOM     12  C   UNL     1      -5.816  -9.564  16.358  0.00  0.00    +0.117 C 
ATOM     13  C   UNL     1      -5.382 -11.795  15.262  0.00  0.00    +0.035 A 
ATOM     14  C   UNL     1      -5.796 -11.933  13.973  0.00  0.00    +0.009 A 
ATOM     15  C   UNL     1      -6.206 -14.056  15.819  0.00  0.00    +0.252 A 
ATOM     16  C   UNL     1      -7.840 -10.188  17.766  0.00  0.00    +0.225 C 
ATOM     17  C   UNL     1      -6.463 -13.158  13.573  0.00  0.00    +0.016 A 
ATOM     18  C   UNL     1      -6.682 -14.163  14.422  0.00  0.00    +0.071 A 
ENDROOT
BRANCH  14  19
ATOM      1  S   UNL     1      -6.846  -9.743  12.743  0.00  0.00    -0.097 S 
ATOM     19  C   UNL     1      -5.595 -10.878  13.018  0.00  0.00    +0.021 A 
ATOM     21  C   UNL     1      -4.486 -10.624  12.240  0.00  0.00    +0.016 A 
ATOM     22  C   UNL     1      -4.667  -9.481  11.408  0.00  0.00    +0.008 A 
ATOM     23  C   UNL     1      -5.907  -8.906  11.582  0.00  0.00    +0.046 A 
ENDBRANCH  14  19
BRANCH  16  20
ATOM     20  C   UNL     1      -8.721  -9.631  16.676  0.00  0.00    +0.164 C 
BRANCH  20   2
ATOM      2  S   UNL     1      -9.717  -8.317  17.395  0.00  0.00    -0.155 S 
ATOM     24  C   UNL     1      -9.981  -7.321  15.907  0.00  0.00    +0.085 C 
ENDBRANCH  20   2
ENDBRANCH  16  20
TORSDOF 3
ENDMDL
MODEL 6
REMARK VINA RESULT:      -5.1     23.753     25.725
REMARK  Name = 7685242
REMARK  4 active torsions:
REMARK  status: ('A' for Active; 'I' for Inactive)
REMARK    1  A    between atoms: S_2  and  C_20
REMARK    2  A    between atoms: S_2  and  C_24
REMARK    3  A    between atoms: C_14  and  C_19
REMARK    4  A    between atoms: C_16  and  C_20
REMARK                            x       y       z     vdW  Elec       q    Type
REMARK                         _______ _______ _______ _____ _____    ______ ____
ROOT
ATOM      3  O   UNL     1      -2.121 -15.168  12.812  0.00  0.00    -0.268 OA
ATOM      4  O   UNL     1      -5.318 -12.951  16.353  0.00  0.00    -0.275 OA
ATOM      5  N   UNL     1      -4.301 -11.299  15.075  0.00  0.00    -0.300 N 
ATOM      6  N   UNL     1      -2.585 -12.873  12.907  0.00  0.00    -0.311 N 
ATOM      7  C   UNL     1      -1.822 -11.440  14.894  0.00  0.00    +0.027 C 
ATOM      8  C   UNL     1      -3.115 -10.421  13.069  0.00  0.00    +0.054 C 
ATOM      9  C   UNL     1      -1.831 -10.301  13.888  0.00  0.00    +0.018 C 
ATOM     10  C   UNL     1      -3.046 -11.361  15.822  0.00  0.00    +0.113 C 
ATOM     11  C   UNL     1      -1.772 -12.763  14.127  0.00  0.00    +0.130 C 
ATOM     12  C   UNL     1      -4.335 -10.294  14.004  0.00  0.00    +0.117 C 
ATOM     13  C   UNL     1      -3.173 -11.746  12.298  0.00  0.00    +0.035 A 
ATOM     14  C   UNL     1      -3.781 -11.872  11.088  0.00  0.00    +0.009 A 
ATOM     15  C   UNL     1      -2.629 -14.155  12.330  0.00  0.00    +0.252 A 
ATOM     16  C   UNL     1      -5.370 -12.112  15.450  0.00  0.00    +0.225 C 
ATOM     17  C   UNL     1      -3.850 -13.182  10.466  0.00  0.00    +0.016 A 
ATOM     18  C   UNL     1      -3.331 -14.271  11.033  0.00  0.00    +0.071 A 
ENDROOT
BRANCH  14  19
ATOM      1  S   UNL     1      -6.053 -10.470  10.555  0.00  0.00    -0.097 S 
ATOM     19  C   UNL     1      -4.367 -10.733  10.434  0.00  0.00    +0.021 A 
ATOM     21  C   UNL     1      -3.744  -9.764   9.679  0.00  0.00    +0.016 A 
ATOM     22  C   UNL     1      -4.666  -8.791   9.193  0.00  0.00    +0.008 A 
ATOM     23  C   UNL     1      -5.956  -9.055   9.596  0.00  0.00    +0.046 A 
ENDBRANCH  14  19
BRANCH  16  20
ATOM     20  C   UNL     1      -6.655 -11.939  14.679  0.00  0.00    +0.164 C 
BRANCH  20   2
ATOM      2  S   UNL     1      -7.961 -11.586  15.865  0.00  0.00    -0.155 S 
ATOM     24  C   UNL     1      -7.712  -9.801  16.030  0.00  0.00    +0.085 C 
ENDBRANCH  20   2
ENDBRANCH  16  20
TORSDOF 3
ENDMDL
MODEL 7
REMARK VINA RESULT:      -5.0     25.291     27.307
REMARK  Name = 7685242
REMARK  4 active torsions:
REMARK  status: ('A' for Active; 'I' for Inactive)
REMARK    1  A    between atoms: S_2  and  C_20
REMARK    2  A    between atoms: S_2  and  C_24
REMARK    3  A    between atoms: C_14  and  C_19
REMARK    4  A    between atoms: C_16  and  C_20
REMARK                            x       y       z     vdW  Elec       q    Type
REMARK                         _______ _______ _______ _____ _____    ______ ____
ROOT
ATOM      3  O   UNL     1      -5.998 -15.305  16.741  0.00  0.00    -0.268 OA
ATOM      4  O   UNL     1      -8.394 -10.714  17.665  0.00  0.00    -0.275 OA
ATOM      5  N   UNL     1      -6.175 -10.336  17.092  0.00  0.00    -0.300 N 
ATOM      6  N   UNL     1      -5.001 -13.212  16.403  0.00  0.00    -0.311 N 
ATOM      7  C   UNL     1      -4.487 -11.646  18.369  0.00  0.00    +0.027 C 
ATOM      8  C   UNL     1      -3.985 -10.936  16.071  0.00  0.00    +0.054 C 
ATOM      9  C   UNL     1      -3.389 -11.110  17.467  0.00  0.00    +0.018 C 
ATOM     10  C   UNL     1      -5.675 -10.671  18.424  0.00  0.00    +0.113 C 
ATOM     11  C   UNL     1      -4.904 -13.026  17.858  0.00  0.00    +0.130 C 
ATOM     12  C   UNL     1      -5.145  -9.922  16.130  0.00  0.00    +0.117 C 
ATOM     13  C   UNL     1      -4.475 -12.270  15.495  0.00  0.00    +0.035 A 
ATOM     14  C   UNL     1      -4.446 -12.558  14.165  0.00  0.00    +0.009 A 
ATOM     15  C   UNL     1      -5.540 -14.443  15.990  0.00  0.00    +0.252 A 
ATOM     16  C   UNL     1      -7.547 -10.361  16.841  0.00  0.00    +0.225 C 
ATOM     17  C   UNL     1      -4.998 -13.818  13.703  0.00  0.00    +0.016 A 
ATOM     18  C   UNL     1      -5.531 -14.714  14.536  0.00  0.00    +0.071 A 
ENDROOT
BRANCH  14  19
ATOM      1  S   UNL     1      -2.210 -11.643  12.909  0.00  0.00    -0.097 S 
ATOM     19  C   UNL     1      -3.893 -11.626  13.221  0.00  0.00    +0.021 A 
ATOM     21  C   UNL     1      -4.545 -10.661  12.485  0.00  0.00    +0.016 A 
ATOM     22  C   UNL     1      -3.650  -9.927  11.653  0.00  0.00    +0.008 A 
ATOM     23  C   UNL     1      -2.349 -10.359  11.786  0.00  0.00    +0.046 A 
ENDBRANCH  14  19
BRANCH  16  20
ATOM     20  C   UNL     1      -7.992  -9.932  15.466  0.00  0.00    +0.164 C 
BRANCH  20   2
ATOM      2  S   UNL     1      -9.372 -10.980  14.986  0.00  0.00    -0.155 S 
ATOM     24  C   UNL     1      -8.450 -12.477  14.555  0.00  0.00    +0.085 C 
ENDBRANCH  20   2
ENDBRANCH  16  20
TORSDOF 3
ENDMDL
MODEL 8
REMARK VINA RESULT:      -4.8     23.399     25.631
REMARK  Name = 7685242
REMARK  4 active torsions:
REMARK  status: ('A' for Active; 'I' for Inactive)
REMARK    1  A    between atoms: S_2  and  C_20
REMARK    2  A    between atoms: S_2  and  C_24
REMARK    3  A    between atoms: C_14  and  C_19
REMARK    4  A    between atoms: C_16  and  C_20
REMARK                            x       y       z     vdW  Elec       q    Type
REMARK                         _______ _______ _______ _____ _____    ______ ____
ROOT
ATOM      3  O   UNL     1      23.071  -5.324  25.201  0.00  0.00    -0.268 OA
ATOM      4  O   UNL     1      20.486  -4.045  29.600  0.00  0.00    -0.275 OA
ATOM      5  N   UNL     1      20.027  -2.484  27.942  0.00  0.00    -0.300 N 
ATOM      6  N   UNL     1      21.532  -3.563  25.356  0.00  0.00    -0.311 N 
ATOM      7  C   UNL     1      22.009  -1.499  26.802  0.00  0.00    +0.027 C 
ATOM      8  C   UNL     1      19.879  -1.683  25.589  0.00  0.00    +0.054 C 
ATOM      9  C   UNL     1      21.090  -0.783  25.826  0.00  0.00    +0.018 C 
ATOM     10  C   UNL     1      21.288  -1.769  28.133  0.00  0.00    +0.113 C 
ATOM     11  C   UNL     1      22.501  -2.790  26.146  0.00  0.00    +0.130 C 
ATOM     12  C   UNL     1      19.138  -1.910  26.923  0.00  0.00    +0.117 C 
ATOM     13  C   UNL     1      20.286  -3.028  24.972  0.00  0.00    +0.035 A 
ATOM     14  C   UNL     1      19.490  -3.717  24.110  0.00  0.00    +0.009 A 
ATOM     15  C   UNL     1      21.987  -4.817  24.909  0.00  0.00    +0.252 A 
ATOM     16  C   UNL     1      19.723  -3.579  28.751  0.00  0.00    +0.225 C 
ATOM     17  C   UNL     1      19.926  -5.017  23.633  0.00  0.00    +0.016 A 
ATOM     18  C   UNL     1      21.085  -5.562  24.003  0.00  0.00    +0.071 A 
ENDROOT
BRANCH  14  19
ATOM      1  S   UNL     1      16.790  -3.705  24.455  0.00  0.00    -0.097 S 
ATOM     19  C   UNL     1      18.226  -3.182  23.685  0.00  0.00    +0.021 A 
ATOM     21  C   UNL     1      17.974  -2.259  22.694  0.00  0.00    +0.016 A 
ATOM     22  C   UNL     1      16.583  -1.977  22.565  0.00  0.00    +0.008 A 
ATOM     23  C   UNL     1      15.825  -2.696  23.463  0.00  0.00    +0.046 A 
ENDBRANCH  14  19
BRANCH  16  20
ATOM     20  C   UNL     1      18.373  -4.218  28.544  0.00  0.00    +0.164 C 
BRANCH  20   2
ATOM      2  S   UNL     1      17.444  -4.041  30.074  0.00  0.00    -0.155 S 
ATOM     24  C   UNL     1      16.870  -2.338  29.856  0.00  0.00    +0.085 C 
ENDBRANCH  20   2
ENDBRANCH  16  20
TORSDOF 3
ENDMDL
MODEL 9
REMARK VINA RESULT:      -4.8      1.724      2.206
REMARK  Name = 7685242
REMARK  4 active torsions:
REMARK  status: ('A' for Active; 'I' for Inactive)
REMARK    1  A    between atoms: S_2  and  C_20
REMARK    2  A    between atoms: S_2  and  C_24
REMARK    3  A    between atoms: C_14  and  C_19
REMARK    4  A    between atoms: C_16  and  C_20
REMARK                            x       y       z     vdW  Elec       q    Type
REMARK                         _______ _______ _______ _____ _____    ______ ____
ROOT
ATOM      3  O   UNL     1       7.355   8.659   3.423  0.00  0.00    -0.268 OA
ATOM      4  O   UNL     1       9.814   9.300   8.029  0.00  0.00    -0.275 OA
ATOM      5  N   UNL     1      10.595   7.377   6.987  0.00  0.00    -0.300 N 
ATOM      6  N   UNL     1       9.117   7.307   4.170  0.00  0.00    -0.311 N 
ATOM      7  C   UNL     1       8.850   5.779   6.213  0.00  0.00    +0.027 C 
ATOM      8  C   UNL     1      11.003   5.887   5.033  0.00  0.00    +0.054 C 
ATOM      9  C   UNL     1       9.921   4.936   5.540  0.00  0.00    +0.018 C 
ATOM     10  C   UNL     1       9.439   6.576   7.388  0.00  0.00    +0.113 C 
ATOM     11  C   UNL     1       8.221   6.693   5.161  0.00  0.00    +0.130 C 
ATOM     12  C   UNL     1      11.619   6.648   6.226  0.00  0.00    +0.117 C 
ATOM     13  C   UNL     1      10.448   6.877   4.001  0.00  0.00    +0.035 A 
ATOM     14  C   UNL     1      11.190   7.363   2.969  0.00  0.00    +0.009 A 
ATOM     15  C   UNL     1       8.516   8.260   3.328  0.00  0.00    +0.252 A 
ATOM     16  C   UNL     1      10.688   8.709   7.390  0.00  0.00    +0.225 C 
ATOM     17  C   UNL     1      10.603   8.353   2.084  0.00  0.00    +0.016 A 
ATOM     18  C   UNL     1       9.357   8.802   2.238  0.00  0.00    +0.071 A 
ENDROOT
BRANCH  14  19
ATOM      1  S   UNL     1      12.841   5.580   1.743  0.00  0.00    -0.097 S 
ATOM     19  C   UNL     1      12.542   6.923   2.761  0.00  0.00    +0.021 A 
ATOM     21  C   UNL     1      13.705   7.443   3.285  0.00  0.00    +0.016 A 
ATOM     22  C   UNL     1      14.857   6.730   2.845  0.00  0.00    +0.008 A 
ATOM     23  C   UNL     1      14.530   5.691   2.001  0.00  0.00    +0.046 A 
ENDBRANCH  14  19
BRANCH  16  20
ATOM     20  C   UNL     1      11.943   9.448   7.000  0.00  0.00    +0.164 C 
BRANCH  20   2
ATOM      2  S   UNL     1      12.081  10.891   8.065  0.00  0.00    -0.155 S 
ATOM     24  C   UNL     1      11.752  12.177   6.834  0.00  0.00    +0.085 C 
ENDBRANCH  20   2
ENDBRANCH  16  20
TORSDOF 3
ENDMDL
MODEL 10
REMARK VINA RESULT:      -4.8      3.792      6.900
REMARK  Name = 7685242
REMARK  4 active torsions:
REMARK  status: ('A' for Active; 'I' for Inactive)
REMARK    1  A    between atoms: S_2  and  C_20
REMARK    2  A    between atoms: S_2  and  C_24
REMARK    3  A    between atoms: C_14  and  C_19
REMARK    4  A    between atoms: C_16  and  C_20
REMARK                            x       y       z     vdW  Elec       q    Type
REMARK                         _______ _______ _______ _____ _____    ______ ____
ROOT
ATOM      3  O   UNL     1      15.333   6.985   1.269  0.00  0.00    -0.268 OA
ATOM      4  O   UNL     1      11.567   5.685  -2.167  0.00  0.00    -0.275 OA
ATOM      5  N   UNL     1      11.171   4.629  -0.136  0.00  0.00    -0.300 N 
ATOM      6  N   UNL     1      13.445   5.706   1.810  0.00  0.00    -0.311 N 
ATOM      7  C   UNL     1      13.091   3.366   0.822  0.00  0.00    +0.027 C 
ATOM      8  C   UNL     1      11.404   4.332   2.326  0.00  0.00    +0.054 C 
ATOM      9  C   UNL     1      12.291   3.111   2.088  0.00  0.00    +0.018 C 
ATOM     10  C   UNL     1      12.158   3.578  -0.382  0.00  0.00    +0.113 C 
ATOM     11  C   UNL     1      14.001   4.572   1.058  0.00  0.00    +0.130 C 
ATOM     12  C   UNL     1      10.441   4.508   1.133  0.00  0.00    +0.117 C 
ATOM     13  C   UNL     1      12.236   5.605   2.528  0.00  0.00    +0.035 A 
ATOM     14  C   UNL     1      11.841   6.625   3.336  0.00  0.00    +0.009 A 
ATOM     15  C   UNL     1      14.263   6.850   1.863  0.00  0.00    +0.252 A 
ATOM     16  C   UNL     1      10.940   5.602  -1.108  0.00  0.00    +0.225 C 
ATOM     17  C   UNL     1      12.659   7.823   3.410  0.00  0.00    +0.016 A 
ATOM     18  C   UNL     1      13.791   7.960   2.719  0.00  0.00    +0.071 A 
ENDROOT
BRANCH  14  19
ATOM      1  S   UNL     1      10.658   5.829   5.655  0.00  0.00    -0.097 S 
ATOM     19  C   UNL     1      10.625   6.536   4.097  0.00  0.00    +0.021 A 
ATOM     21  C   UNL     1       9.361   6.956   3.746  0.00  0.00    +0.016 A 
ATOM     22  C   UNL     1       8.406   6.693   4.771  0.00  0.00    +0.008 A 
ATOM     23  C   UNL     1       8.978   6.082   5.865  0.00  0.00    +0.046 A 
ENDBRANCH  14  19
BRANCH  16  20
ATOM     20  C   UNL     1       9.856   6.608  -0.813  0.00  0.00    +0.164 C 
BRANCH  20   2
ATOM      2  S   UNL     1       9.490   7.481  -2.343  0.00  0.00    -0.155 S 
ATOM     24  C   UNL     1       7.982   6.598  -2.813  0.00  0.00    +0.085 C 
ENDBRANCH  20   2
ENDBRANCH  16  20
TORSDOF 3
ENDMDL
