MODEL 1
REMARK VINA RESULT:      -6.9      0.000      0.000
REMARK  Name = 56775608
REMARK  8 active torsions:
REMARK  status: ('A' for Active; 'I' for Inactive)
REMARK    1  A    between atoms: O_6  and  C_23
REMARK    2  A    between atoms: N_7  and  C_9
REMARK    3  A    between atoms: N_7  and  C_13
REMARK    4  A    between atoms: C_9  and  C_12
REMARK    5  A    between atoms: C_12  and  C_14
REMARK    6  A    between atoms: C_13  and  C_15
REMARK    7  A    between atoms: C_17  and  C_23
REMARK    8  A    between atoms: C_22  and  C_24
REMARK                            x       y       z     vdW  Elec       q    Type
REMARK                         _______ _______ _______ _____ _____    ______ ____
ROOT
ATOM      7  N   UNL     1      13.701   8.115  20.109  0.00  0.00    -0.302 NA
ATOM     25  H   UNL     1      13.298   8.016  21.041  0.00  0.00    +0.123 HD
ENDROOT
BRANCH   7   9
ATOM      4  O   UNL     1      13.808   9.322  17.330  0.00  0.00    -0.376 OA
ATOM      9  C   UNL     1      12.803   8.682  19.101  0.00  0.00    +0.072 C 
ATOM     10  C   UNL     1      13.161   8.095  17.740  0.00  0.00    +0.184 C 
ATOM     11  C   UNL     1      13.417   9.969  18.563  0.00  0.00    +0.184 C 
BRANCH   9  12
ATOM     12  C   UNL     1      11.369   8.687  19.534  0.00  0.00    +0.085 C 
BRANCH  12  14
ATOM      5  O   UNL     1      10.995   8.912  23.121  0.00  0.00    -0.357 OA
ATOM      8  N   UNL     1      11.064   8.193  21.933  0.00  0.00    -0.083 NA
ATOM     14  C   UNL     1      11.245   9.113  20.982  0.00  0.00    +0.086 A 
ATOM     16  C   UNL     1      11.297  10.418  21.504  0.00  0.00    +0.073 A 
ATOM     17  C   UNL     1      11.136  10.235  22.851  0.00  0.00    +0.163 A 
BRANCH  17  23
ATOM     23  C   UNL     1      11.087  11.146  24.002  0.00  0.00    +0.232 C 
BRANCH  23   6
ATOM      6  O   UNL     1      11.275  10.420  25.219  0.00  0.00    -0.387 OA
ATOM     26  H   UNL     1      11.780   9.619  24.996  0.00  0.00    +0.210 HD
ENDBRANCH  23   6
ENDBRANCH  17  23
ENDBRANCH  12  14
ENDBRANCH   9  12
ENDBRANCH   7   9
BRANCH   7  13
ATOM     13  C   UNL     1      14.191   6.818  19.642  0.00  0.00    +0.117 C 
BRANCH  13  15
ATOM     15  C   UNL     1      15.642   6.623  19.929  0.00  0.00    -0.034 A 
ATOM     18  C   UNL     1      16.466   6.015  18.981  0.00  0.00    +0.005 A 
ATOM     19  C   UNL     1      16.177   7.047  21.146  0.00  0.00    +0.005 A 
ATOM     20  C   UNL     1      17.822   5.833  19.249  0.00  0.00    +0.012 A 
ATOM     21  C   UNL     1      17.533   6.865  21.414  0.00  0.00    +0.012 A 
ATOM     22  C   UNL     1      18.355   6.257  20.465  0.00  0.00    +0.055 A 
BRANCH  22  24
ATOM      1  F   UNL     1      20.077   5.795  22.061  0.00  0.00    -0.166 F 
ATOM      2  F   UNL     1      20.552   7.167  20.443  0.00  0.00    -0.166 F 
ATOM      3  F   UNL     1      20.371   5.035  20.051  0.00  0.00    -0.166 F 
ATOM     24  C   UNL     1      19.807   6.065  20.750  0.00  0.00    +0.417 C 
ENDBRANCH  22  24
ENDBRANCH  13  15
ENDBRANCH   7  13
TORSDOF 8
ENDMDL
MODEL 2
REMARK VINA RESULT:      -6.8      2.275      5.061
REMARK  Name = 56775608
REMARK  8 active torsions:
REMARK  status: ('A' for Active; 'I' for Inactive)
REMARK    1  A    between atoms: O_6  and  C_23
REMARK    2  A    between atoms: N_7  and  C_9
REMARK    3  A    between atoms: N_7  and  C_13
REMARK    4  A    between atoms: C_9  and  C_12
REMARK    5  A    between atoms: C_12  and  C_14
REMARK    6  A    between atoms: C_13  and  C_15
REMARK    7  A    between atoms: C_17  and  C_23
REMARK    8  A    between atoms: C_22  and  C_24
REMARK                            x       y       z     vdW  Elec       q    Type
REMARK                         _______ _______ _______ _____ _____    ______ ____
ROOT
ATOM      7  N   UNL     1      14.524   8.201  18.559  0.00  0.00    -0.302 NA
ATOM     25  H   UNL     1      15.338   8.793  18.718  0.00  0.00    +0.123 HD
ENDROOT
BRANCH   7   9
ATOM      4  O   UNL     1      12.813   9.065  20.908  0.00  0.00    -0.376 OA
ATOM      9  C   UNL     1      13.232   8.835  18.828  0.00  0.00    +0.072 C 
ATOM     10  C   UNL     1      13.422   9.903  19.899  0.00  0.00    +0.184 C 
ATOM     11  C   UNL     1      12.517   8.050  19.922  0.00  0.00    +0.184 C 
BRANCH   9  12
ATOM     12  C   UNL     1      12.484   9.187  17.579  0.00  0.00    +0.085 C 
BRANCH  12  14
ATOM      5  O   UNL     1      14.636   9.113  14.677  0.00  0.00    -0.357 OA
ATOM      8  N   UNL     1      13.756   8.516  15.573  0.00  0.00    -0.083 NA
ATOM     14  C   UNL     1      13.441   9.480  16.443  0.00  0.00    +0.086 A 
ATOM     16  C   UNL     1      14.085  10.696  16.150  0.00  0.00    +0.073 A 
ATOM     17  C   UNL     1      14.823  10.411  15.032  0.00  0.00    +0.163 A 
BRANCH  17  23
ATOM     23  C   UNL     1      15.731  11.195  14.186  0.00  0.00    +0.232 C 
BRANCH  23   6
ATOM      6  O   UNL     1      15.633  10.771  12.825  0.00  0.00    -0.387 OA
ATOM     26  H   UNL     1      14.705  10.528  12.669  0.00  0.00    +0.210 HD
ENDBRANCH  23   6
ENDBRANCH  17  23
ENDBRANCH  12  14
ENDBRANCH   9  12
ENDBRANCH   7   9
BRANCH   7  13
ATOM     13  C   UNL     1      14.636   6.980  19.359  0.00  0.00    +0.117 C 
BRANCH  13  15
ATOM     15  C   UNL     1      16.051   6.655  19.703  0.00  0.00    -0.034 A 
ATOM     18  C   UNL     1      16.818   5.875  18.837  0.00  0.00    +0.005 A 
ATOM     19  C   UNL     1      16.608   7.130  20.891  0.00  0.00    +0.005 A 
ATOM     20  C   UNL     1      18.141   5.572  19.158  0.00  0.00    +0.012 A 
ATOM     21  C   UNL     1      17.931   6.826  21.211  0.00  0.00    +0.012 A 
ATOM     22  C   UNL     1      18.697   6.047  20.345  0.00  0.00    +0.055 A 
BRANCH  22  24
ATOM      1  F   UNL     1      21.008   6.654  20.241  0.00  0.00    -0.166 F 
ATOM      2  F   UNL     1      20.523   4.536  20.155  0.00  0.00    -0.166 F 
ATOM      3  F   UNL     1      20.342   5.624  22.030  0.00  0.00    -0.166 F 
ATOM     24  C   UNL     1      20.113   5.725  20.687  0.00  0.00    +0.417 C 
ENDBRANCH  22  24
ENDBRANCH  13  15
ENDBRANCH   7  13
TORSDOF 8
ENDMDL
MODEL 3
REMARK VINA RESULT:      -6.3     15.809     18.072
REMARK  Name = 56775608
REMARK  8 active torsions:
REMARK  status: ('A' for Active; 'I' for Inactive)
REMARK    1  A    between atoms: O_6  and  C_23
REMARK    2  A    between atoms: N_7  and  C_9
REMARK    3  A    between atoms: N_7  and  C_13
REMARK    4  A    between atoms: C_9  and  C_12
REMARK    5  A    between atoms: C_12  and  C_14
REMARK    6  A    between atoms: C_13  and  C_15
REMARK    7  A    between atoms: C_17  and  C_23
REMARK    8  A    between atoms: C_22  and  C_24
REMARK                            x       y       z     vdW  Elec       q    Type
REMARK                         _______ _______ _______ _____ _____    ______ ____
ROOT
ATOM      7  N   UNL     1      11.831   5.673   4.185  0.00  0.00    -0.302 NA
ATOM     25  H   UNL     1      12.630   5.179   4.580  0.00  0.00    +0.123 HD
ENDROOT
BRANCH   7   9
ATOM      4  O   UNL     1      12.229   8.178   5.846  0.00  0.00    -0.376 OA
ATOM      9  C   UNL     1      11.095   6.520   5.126  0.00  0.00    +0.072 C 
ATOM     10  C   UNL     1      11.312   7.980   4.746  0.00  0.00    +0.184 C 
ATOM     11  C   UNL     1      11.995   6.831   6.316  0.00  0.00    +0.184 C 
BRANCH   9  12
ATOM     12  C   UNL     1       9.700   6.036   5.377  0.00  0.00    +0.085 C 
BRANCH  12  14
ATOM      5  O   UNL     1       8.855   6.549   8.853  0.00  0.00    -0.357 OA
ATOM      8  N   UNL     1       9.005   6.992   7.544  0.00  0.00    -0.083 NA
ATOM     14  C   UNL     1       9.429   5.924   6.863  0.00  0.00    +0.086 A 
ATOM     16  C   UNL     1       9.564   4.788   7.681  0.00  0.00    +0.073 A 
ATOM     17  C   UNL     1       9.191   5.235   8.921  0.00  0.00    +0.163 A 
BRANCH  17  23
ATOM     23  C   UNL     1       9.091   4.602  10.242  0.00  0.00    +0.232 C 
BRANCH  23   6
ATOM      6  O   UNL     1      10.380   4.523  10.854  0.00  0.00    -0.387 OA
ATOM     26  H   UNL     1      11.031   4.443  10.136  0.00  0.00    +0.210 HD
ENDBRANCH  23   6
ENDBRANCH  17  23
ENDBRANCH  12  14
ENDBRANCH   9  12
ENDBRANCH   7   9
BRANCH   7  13
ATOM     13  C   UNL     1      10.908   4.714   3.577  0.00  0.00    +0.117 C 
BRANCH  13  15
ATOM     15  C   UNL     1      11.307   4.344   2.188  0.00  0.00    -0.034 A 
ATOM     18  C   UNL     1      12.460   3.589   1.972  0.00  0.00    +0.005 A 
ATOM     19  C   UNL     1      10.527   4.751   1.105  0.00  0.00    +0.005 A 
ATOM     20  C   UNL     1      12.833   3.242   0.673  0.00  0.00    +0.012 A 
ATOM     21  C   UNL     1      10.900   4.403  -0.193  0.00  0.00    +0.012 A 
ATOM     22  C   UNL     1      12.053   3.649  -0.408  0.00  0.00    +0.055 A 
BRANCH  22  24
ATOM      1  F   UNL     1      13.757   3.546  -2.084  0.00  0.00    -0.166 F 
ATOM      2  F   UNL     1      11.723   3.933  -2.746  0.00  0.00    -0.166 F 
ATOM      3  F   UNL     1      12.293   1.946  -2.071  0.00  0.00    -0.166 F 
ATOM     24  C   UNL     1      12.450   3.275  -1.797  0.00  0.00    +0.417 C 
ENDBRANCH  22  24
ENDBRANCH  13  15
ENDBRANCH   7  13
TORSDOF 8
ENDMDL
MODEL 4
REMARK VINA RESULT:      -6.2     16.660     19.652
REMARK  Name = 56775608
REMARK  8 active torsions:
REMARK  status: ('A' for Active; 'I' for Inactive)
REMARK    1  A    between atoms: O_6  and  C_23
REMARK    2  A    between atoms: N_7  and  C_9
REMARK    3  A    between atoms: N_7  and  C_13
REMARK    4  A    between atoms: C_9  and  C_12
REMARK    5  A    between atoms: C_12  and  C_14
REMARK    6  A    between atoms: C_13  and  C_15
REMARK    7  A    between atoms: C_17  and  C_23
REMARK    8  A    between atoms: C_22  and  C_24
REMARK                            x       y       z     vdW  Elec       q    Type
REMARK                         _______ _______ _______ _____ _____    ______ ____
ROOT
ATOM      7  N   UNL     1      12.967   5.614   2.861  0.00  0.00    -0.302 NA
ATOM     25  H   UNL     1      13.439   6.509   2.987  0.00  0.00    +0.123 HD
ENDROOT
BRANCH   7   9
ATOM      4  O   UNL     1      14.314   3.094   1.848  0.00  0.00    -0.376 OA
ATOM      9  C   UNL     1      13.256   4.931   1.599  0.00  0.00    +0.072 C 
ATOM     10  C   UNL     1      12.916   3.453   1.752  0.00  0.00    +0.184 C 
ATOM     11  C   UNL     1      14.707   4.465   1.612  0.00  0.00    +0.184 C 
BRANCH   9  12
ATOM     12  C   UNL     1      12.742   5.673   0.403  0.00  0.00    +0.085 C 
BRANCH  12  14
ATOM      5  O   UNL     1      10.249   3.748  -1.368  0.00  0.00    -0.357 OA
ATOM      8  N   UNL     1      10.635   4.667  -0.399  0.00  0.00    -0.083 NA
ATOM     14  C   UNL     1      11.964   4.748  -0.510  0.00  0.00    +0.086 A 
ATOM     16  C   UNL     1      12.468   3.912  -1.523  0.00  0.00    +0.073 A 
ATOM     17  C   UNL     1      11.349   3.307  -2.030  0.00  0.00    +0.163 A 
BRANCH  17  23
ATOM     23  C   UNL     1      11.120   2.324  -3.096  0.00  0.00    +0.232 C 
BRANCH  23   6
ATOM      6  O   UNL     1       9.883   1.640  -2.884  0.00  0.00    -0.387 OA
ATOM     26  H   UNL     1       9.637   1.780  -1.954  0.00  0.00    +0.210 HD
ENDBRANCH  23   6
ENDBRANCH  17  23
ENDBRANCH  12  14
ENDBRANCH   9  12
ENDBRANCH   7   9
BRANCH   7  13
ATOM     13  C   UNL     1      11.521   5.794   2.990  0.00  0.00    +0.117 C 
BRANCH  13  15
ATOM     15  C   UNL     1      11.059   5.691   4.405  0.00  0.00    -0.034 A 
ATOM     18  C   UNL     1      11.627   6.506   5.385  0.00  0.00    +0.005 A 
ATOM     19  C   UNL     1      10.061   4.779   4.749  0.00  0.00    +0.005 A 
ATOM     20  C   UNL     1      11.195   6.409   6.708  0.00  0.00    +0.012 A 
ATOM     21  C   UNL     1       9.630   4.683   6.072  0.00  0.00    +0.012 A 
ATOM     22  C   UNL     1      10.197   5.498   7.051  0.00  0.00    +0.055 A 
BRANCH  22  24
ATOM      1  F   UNL     1       8.732   6.273   8.777  0.00  0.00    -0.166 F 
ATOM      2  F   UNL     1      10.731   5.648   9.364  0.00  0.00    -0.166 F 
ATOM      3  F   UNL     1       9.245   4.165   8.795  0.00  0.00    -0.166 F 
ATOM     24  C   UNL     1       9.733   5.398   8.466  0.00  0.00    +0.417 C 
ENDBRANCH  22  24
ENDBRANCH  13  15
ENDBRANCH   7  13
TORSDOF 8
ENDMDL
MODEL 5
REMARK VINA RESULT:      -6.1     27.091     28.305
REMARK  Name = 56775608
REMARK  8 active torsions:
REMARK  status: ('A' for Active; 'I' for Inactive)
REMARK    1  A    between atoms: O_6  and  C_23
REMARK    2  A    between atoms: N_7  and  C_9
REMARK    3  A    between atoms: N_7  and  C_13
REMARK    4  A    between atoms: C_9  and  C_12
REMARK    5  A    between atoms: C_12  and  C_14
REMARK    6  A    between atoms: C_13  and  C_15
REMARK    7  A    between atoms: C_17  and  C_23
REMARK    8  A    between atoms: C_22  and  C_24
REMARK                            x       y       z     vdW  Elec       q    Type
REMARK                         _______ _______ _______ _____ _____    ______ ____
ROOT
ATOM      7  N   UNL     1      -3.246 -10.441  13.849  0.00  0.00    -0.302 NA
ATOM     25  H   UNL     1      -3.386  -9.483  14.169  0.00  0.00    +0.123 HD
ENDROOT
BRANCH   7   9
ATOM      4  O   UNL     1      -2.390 -13.337  14.124  0.00  0.00    -0.376 OA
ATOM      9  C   UNL     1      -2.781 -11.377  14.874  0.00  0.00    +0.072 C 
ATOM     10  C   UNL     1      -1.587 -12.151  14.328  0.00  0.00    +0.184 C 
ATOM     11  C   UNL     1      -3.538 -12.692  14.721  0.00  0.00    +0.184 C 
BRANCH   9  12
ATOM     12  C   UNL     1      -2.679 -10.752  16.232  0.00  0.00    +0.085 C 
BRANCH  12  14
ATOM      5  O   UNL     1      -6.093 -10.036  17.175  0.00  0.00    -0.357 OA
ATOM      8  N   UNL     1      -4.991  -9.892  16.341  0.00  0.00    -0.083 NA
ATOM     14  C   UNL     1      -4.042 -10.660  16.886  0.00  0.00    +0.086 A 
ATOM     16  C   UNL     1      -4.484 -11.306  18.054  0.00  0.00    +0.073 A 
ATOM     17  C   UNL     1      -5.779 -10.880  18.191  0.00  0.00    +0.163 A 
BRANCH  17  23
ATOM     23  C   UNL     1      -6.837 -11.145  19.173  0.00  0.00    +0.232 C 
BRANCH  23   6
ATOM      6  O   UNL     1      -6.854 -10.123  20.173  0.00  0.00    -0.387 OA
ATOM     26  H   UNL     1      -6.173 -10.356  20.827  0.00  0.00    +0.210 HD
ENDBRANCH  23   6
ENDBRANCH  17  23
ENDBRANCH  12  14
ENDBRANCH   9  12
ENDBRANCH   7   9
BRANCH   7  13
ATOM     13  C   UNL     1      -2.309 -10.456  12.725  0.00  0.00    +0.117 C 
BRANCH  13  15
ATOM     15  C   UNL     1      -3.004 -10.548  11.408  0.00  0.00    -0.034 A 
ATOM     18  C   UNL     1      -3.430 -11.788  10.929  0.00  0.00    +0.005 A 
ATOM     19  C   UNL     1      -3.228  -9.396  10.654  0.00  0.00    +0.005 A 
ATOM     20  C   UNL     1      -4.080 -11.874   9.699  0.00  0.00    +0.012 A 
ATOM     21  C   UNL     1      -3.878  -9.483   9.423  0.00  0.00    +0.012 A 
ATOM     22  C   UNL     1      -4.304 -10.722   8.946  0.00  0.00    +0.055 A 
BRANCH  22  24
ATOM      1  F   UNL     1      -5.315  -9.600   7.090  0.00  0.00    -0.166 F 
ATOM      2  F   UNL     1      -6.183 -11.495   7.711  0.00  0.00    -0.166 F 
ATOM      3  F   UNL     1      -4.275 -11.456   6.669  0.00  0.00    -0.166 F 
ATOM     24  C   UNL     1      -5.002 -10.815   7.631  0.00  0.00    +0.417 C 
ENDBRANCH  22  24
ENDBRANCH  13  15
ENDBRANCH   7  13
TORSDOF 8
ENDMDL
MODEL 6
REMARK VINA RESULT:      -6.1      2.648      4.661
REMARK  Name = 56775608
REMARK  8 active torsions:
REMARK  status: ('A' for Active; 'I' for Inactive)
REMARK    1  A    between atoms: O_6  and  C_23
REMARK    2  A    between atoms: N_7  and  C_9
REMARK    3  A    between atoms: N_7  and  C_13
REMARK    4  A    between atoms: C_9  and  C_12
REMARK    5  A    between atoms: C_12  and  C_14
REMARK    6  A    between atoms: C_13  and  C_15
REMARK    7  A    between atoms: C_17  and  C_23
REMARK    8  A    between atoms: C_22  and  C_24
REMARK                            x       y       z     vdW  Elec       q    Type
REMARK                         _______ _______ _______ _____ _____    ______ ____
ROOT
ATOM      7  N   UNL     1      13.079  10.891  23.608  0.00  0.00    -0.302 NA
ATOM     25  H   UNL     1      12.858   9.906  23.464  0.00  0.00    +0.123 HD
ENDROOT
BRANCH   7   9
ATOM      4  O   UNL     1      11.923  13.479  24.684  0.00  0.00    -0.376 OA
ATOM      9  C   UNL     1      11.979  11.820  23.342  0.00  0.00    +0.072 C 
ATOM     10  C   UNL     1      12.519  13.245  23.387  0.00  0.00    +0.184 C 
ATOM     11  C   UNL     1      11.302  12.174  24.661  0.00  0.00    +0.184 C 
BRANCH   9  12
ATOM     12  C   UNL     1      11.132  11.403  22.179  0.00  0.00    +0.085 C 
BRANCH  12  14
ATOM      5  O   UNL     1      11.082   7.798  22.422  0.00  0.00    -0.357 OA
ATOM      8  N   UNL     1      10.899   9.071  22.952  0.00  0.00    -0.083 NA
ATOM     14  C   UNL     1      11.217   9.907  21.960  0.00  0.00    +0.086 A 
ATOM     16  C   UNL     1      11.604   9.227  20.791  0.00  0.00    +0.073 A 
ATOM     17  C   UNL     1      11.501   7.906  21.136  0.00  0.00    +0.163 A 
BRANCH  17  23
ATOM     23  C   UNL     1      11.745   6.647  20.420  0.00  0.00    +0.232 C 
BRANCH  23   6
ATOM      6  O   UNL     1      11.044   5.573  21.050  0.00  0.00    -0.387 OA
ATOM     26  H   UNL     1      10.168   5.521  20.630  0.00  0.00    +0.210 HD
ENDBRANCH  23   6
ENDBRANCH  17  23
ENDBRANCH  12  14
ENDBRANCH   9  12
ENDBRANCH   7   9
BRANCH   7  13
ATOM     13  C   UNL     1      14.233  11.264  22.790  0.00  0.00    +0.117 C 
BRANCH  13  15
ATOM     15  C   UNL     1      14.743  10.124  21.974  0.00  0.00    -0.034 A 
ATOM     18  C   UNL     1      15.212  10.348  20.679  0.00  0.00    +0.005 A 
ATOM     19  C   UNL     1      14.750   8.834  22.504  0.00  0.00    +0.005 A 
ATOM     20  C   UNL     1      15.690   9.282  19.916  0.00  0.00    +0.012 A 
ATOM     21  C   UNL     1      15.227   7.769  21.741  0.00  0.00    +0.012 A 
ATOM     22  C   UNL     1      15.697   7.993  20.447  0.00  0.00    +0.055 A 
BRANCH  22  24
ATOM      1  F   UNL     1      17.560   6.891  19.428  0.00  0.00    -0.166 F 
ATOM      2  F   UNL     1      15.653   6.806  18.387  0.00  0.00    -0.166 F 
ATOM      3  F   UNL     1      15.968   5.630  20.189  0.00  0.00    -0.166 F 
ATOM     24  C   UNL     1      16.210   6.854  19.632  0.00  0.00    +0.417 C 
ENDBRANCH  22  24
ENDBRANCH  13  15
ENDBRANCH   7  13
TORSDOF 8
ENDMDL
MODEL 7
REMARK VINA RESULT:      -6.0     15.652     18.629
REMARK  Name = 56775608
REMARK  8 active torsions:
REMARK  status: ('A' for Active; 'I' for Inactive)
REMARK    1  A    between atoms: O_6  and  C_23
REMARK    2  A    between atoms: N_7  and  C_9
REMARK    3  A    between atoms: N_7  and  C_13
REMARK    4  A    between atoms: C_9  and  C_12
REMARK    5  A    between atoms: C_12  and  C_14
REMARK    6  A    between atoms: C_13  and  C_15
REMARK    7  A    between atoms: C_17  and  C_23
REMARK    8  A    between atoms: C_22  and  C_24
REMARK                            x       y       z     vdW  Elec       q    Type
REMARK                         _______ _______ _______ _____ _____    ______ ____
ROOT
ATOM      7  N   UNL     1      10.604   6.956   2.622  0.00  0.00    -0.302 NA
ATOM     25  H   UNL     1      11.181   7.700   3.013  0.00  0.00    +0.123 HD
ENDROOT
BRANCH   7   9
ATOM      4  O   UNL     1      10.227   8.983   0.399  0.00  0.00    -0.376 OA
ATOM      9  C   UNL     1      10.430   7.003   1.169  0.00  0.00    +0.072 C 
ATOM     10  C   UNL     1      11.341   8.084   0.600  0.00  0.00    +0.184 C 
ATOM     11  C   UNL     1       9.297   7.968   0.839  0.00  0.00    +0.184 C 
BRANCH   9  12
ATOM     12  C   UNL     1      10.434   5.645   0.536  0.00  0.00    +0.085 C 
BRANCH  12  14
ATOM      5  O   UNL     1      12.895   3.445   2.007  0.00  0.00    -0.357 OA
ATOM      8  N   UNL     1      11.606   3.957   1.903  0.00  0.00    -0.083 NA
ATOM     14  C   UNL     1      11.675   4.871   0.931  0.00  0.00    +0.086 A 
ATOM     16  C   UNL     1      12.968   4.979   0.390  0.00  0.00    +0.073 A 
ATOM     17  C   UNL     1      13.695   4.062   1.101  0.00  0.00    +0.163 A 
BRANCH  17  23
ATOM     23  C   UNL     1      15.101   3.639   1.074  0.00  0.00    +0.232 C 
BRANCH  23   6
ATOM      6  O   UNL     1      15.496   3.147   2.357  0.00  0.00    -0.387 OA
ATOM     26  H   UNL     1      14.684   3.042   2.883  0.00  0.00    +0.210 HD
ENDBRANCH  23   6
ENDBRANCH  17  23
ENDBRANCH  12  14
ENDBRANCH   9  12
ENDBRANCH   7   9
BRANCH   7  13
ATOM     13  C   UNL     1       9.288   6.960   3.263  0.00  0.00    +0.117 C 
BRANCH  13  15
ATOM     15  C   UNL     1       9.345   6.490   4.678  0.00  0.00    -0.034 A 
ATOM     18  C   UNL     1       9.878   5.236   4.975  0.00  0.00    +0.005 A 
ATOM     19  C   UNL     1       8.866   7.305   5.704  0.00  0.00    +0.005 A 
ATOM     20  C   UNL     1       9.932   4.797   6.298  0.00  0.00    +0.012 A 
ATOM     21  C   UNL     1       8.921   6.866   7.027  0.00  0.00    +0.012 A 
ATOM     22  C   UNL     1       9.453   5.612   7.323  0.00  0.00    +0.055 A 
BRANCH  22  24
ATOM      1  F   UNL     1       8.506   5.630   9.520  0.00  0.00    -0.166 F 
ATOM      2  F   UNL     1      10.672   5.509   9.363  0.00  0.00    -0.166 F 
ATOM      3  F   UNL     1       9.442   3.785   8.869  0.00  0.00    -0.166 F 
ATOM     24  C   UNL     1       9.514   5.143   8.738  0.00  0.00    +0.417 C 
ENDBRANCH  22  24
ENDBRANCH  13  15
ENDBRANCH   7  13
TORSDOF 8
ENDMDL
MODEL 8
REMARK VINA RESULT:      -5.9     31.293     32.683
REMARK  Name = 56775608
REMARK  8 active torsions:
REMARK  status: ('A' for Active; 'I' for Inactive)
REMARK    1  A    between atoms: O_6  and  C_23
REMARK    2  A    between atoms: N_7  and  C_9
REMARK    3  A    between atoms: N_7  and  C_13
REMARK    4  A    between atoms: C_9  and  C_12
REMARK    5  A    between atoms: C_12  and  C_14
REMARK    6  A    between atoms: C_13  and  C_15
REMARK    7  A    between atoms: C_17  and  C_23
REMARK    8  A    between atoms: C_22  and  C_24
REMARK                            x       y       z     vdW  Elec       q    Type
REMARK                         _______ _______ _______ _____ _____    ______ ____
ROOT
ATOM      7  N   UNL     1     -15.614   4.940  31.329  0.00  0.00    -0.302 NA
ATOM     25  H   UNL     1     -14.894   4.714  30.643  0.00  0.00    +0.123 HD
ENDROOT
BRANCH   7   9
ATOM      4  O   UNL     1     -16.764   5.212  34.121  0.00  0.00    -0.376 OA
ATOM      9  C   UNL     1     -15.288   4.585  32.712  0.00  0.00    +0.072 C 
ATOM     10  C   UNL     1     -16.529   3.997  33.373  0.00  0.00    +0.184 C 
ATOM     11  C   UNL     1     -15.546   5.795  33.604  0.00  0.00    +0.184 C 
BRANCH   9  12
ATOM     12  C   UNL     1     -13.986   3.856  32.836  0.00  0.00    +0.085 C 
BRANCH  12  14
ATOM      5  O   UNL     1     -13.389   1.800  29.925  0.00  0.00    -0.357 OA
ATOM      8  N   UNL     1     -13.320   3.004  30.617  0.00  0.00    -0.083 NA
ATOM     14  C   UNL     1     -13.885   2.754  31.802  0.00  0.00    +0.086 A 
ATOM     16  C   UNL     1     -14.325   1.423  31.914  0.00  0.00    +0.073 A 
ATOM     17  C   UNL     1     -13.989   0.867  30.708  0.00  0.00    +0.163 A 
BRANCH  17  23
ATOM     23  C   UNL     1     -14.145  -0.472  30.128  0.00  0.00    +0.232 C 
BRANCH  23   6
ATOM      6  O   UNL     1     -12.866  -1.039  29.836  0.00  0.00    -0.387 OA
ATOM     26  H   UNL     1     -13.011  -1.980  29.636  0.00  0.00    +0.210 HD
ENDBRANCH  23   6
ENDBRANCH  17  23
ENDBRANCH  12  14
ENDBRANCH   9  12
ENDBRANCH   7   9
BRANCH   7  13
ATOM     13  C   UNL     1     -16.874   4.298  30.953  0.00  0.00    +0.117 C 
BRANCH  13  15
ATOM     15  C   UNL     1     -16.807   3.662  29.604  0.00  0.00    -0.034 A 
ATOM     18  C   UNL     1     -16.542   4.442  28.478  0.00  0.00    +0.005 A 
ATOM     19  C   UNL     1     -17.009   2.288  29.469  0.00  0.00    +0.005 A 
ATOM     20  C   UNL     1     -16.479   3.848  27.218  0.00  0.00    +0.012 A 
ATOM     21  C   UNL     1     -16.945   1.695  28.208  0.00  0.00    +0.012 A 
ATOM     22  C   UNL     1     -16.680   2.475  27.083  0.00  0.00    +0.055 A 
BRANCH  22  24
ATOM      1  F   UNL     1     -16.274   0.516  25.771  0.00  0.00    -0.166 F 
ATOM      2  F   UNL     1     -15.683   2.431  24.925  0.00  0.00    -0.166 F 
ATOM      3  F   UNL     1     -17.787   1.890  25.044  0.00  0.00    -0.166 F 
ATOM     24  C   UNL     1     -16.609   1.839  25.735  0.00  0.00    +0.417 C 
ENDBRANCH  22  24
ENDBRANCH  13  15
ENDBRANCH   7  13
TORSDOF 8
ENDMDL
MODEL 9
REMARK VINA RESULT:      -5.9     26.503     28.204
REMARK  Name = 56775608
REMARK  8 active torsions:
REMARK  status: ('A' for Active; 'I' for Inactive)
REMARK    1  A    between atoms: O_6  and  C_23
REMARK    2  A    between atoms: N_7  and  C_9
REMARK    3  A    between atoms: N_7  and  C_13
REMARK    4  A    between atoms: C_9  and  C_12
REMARK    5  A    between atoms: C_12  and  C_14
REMARK    6  A    between atoms: C_13  and  C_15
REMARK    7  A    between atoms: C_17  and  C_23
REMARK    8  A    between atoms: C_22  and  C_24
REMARK                            x       y       z     vdW  Elec       q    Type
REMARK                         _______ _______ _______ _____ _____    ______ ____
ROOT
ATOM      7  N   UNL     1      -6.677  -9.411  15.613  0.00  0.00    -0.302 NA
ATOM     25  H   UNL     1      -5.659  -9.457  15.581  0.00  0.00    +0.123 HD
ENDROOT
BRANCH   7   9
ATOM      4  O   UNL     1      -9.428 -10.039  16.722  0.00  0.00    -0.376 OA
ATOM      9  C   UNL     1      -7.294 -10.072  16.764  0.00  0.00    +0.072 C 
ATOM     10  C   UNL     1      -8.420 -10.972  16.269  0.00  0.00    +0.184 C 
ATOM     11  C   UNL     1      -8.413  -9.186  17.299  0.00  0.00    +0.184 C 
BRANCH   9  12
ATOM     12  C   UNL     1      -6.288 -10.631  17.724  0.00  0.00    +0.085 C 
BRANCH  12  14
ATOM      5  O   UNL     1      -3.617 -12.129  15.806  0.00  0.00    -0.357 OA
ATOM      8  N   UNL     1      -4.905 -12.125  16.329  0.00  0.00    -0.083 NA
ATOM     14  C   UNL     1      -4.999 -10.979  17.010  0.00  0.00    +0.086 A 
ATOM     16  C   UNL     1      -3.813 -10.226  16.954  0.00  0.00    +0.073 A 
ATOM     17  C   UNL     1      -2.978 -10.992  16.185  0.00  0.00    +0.163 A 
BRANCH  17  23
ATOM     23  C   UNL     1      -1.595 -10.832  15.717  0.00  0.00    +0.232 C 
BRANCH  23   6
ATOM      6  O   UNL     1      -1.493  -9.701  14.850  0.00  0.00    -0.387 OA
ATOM     26  H   UNL     1      -0.799  -9.904  14.199  0.00  0.00    +0.210 HD
ENDBRANCH  23   6
ENDBRANCH  17  23
ENDBRANCH  12  14
ENDBRANCH   9  12
ENDBRANCH   7   9
BRANCH   7  13
ATOM     13  C   UNL     1      -7.237  -9.969  14.381  0.00  0.00    +0.117 C 
BRANCH  13  15
ATOM     15  C   UNL     1      -6.320  -9.806  13.216  0.00  0.00    -0.034 A 
ATOM     18  C   UNL     1      -5.053 -10.390  13.238  0.00  0.00    +0.005 A 
ATOM     19  C   UNL     1      -6.729  -9.069  12.103  0.00  0.00    +0.005 A 
ATOM     20  C   UNL     1      -4.196 -10.239  12.148  0.00  0.00    +0.012 A 
ATOM     21  C   UNL     1      -5.871  -8.918  11.014  0.00  0.00    +0.012 A 
ATOM     22  C   UNL     1      -4.605  -9.502  11.037  0.00  0.00    +0.055 A 
BRANCH  22  24
ATOM      1  F   UNL     1      -4.069  -8.355   9.007  0.00  0.00    -0.166 F 
ATOM      2  F   UNL     1      -3.601 -10.476   9.113  0.00  0.00    -0.166 F 
ATOM      3  F   UNL     1      -2.405  -9.036  10.220  0.00  0.00    -0.166 F 
ATOM     24  C   UNL     1      -3.690  -9.343   9.870  0.00  0.00    +0.417 C 
ENDBRANCH  22  24
ENDBRANCH  13  15
ENDBRANCH   7  13
TORSDOF 8
ENDMDL
MODEL 10
REMARK VINA RESULT:      -5.9     27.236     28.800
REMARK  Name = 56775608
REMARK  8 active torsions:
REMARK  status: ('A' for Active; 'I' for Inactive)
REMARK    1  A    between atoms: O_6  and  C_23
REMARK    2  A    between atoms: N_7  and  C_9
REMARK    3  A    between atoms: N_7  and  C_13
REMARK    4  A    between atoms: C_9  and  C_12
REMARK    5  A    between atoms: C_12  and  C_14
REMARK    6  A    between atoms: C_13  and  C_15
REMARK    7  A    between atoms: C_17  and  C_23
REMARK    8  A    between atoms: C_22  and  C_24
REMARK                            x       y       z     vdW  Elec       q    Type
REMARK                         _______ _______ _______ _____ _____    ______ ____
ROOT
ATOM      7  N   UNL     1      -7.954  -9.969  18.812  0.00  0.00    -0.302 NA
ATOM     25  H   UNL     1      -8.032  -9.213  19.492  0.00  0.00    +0.123 HD
ENDROOT
BRANCH   7   9
ATOM      4  O   UNL     1      -9.950 -11.574  20.434  0.00  0.00    -0.376 OA
ATOM      9  C   UNL     1      -9.171 -10.760  18.621  0.00  0.00    +0.072 C 
ATOM     10  C   UNL     1     -10.188 -10.361  19.683  0.00  0.00    +0.184 C 
ATOM     11  C   UNL     1      -9.045 -12.056  19.414  0.00  0.00    +0.184 C 
BRANCH   9  12
ATOM     12  C   UNL     1      -9.606 -10.825  17.189  0.00  0.00    +0.085 C 
BRANCH  12  14
ATOM      5  O   UNL     1      -9.768  -7.389  16.082  0.00  0.00    -0.357 OA
ATOM      8  N   UNL     1      -9.078  -8.497  16.562  0.00  0.00    -0.083 NA
ATOM     14  C   UNL     1     -10.003  -9.453  16.685  0.00  0.00    +0.086 A 
ATOM     16  C   UNL     1     -11.282  -9.012  16.301  0.00  0.00    +0.073 A 
ATOM     17  C   UNL     1     -11.078  -7.709  15.930  0.00  0.00    +0.163 A 
BRANCH  17  23
ATOM     23  C   UNL     1     -11.958  -6.646  15.428  0.00  0.00    +0.232 C 
BRANCH  23   6
ATOM      6  O   UNL     1     -11.191  -5.494  15.071  0.00  0.00    -0.387 OA
ATOM     26  H   UNL     1     -10.268  -5.786  14.974  0.00  0.00    +0.210 HD
ENDBRANCH  23   6
ENDBRANCH  17  23
ENDBRANCH  12  14
ENDBRANCH   9  12
ENDBRANCH   7   9
BRANCH   7  13
ATOM     13  C   UNL     1      -6.855 -10.860  19.186  0.00  0.00    +0.117 C 
BRANCH  13  15
ATOM     15  C   UNL     1      -5.732 -10.817  18.204  0.00  0.00    -0.034 A 
ATOM     18  C   UNL     1      -4.515 -11.427  18.511  0.00  0.00    +0.005 A 
ATOM     19  C   UNL     1      -5.897 -10.168  16.981  0.00  0.00    +0.005 A 
ATOM     20  C   UNL     1      -3.465 -11.389  17.594  0.00  0.00    +0.012 A 
ATOM     21  C   UNL     1      -4.847 -10.130  16.064  0.00  0.00    +0.012 A 
ATOM     22  C   UNL     1      -3.631 -10.740  16.371  0.00  0.00    +0.055 A 
BRANCH  22  24
ATOM      1  F   UNL     1      -2.866 -10.206  14.167  0.00  0.00    -0.166 F 
ATOM      2  F   UNL     1      -1.984 -11.938  15.143  0.00  0.00    -0.166 F 
ATOM      3  F   UNL     1      -1.455  -9.930  15.791  0.00  0.00    -0.166 F 
ATOM     24  C   UNL     1      -2.509 -10.702  15.389  0.00  0.00    +0.417 C 
ENDBRANCH  22  24
ENDBRANCH  13  15
ENDBRANCH   7  13
TORSDOF 8
ENDMDL
