MODEL 1
REMARK VINA RESULT:      -7.7      0.000      0.000
REMARK  Name = 75368576
REMARK  2 active torsions:
REMARK  status: ('A' for Active; 'I' for Inactive)
REMARK    1  A    between atoms: N_5  and  C_14
REMARK    2  A    between atoms: C_14  and  C_16
REMARK                            x       y       z     vdW  Elec       q    Type
REMARK                         _______ _______ _______ _____ _____    ______ ____
ROOT
ATOM      1  O   UNL     1      16.977   5.579  18.566  0.00  0.00    -0.252 OA
ATOM      4  N   UNL     1      15.495   7.036  19.620  0.00  0.00    -0.278 N 
ATOM      5  N   UNL     1      13.542   9.040  19.910  0.00  0.00    -0.295 NA
ATOM      6  N   UNL     1      17.501   6.699  20.615  0.00  0.00    -0.238 N 
ATOM      7  N   UNL     1      19.403   5.358  20.083  0.00  0.00    -0.240 NA
ATOM      8  C   UNL     1      15.395   7.741  20.874  0.00  0.00    +0.109 C 
ATOM      9  C   UNL     1      14.810   9.136  20.662  0.00  0.00    +0.109 C 
ATOM     10  C   UNL     1      16.822   7.717  21.409  0.00  0.00    +0.140 C 
ATOM     11  C   UNL     1      14.350   7.008  18.732  0.00  0.00    +0.125 C 
ATOM     12  C   UNL     1      13.759   8.413  18.592  0.00  0.00    +0.104 C 
ATOM     13  C   UNL     1      16.703   6.332  19.490  0.00  0.00    +0.311 C 
ATOM     15  C   UNL     1      18.814   6.239  20.923  0.00  0.00    +0.129 A 
ATOM     19  C   UNL     1      19.409   6.730  22.075  0.00  0.00    +0.044 A 
ATOM     23  C   UNL     1      20.690   6.287  22.384  0.00  0.00    +0.005 A 
ATOM     24  C   UNL     1      20.648   4.951  20.416  0.00  0.00    +0.113 A 
ATOM     25  C   UNL     1      21.329   5.382  21.544  0.00  0.00    +0.020 A 
ENDROOT
BRANCH   5  14
ATOM     14  C   UNL     1      12.943  10.365  19.753  0.00  0.00    +0.119 C 
BRANCH  14  16
ATOM      2  O   UNL     1      12.212  13.784  23.143  0.00  0.00    -0.485 OA
ATOM      3  O   UNL     1      10.334  12.057  24.486  0.00  0.00    -0.485 OA
ATOM     16  C   UNL     1      12.267  10.829  21.015  0.00  0.00    -0.030 A 
ATOM     17  C   UNL     1      12.525  12.106  21.516  0.00  0.00    +0.054 A 
ATOM     18  C   UNL     1      11.388   9.979  21.686  0.00  0.00    +0.009 A 
ATOM     20  C   UNL     1      11.903  12.529  22.691  0.00  0.00    +0.162 A 
ATOM     21  C   UNL     1      10.755  10.406  22.854  0.00  0.00    +0.050 A 
ATOM     22  C   UNL     1      11.001  11.687  23.347  0.00  0.00    +0.162 A 
ATOM     26  C   UNL     1      11.804  13.978  24.500  0.00  0.00    +0.270 C 
ATOM     27  C   UNL     1      10.389  13.471  24.701  0.00  0.00    +0.270 C 
ENDBRANCH  14  16
ENDBRANCH   5  14
TORSDOF 2
ENDMDL
MODEL 2
REMARK VINA RESULT:      -7.4      2.793      4.824
REMARK  Name = 75368576
REMARK  2 active torsions:
REMARK  status: ('A' for Active; 'I' for Inactive)
REMARK    1  A    between atoms: N_5  and  C_14
REMARK    2  A    between atoms: C_14  and  C_16
REMARK                            x       y       z     vdW  Elec       q    Type
REMARK                         _______ _______ _______ _____ _____    ______ ____
ROOT
ATOM      1  O   UNL     1      20.283   6.592  23.636  0.00  0.00    -0.252 OA
ATOM      4  N   UNL     1      19.205   6.683  21.572  0.00  0.00    -0.278 N 
ATOM      5  N   UNL     1      17.105   6.911  19.713  0.00  0.00    -0.295 NA
ATOM      6  N   UNL     1      20.898   5.196  21.792  0.00  0.00    -0.238 N 
ATOM      7  N   UNL     1      22.378   4.633  23.578  0.00  0.00    -0.240 NA
ATOM      8  C   UNL     1      19.380   6.141  20.247  0.00  0.00    +0.109 C 
ATOM      9  C   UNL     1      18.031   5.763  19.638  0.00  0.00    +0.109 C 
ATOM     10  C   UNL     1      20.337   4.976  20.464  0.00  0.00    +0.140 C 
ATOM     11  C   UNL     1      18.209   7.714  21.788  0.00  0.00    +0.125 C 
ATOM     12  C   UNL     1      16.892   7.323  21.115  0.00  0.00    +0.104 C 
ATOM     13  C   UNL     1      20.160   6.204  22.483  0.00  0.00    +0.311 C 
ATOM     15  C   UNL     1      21.978   4.421  22.304  0.00  0.00    +0.129 A 
ATOM     19  C   UNL     1      22.556   3.490  21.454  0.00  0.00    +0.044 A 
ATOM     23  C   UNL     1      23.611   2.729  21.944  0.00  0.00    +0.005 A 
ATOM     24  C   UNL     1      23.406   3.874  24.019  0.00  0.00    +0.113 A 
ATOM     25  C   UNL     1      24.050   2.918  23.250  0.00  0.00    +0.020 A 
ENDROOT
BRANCH   5  14
ATOM     14  C   UNL     1      15.829   6.578  19.080  0.00  0.00    +0.119 C 
BRANCH  14  16
ATOM      2  O   UNL     1      11.735   6.828  21.706  0.00  0.00    -0.485 OA
ATOM      3  O   UNL     1      11.602   9.669  21.235  0.00  0.00    -0.485 OA
ATOM     16  C   UNL     1      14.691   7.381  19.652  0.00  0.00    -0.030 A 
ATOM     17  C   UNL     1      13.723   6.756  20.437  0.00  0.00    +0.054 A 
ATOM     18  C   UNL     1      14.606   8.750  19.392  0.00  0.00    +0.009 A 
ATOM     20  C   UNL     1      12.666   7.502  20.960  0.00  0.00    +0.162 A 
ATOM     21  C   UNL     1      13.557   9.499  19.926  0.00  0.00    +0.050 A 
ATOM     22  C   UNL     1      12.596   8.877  20.722  0.00  0.00    +0.162 A 
ATOM     26  C   UNL     1      10.543   7.596  21.893  0.00  0.00    +0.270 C 
ATOM     27  C   UNL     1      10.891   9.017  22.292  0.00  0.00    +0.270 C 
ENDBRANCH  14  16
ENDBRANCH   5  14
TORSDOF 2
ENDMDL
MODEL 3
REMARK VINA RESULT:      -7.1     27.619     31.316
REMARK  Name = 75368576
REMARK  2 active torsions:
REMARK  status: ('A' for Active; 'I' for Inactive)
REMARK    1  A    between atoms: N_5  and  C_14
REMARK    2  A    between atoms: C_14  and  C_16
REMARK                            x       y       z     vdW  Elec       q    Type
REMARK                         _______ _______ _______ _____ _____    ______ ____
ROOT
ATOM      1  O   UNL     1     -16.415   6.395  19.905  0.00  0.00    -0.252 OA
ATOM      4  N   UNL     1     -16.340   5.245  21.930  0.00  0.00    -0.278 N 
ATOM      5  N   UNL     1     -17.169   4.302  24.448  0.00  0.00    -0.295 NA
ATOM      6  N   UNL     1     -14.421   6.213  21.216  0.00  0.00    -0.238 N 
ATOM      7  N   UNL     1     -13.833   7.479  19.281  0.00  0.00    -0.240 NA
ATOM      8  C   UNL     1     -15.344   4.809  22.879  0.00  0.00    +0.109 C 
ATOM      9  C   UNL     1     -15.858   4.966  24.309  0.00  0.00    +0.109 C 
ATOM     10  C   UNL     1     -14.129   5.661  22.534  0.00  0.00    +0.140 C 
ATOM     11  C   UNL     1     -17.702   4.770  22.067  0.00  0.00    +0.125 C 
ATOM     12  C   UNL     1     -18.158   4.891  23.524  0.00  0.00    +0.104 C 
ATOM     13  C   UNL     1     -15.792   6.002  20.882  0.00  0.00    +0.311 C 
ATOM     15  C   UNL     1     -13.452   6.926  20.454  0.00  0.00    +0.129 A 
ATOM     19  C   UNL     1     -12.168   7.008  20.970  0.00  0.00    +0.044 A 
ATOM     23  C   UNL     1     -11.214   7.703  20.233  0.00  0.00    +0.005 A 
ATOM     24  C   UNL     1     -12.879   8.146  18.593  0.00  0.00    +0.113 A 
ATOM     25  C   UNL     1     -11.568   8.286  19.022  0.00  0.00    +0.020 A 
ENDROOT
BRANCH   5  14
ATOM     14  C   UNL     1     -17.643   4.395  25.829  0.00  0.00    +0.119 C 
BRANCH  14  16
ATOM      2  O   UNL     1     -14.876   2.933  29.561  0.00  0.00    -0.485 OA
ATOM      3  O   UNL     1     -15.621   0.197  29.046  0.00  0.00    -0.485 OA
ATOM     16  C   UNL     1     -17.087   3.292  26.689  0.00  0.00    -0.030 A 
ATOM     17  C   UNL     1     -16.239   3.598  27.754  0.00  0.00    +0.054 A 
ATOM     18  C   UNL     1     -17.417   1.964  26.416  0.00  0.00    +0.009 A 
ATOM     20  C   UNL     1     -15.719   2.572  28.543  0.00  0.00    +0.162 A 
ATOM     21  C   UNL     1     -16.909   0.938  27.214  0.00  0.00    +0.050 A 
ATOM     22  C   UNL     1     -16.072   1.244  28.287  0.00  0.00    +0.162 A 
ATOM     26  C   UNL     1     -14.145   1.815  30.071  0.00  0.00    +0.270 C 
ATOM     27  C   UNL     1     -15.073   0.637  30.292  0.00  0.00    +0.270 C 
ENDBRANCH  14  16
ENDBRANCH   5  14
TORSDOF 2
ENDMDL
MODEL 4
REMARK VINA RESULT:      -6.8     28.672     31.369
REMARK  Name = 75368576
REMARK  2 active torsions:
REMARK  status: ('A' for Active; 'I' for Inactive)
REMARK    1  A    between atoms: N_5  and  C_14
REMARK    2  A    between atoms: C_14  and  C_16
REMARK                            x       y       z     vdW  Elec       q    Type
REMARK                         _______ _______ _______ _____ _____    ______ ____
ROOT
ATOM      1  O   UNL     1      -9.683 -13.821  19.388  0.00  0.00    -0.252 OA
ATOM      4  N   UNL     1      -8.243 -12.381  18.255  0.00  0.00    -0.278 N 
ATOM      5  N   UNL     1      -5.827 -11.263  17.344  0.00  0.00    -0.295 NA
ATOM      6  N   UNL     1     -10.092 -11.471  19.195  0.00  0.00    -0.238 N 
ATOM      7  N   UNL     1     -11.923 -12.366  20.436  0.00  0.00    -0.240 NA
ATOM      8  C   UNL     1      -8.228 -11.007  17.816  0.00  0.00    +0.109 C 
ATOM      9  C   UNL     1      -6.837 -10.401  17.992  0.00  0.00    +0.109 C 
ATOM     10  C   UNL     1      -9.324 -10.356  18.652  0.00  0.00    +0.140 C 
ATOM     11  C   UNL     1      -7.204 -13.280  17.797  0.00  0.00    +0.125 C 
ATOM     12  C   UNL     1      -5.832 -12.615  17.936  0.00  0.00    +0.104 C 
ATOM     13  C   UNL     1      -9.393 -12.699  18.996  0.00  0.00    +0.311 C 
ATOM     15  C   UNL     1     -11.321 -11.286  19.890  0.00  0.00    +0.129 A 
ATOM     19  C   UNL     1     -11.826  -9.997  19.963  0.00  0.00    +0.044 A 
ATOM     23  C   UNL     1     -13.026  -9.805  20.640  0.00  0.00    +0.005 A 
ATOM     24  C   UNL     1     -13.086 -12.141  21.086  0.00  0.00    +0.113 A 
ATOM     25  C   UNL     1     -13.674 -10.892  21.215  0.00  0.00    +0.020 A 
ENDROOT
BRANCH   5  14
ATOM     14  C   UNL     1      -4.498 -10.661  17.456  0.00  0.00    +0.119 C 
BRANCH  14  16
ATOM      2  O   UNL     1      -4.606 -10.661  12.587  0.00  0.00    -0.485 OA
ATOM      3  O   UNL     1      -1.727 -10.537  12.519  0.00  0.00    -0.485 OA
ATOM     16  C   UNL     1      -3.779 -10.640  16.134  0.00  0.00    -0.030 A 
ATOM     17  C   UNL     1      -4.507 -10.646  14.944  0.00  0.00    +0.054 A 
ATOM     18  C   UNL     1      -2.384 -10.618  16.101  0.00  0.00    +0.009 A 
ATOM     20  C   UNL     1      -3.837 -10.633  13.721  0.00  0.00    +0.162 A 
ATOM     21  C   UNL     1      -1.713 -10.592  14.878  0.00  0.00    +0.050 A 
ATOM     22  C   UNL     1      -2.441 -10.584  13.688  0.00  0.00    +0.162 A 
ATOM     26  C   UNL     1      -3.836 -10.991  11.428  0.00  0.00    +0.270 C 
ATOM     27  C   UNL     1      -2.551 -10.187  11.404  0.00  0.00    +0.270 C 
ENDBRANCH  14  16
ENDBRANCH   5  14
TORSDOF 2
ENDMDL
MODEL 5
REMARK VINA RESULT:      -6.8     28.900     32.034
REMARK  Name = 75368576
REMARK  2 active torsions:
REMARK  status: ('A' for Active; 'I' for Inactive)
REMARK    1  A    between atoms: N_5  and  C_14
REMARK    2  A    between atoms: C_14  and  C_16
REMARK                            x       y       z     vdW  Elec       q    Type
REMARK                         _______ _______ _______ _____ _____    ______ ____
ROOT
ATOM      1  O   UNL     1     -17.645   5.174  21.108  0.00  0.00    -0.252 OA
ATOM      4  N   UNL     1     -17.205   4.209  23.183  0.00  0.00    -0.278 N 
ATOM      5  N   UNL     1     -17.644   3.346  25.825  0.00  0.00    -0.295 NA
ATOM      6  N   UNL     1     -15.539   5.404  22.221  0.00  0.00    -0.238 N 
ATOM      7  N   UNL     1     -15.338   6.593  20.161  0.00  0.00    -0.240 NA
ATOM      8  C   UNL     1     -16.071   4.007  24.051  0.00  0.00    +0.109 C 
ATOM      9  C   UNL     1     -16.474   4.193  25.513  0.00  0.00    +0.109 C 
ATOM     10  C   UNL     1     -15.045   5.008  23.535  0.00  0.00    +0.140 C 
ATOM     11  C   UNL     1     -18.455   3.541  23.485  0.00  0.00    +0.125 C 
ATOM     12  C   UNL     1     -18.793   3.702  24.969  0.00  0.00    +0.104 C 
ATOM     13  C   UNL     1     -16.883   4.958  22.040  0.00  0.00    +0.311 C 
ATOM     15  C   UNL     1     -14.770   6.198  21.323  0.00  0.00    +0.129 A 
ATOM     19  C   UNL     1     -13.475   6.518  21.701  0.00  0.00    +0.044 A 
ATOM     23  C   UNL     1     -12.716   7.293  20.831  0.00  0.00    +0.005 A 
ATOM     24  C   UNL     1     -14.570   7.345  19.342  0.00  0.00    +0.113 A 
ATOM     25  C   UNL     1     -13.266   7.719  19.627  0.00  0.00    +0.020 A 
ENDROOT
BRANCH   5  14
ATOM     14  C   UNL     1     -18.001   3.472  27.238  0.00  0.00    +0.119 C 
BRANCH  14  16
ATOM      2  O   UNL     1     -15.671  -0.174  29.473  0.00  0.00    -0.485 OA
ATOM      3  O   UNL     1     -13.809   1.709  30.612  0.00  0.00    -0.485 OA
ATOM     16  C   UNL     1     -16.900   2.985  28.141  0.00  0.00    -0.030 A 
ATOM     17  C   UNL     1     -16.761   1.621  28.398  0.00  0.00    +0.054 A 
ATOM     18  C   UNL     1     -16.022   3.900  28.723  0.00  0.00    +0.009 A 
ATOM     20  C   UNL     1     -15.744   1.174  29.242  0.00  0.00    +0.162 A 
ATOM     21  C   UNL     1     -14.996   3.453  29.556  0.00  0.00    +0.050 A 
ATOM     22  C   UNL     1     -14.848   2.088  29.803  0.00  0.00    +0.162 A 
ATOM     26  C   UNL     1     -14.838  -0.480  30.595  0.00  0.00    +0.270 C 
ATOM     27  C   UNL     1     -13.544   0.306  30.518  0.00  0.00    +0.270 C 
ENDBRANCH  14  16
ENDBRANCH   5  14
TORSDOF 2
ENDMDL
MODEL 6
REMARK VINA RESULT:      -6.8     28.305     30.037
REMARK  Name = 75368576
REMARK  2 active torsions:
REMARK  status: ('A' for Active; 'I' for Inactive)
REMARK    1  A    between atoms: N_5  and  C_14
REMARK    2  A    between atoms: C_14  and  C_16
REMARK                            x       y       z     vdW  Elec       q    Type
REMARK                         _______ _______ _______ _____ _____    ______ ____
ROOT
ATOM      1  O   UNL     1      -4.258 -11.703  17.559  0.00  0.00    -0.252 OA
ATOM      4  N   UNL     1      -6.161 -10.394  17.251  0.00  0.00    -0.278 N 
ATOM      5  N   UNL     1      -8.831  -9.542  17.498  0.00  0.00    -0.295 NA
ATOM      6  N   UNL     1      -4.813 -10.702  15.458  0.00  0.00    -0.238 N 
ATOM      7  N   UNL     1      -2.765 -11.879  15.115  0.00  0.00    -0.240 NA
ATOM      8  C   UNL     1      -6.722  -9.542  16.231  0.00  0.00    +0.109 C 
ATOM      9  C   UNL     1      -8.237  -9.718  16.157  0.00  0.00    +0.109 C 
ATOM     10  C   UNL     1      -5.964  -9.949  14.973  0.00  0.00    +0.140 C 
ATOM     11  C   UNL     1      -6.765 -10.411  18.568  0.00  0.00    +0.125 C 
ATOM     12  C   UNL     1      -8.286 -10.531  18.448  0.00  0.00    +0.104 C 
ATOM     13  C   UNL     1      -4.972 -11.018  16.840  0.00  0.00    +0.311 C 
ATOM     15  C   UNL     1      -3.750 -11.109  14.601  0.00  0.00    +0.129 A 
ATOM     19  C   UNL     1      -3.795 -10.685  13.282  0.00  0.00    +0.044 A 
ATOM     23  C   UNL     1      -2.762 -11.077  12.437  0.00  0.00    +0.005 A 
ATOM     24  C   UNL     1      -1.779 -12.241  14.264  0.00  0.00    +0.113 A 
ATOM     25  C   UNL     1      -1.731 -11.870  12.930  0.00  0.00    +0.020 A 
ENDROOT
BRANCH   5  14
ATOM     14  C   UNL     1     -10.288  -9.650  17.428  0.00  0.00    +0.119 C 
BRANCH  14  16
ATOM      2  O   UNL     1     -13.006  -8.073  13.706  0.00  0.00    -0.485 OA
ATOM      3  O   UNL     1     -12.580  -5.348  14.545  0.00  0.00    -0.485 OA
ATOM     16  C   UNL     1     -10.897  -8.520  16.642  0.00  0.00    -0.030 A 
ATOM     17  C   UNL     1     -11.694  -8.793  15.530  0.00  0.00    +0.054 A 
ATOM     18  C   UNL     1     -10.660  -7.199  17.026  0.00  0.00    +0.009 A 
ATOM     20  C   UNL     1     -12.250  -7.742  14.800  0.00  0.00    +0.162 A 
ATOM     21  C   UNL     1     -11.227  -6.148  16.304  0.00  0.00    +0.050 A 
ATOM     22  C   UNL     1     -12.035  -6.421  15.200  0.00  0.00    +0.162 A 
ATOM     26  C   UNL     1     -13.229  -6.948  12.851  0.00  0.00    +0.270 C 
ATOM     27  C   UNL     1     -13.642  -5.741  13.670  0.00  0.00    +0.270 C 
ENDBRANCH  14  16
ENDBRANCH   5  14
TORSDOF 2
ENDMDL
MODEL 7
REMARK VINA RESULT:      -6.8      3.376     10.610
REMARK  Name = 75368576
REMARK  2 active torsions:
REMARK  status: ('A' for Active; 'I' for Inactive)
REMARK    1  A    between atoms: N_5  and  C_14
REMARK    2  A    between atoms: C_14  and  C_16
REMARK                            x       y       z     vdW  Elec       q    Type
REMARK                         _______ _______ _______ _____ _____    ______ ____
ROOT
ATOM      1  O   UNL     1      16.392   9.923  21.607  0.00  0.00    -0.252 OA
ATOM      4  N   UNL     1      17.837   8.097  21.525  0.00  0.00    -0.278 N 
ATOM      5  N   UNL     1      20.239   6.658  21.246  0.00  0.00    -0.295 NA
ATOM      6  N   UNL     1      15.782   7.835  20.610  0.00  0.00    -0.238 N 
ATOM      7  N   UNL     1      13.880   9.260  20.388  0.00  0.00    -0.240 NA
ATOM      8  C   UNL     1      17.780   6.701  21.166  0.00  0.00    +0.109 C 
ATOM      9  C   UNL     1      19.058   6.279  20.443  0.00  0.00    +0.109 C 
ATOM     10  C   UNL     1      16.508   6.600  20.334  0.00  0.00    +0.140 C 
ATOM     11  C   UNL     1      19.021   8.609  22.184  0.00  0.00    +0.125 C 
ATOM     12  C   UNL     1      20.279   8.117  21.465  0.00  0.00    +0.104 C 
ATOM     13  C   UNL     1      16.624   8.765  21.289  0.00  0.00    +0.311 C 
ATOM     15  C   UNL     1      14.447   8.053  20.163  0.00  0.00    +0.129 A 
ATOM     19  C   UNL     1      13.808   7.004  19.521  0.00  0.00    +0.044 A 
ATOM     23  C   UNL     1      12.505   7.207  19.081  0.00  0.00    +0.005 A 
ATOM     24  C   UNL     1      12.613   9.420  19.946  0.00  0.00    +0.113 A 
ATOM     25  C   UNL     1      11.889   8.435  19.292  0.00  0.00    +0.020 A 
ENDROOT
BRANCH   5  14
ATOM     14  C   UNL     1      21.466   6.205  20.591  0.00  0.00    +0.119 C 
BRANCH  14  16
ATOM      2  O   UNL     1      24.152   2.142  20.573  0.00  0.00    -0.485 OA
ATOM      3  O   UNL     1      23.875   1.942  23.435  0.00  0.00    -0.485 OA
ATOM     16  C   UNL     1      22.105   5.059  21.328  0.00  0.00    -0.030 A 
ATOM     17  C   UNL     1      22.858   4.114  20.630  0.00  0.00    +0.054 A 
ATOM     18  C   UNL     1      21.939   4.941  22.709  0.00  0.00    +0.009 A 
ATOM     20  C   UNL     1      23.442   3.049  21.316  0.00  0.00    +0.162 A 
ATOM     21  C   UNL     1      22.534   3.883  23.397  0.00  0.00    +0.050 A 
ATOM     22  C   UNL     1      23.299   2.946  22.702  0.00  0.00    +0.162 A 
ATOM     26  C   UNL     1      24.404   0.937  21.300  0.00  0.00    +0.270 C 
ATOM     27  C   UNL     1      24.894   1.260  22.698  0.00  0.00    +0.270 C 
ENDBRANCH  14  16
ENDBRANCH   5  14
TORSDOF 2
ENDMDL
MODEL 8
REMARK VINA RESULT:      -6.7      3.260     10.386
REMARK  Name = 75368576
REMARK  2 active torsions:
REMARK  status: ('A' for Active; 'I' for Inactive)
REMARK    1  A    between atoms: N_5  and  C_14
REMARK    2  A    between atoms: C_14  and  C_16
REMARK                            x       y       z     vdW  Elec       q    Type
REMARK                         _______ _______ _______ _____ _____    ______ ____
ROOT
ATOM      1  O   UNL     1      15.092   6.223  18.914  0.00  0.00    -0.252 OA
ATOM      4  N   UNL     1      17.035   6.890  20.014  0.00  0.00    -0.278 N 
ATOM      5  N   UNL     1      19.541   6.685  21.278  0.00  0.00    -0.295 NA
ATOM      6  N   UNL     1      15.105   7.919  20.602  0.00  0.00    -0.238 N 
ATOM      7  N   UNL     1      12.842   7.725  19.870  0.00  0.00    -0.240 NA
ATOM      8  C   UNL     1      17.446   7.928  20.928  0.00  0.00    +0.109 C 
ATOM      9  C   UNL     1      18.429   7.377  21.960  0.00  0.00    +0.109 C 
ATOM     10  C   UNL     1      16.130   8.438  21.501  0.00  0.00    +0.140 C 
ATOM     11  C   UNL     1      18.043   6.048  19.402  0.00  0.00    +0.125 C 
ATOM     12  C   UNL     1      19.039   5.564  20.459  0.00  0.00    +0.104 C 
ATOM     13  C   UNL     1      15.660   6.930  19.735  0.00  0.00    +0.311 C 
ATOM     15  C   UNL     1      13.742   8.321  20.684  0.00  0.00    +0.129 A 
ATOM     19  C   UNL     1      13.420   9.307  21.604  0.00  0.00    +0.044 A 
ATOM     23  C   UNL     1      12.091   9.706  21.693  0.00  0.00    +0.005 A 
ATOM     24  C   UNL     1      11.560   8.138  19.985  0.00  0.00    +0.113 A 
ATOM     25  C   UNL     1      11.137   9.115  20.872  0.00  0.00    +0.020 A 
ENDROOT
BRANCH   5  14
ATOM     14  C   UNL     1      20.517   6.205  22.256  0.00  0.00    +0.119 C 
BRANCH  14  16
ATOM      2  O   UNL     1      23.318   2.481  20.838  0.00  0.00    -0.485 OA
ATOM      3  O   UNL     1      25.219   4.333  19.715  0.00  0.00    -0.485 OA
ATOM     16  C   UNL     1      21.766   5.688  21.593  0.00  0.00    -0.030 A 
ATOM     17  C   UNL     1      21.986   4.314  21.494  0.00  0.00    +0.054 A 
ATOM     18  C   UNL     1      22.706   6.586  21.084  0.00  0.00    +0.009 A 
ATOM     20  C   UNL     1      23.149   3.839  20.887  0.00  0.00    +0.162 A 
ATOM     21  C   UNL     1      23.862   6.112  20.464  0.00  0.00    +0.050 A 
ATOM     22  C   UNL     1      24.076   4.738  20.352  0.00  0.00    +0.162 A 
ATOM     26  C   UNL     1      24.665   2.121  20.521  0.00  0.00    +0.270 C 
ATOM     27  C   UNL     1      25.169   2.949  19.355  0.00  0.00    +0.270 C 
ENDBRANCH  14  16
ENDBRANCH   5  14
TORSDOF 2
ENDMDL
MODEL 9
REMARK VINA RESULT:      -6.7     29.452     32.162
REMARK  Name = 75368576
REMARK  2 active torsions:
REMARK  status: ('A' for Active; 'I' for Inactive)
REMARK    1  A    between atoms: N_5  and  C_14
REMARK    2  A    between atoms: C_14  and  C_16
REMARK                            x       y       z     vdW  Elec       q    Type
REMARK                         _______ _______ _______ _____ _____    ______ ____
ROOT
ATOM      1  O   UNL     1     -11.517 -13.417  21.073  0.00  0.00    -0.252 OA
ATOM      4  N   UNL     1      -9.939 -12.294  19.776  0.00  0.00    -0.278 N 
ATOM      5  N   UNL     1      -7.422 -11.396  18.895  0.00  0.00    -0.295 NA
ATOM      6  N   UNL     1     -11.883 -11.216  20.207  0.00  0.00    -0.238 N 
ATOM      7  N   UNL     1     -13.859 -11.794  21.414  0.00  0.00    -0.240 NA
ATOM      8  C   UNL     1      -9.861 -11.088  18.989  0.00  0.00    +0.109 C 
ATOM      9  C   UNL     1      -8.498 -10.421  19.161  0.00  0.00    +0.109 C 
ATOM     10  C   UNL     1     -11.047 -10.267  19.480  0.00  0.00    +0.140 C 
ATOM     11  C   UNL     1      -8.857 -13.256  19.705  0.00  0.00    +0.125 C 
ATOM     12  C   UNL     1      -7.509 -12.540  19.823  0.00  0.00    +0.104 C 
ATOM     13  C   UNL     1     -11.173 -12.433  20.432  0.00  0.00    +0.311 C 
ATOM     15  C   UNL     1     -13.187 -10.884  20.673  0.00  0.00    +0.129 A 
ATOM     19  C   UNL     1     -13.689  -9.637  20.336  0.00  0.00    +0.044 A 
ATOM     23  C   UNL     1     -14.961  -9.303  20.787  0.00  0.00    +0.005 A 
ATOM     24  C   UNL     1     -15.092 -11.434  21.835  0.00  0.00    +0.113 A 
ATOM     25  C   UNL     1     -15.682 -10.213  21.552  0.00  0.00    +0.020 A 
ENDROOT
BRANCH   5  14
ATOM     14  C   UNL     1      -6.113 -10.752  18.999  0.00  0.00    +0.119 C 
BRANCH  14  16
ATOM      2  O   UNL     1      -2.006 -10.794  16.382  0.00  0.00    -0.485 OA
ATOM      3  O   UNL     1      -3.544 -10.549  13.957  0.00  0.00    -0.485 OA
ATOM     16  C   UNL     1      -5.411 -10.689  17.669  0.00  0.00    -0.030 A 
ATOM     17  C   UNL     1      -4.021 -10.783  17.609  0.00  0.00    +0.054 A 
ATOM     18  C   UNL     1      -6.153 -10.531  16.497  0.00  0.00    +0.009 A 
ATOM     20  C   UNL     1      -3.374 -10.717  16.375  0.00  0.00    +0.162 A 
ATOM     21  C   UNL     1      -5.508 -10.478  15.262  0.00  0.00    +0.050 A 
ATOM     22  C   UNL     1      -4.119 -10.587  15.200  0.00  0.00    +0.162 A 
ATOM     26  C   UNL     1      -1.440 -10.374  15.138  0.00  0.00    +0.270 C 
ATOM     27  C   UNL     1      -2.189 -11.007  13.981  0.00  0.00    +0.270 C 
ENDBRANCH  14  16
ENDBRANCH   5  14
TORSDOF 2
ENDMDL
MODEL 10
REMARK VINA RESULT:      -6.6     27.740     29.768
REMARK  Name = 75368576
REMARK  2 active torsions:
REMARK  status: ('A' for Active; 'I' for Inactive)
REMARK    1  A    between atoms: N_5  and  C_14
REMARK    2  A    between atoms: C_14  and  C_16
REMARK                            x       y       z     vdW  Elec       q    Type
REMARK                         _______ _______ _______ _____ _____    ______ ____
ROOT
ATOM      1  O   UNL     1      -2.298 -11.402  16.132  0.00  0.00    -0.252 OA
ATOM      4  N   UNL     1      -3.149 -11.100  13.984  0.00  0.00    -0.278 N 
ATOM      5  N   UNL     1      -3.266 -10.274  11.297  0.00  0.00    -0.295 NA
ATOM      6  N   UNL     1      -4.598 -10.894  15.712  0.00  0.00    -0.238 N 
ATOM      7  N   UNL     1      -4.382 -11.096  18.080  0.00  0.00    -0.240 NA
ATOM      8  C   UNL     1      -4.437 -10.944  13.354  0.00  0.00    +0.109 C 
ATOM      9  C   UNL     1      -4.362  -9.921  12.222  0.00  0.00    +0.109 C 
ATOM     10  C   UNL     1      -5.353 -10.558  14.509  0.00  0.00    +0.140 C 
ATOM     11  C   UNL     1      -1.977 -11.301  13.155  0.00  0.00    +0.125 C 
ATOM     12  C   UNL     1      -1.969 -10.295  12.001  0.00  0.00    +0.104 C 
ATOM     13  C   UNL     1      -3.237 -11.169  15.383  0.00  0.00    +0.311 C 
ATOM     15  C   UNL     1      -5.176 -10.854  17.013  0.00  0.00    +0.129 A 
ATOM     19  C   UNL     1      -6.529 -10.566  17.103  0.00  0.00    +0.044 A 
ATOM     23  C   UNL     1      -7.103 -10.524  18.369  0.00  0.00    +0.005 A 
ATOM     24  C   UNL     1      -4.974 -11.046  19.294  0.00  0.00    +0.113 A 
ATOM     25  C   UNL     1      -6.318 -10.767  19.490  0.00  0.00    +0.020 A 
ENDROOT
BRANCH   5  14
ATOM     14  C   UNL     1      -3.223  -9.334  10.176  0.00  0.00    +0.119 C 
BRANCH  14  16
ATOM      2  O   UNL     1      -7.457  -7.589   8.517  0.00  0.00    -0.485 OA
ATOM      3  O   UNL     1      -7.721  -9.872   6.778  0.00  0.00    -0.485 OA
ATOM     16  C   UNL     1      -4.431  -9.464   9.288  0.00  0.00    -0.030 A 
ATOM     17  C   UNL     1      -5.404  -8.465   9.283  0.00  0.00    +0.054 A 
ATOM     18  C   UNL     1      -4.578 -10.589   8.474  0.00  0.00    +0.009 A 
ATOM     20  C   UNL     1      -6.526  -8.593   8.464  0.00  0.00    +0.162 A 
ATOM     21  C   UNL     1      -5.693 -10.711   7.644  0.00  0.00    +0.050 A 
ATOM     22  C   UNL     1      -6.659  -9.706   7.628  0.00  0.00    +0.162 A 
ATOM     26  C   UNL     1      -8.697  -7.978   7.921  0.00  0.00    +0.270 C 
ATOM     27  C   UNL     1      -8.449  -8.656   6.588  0.00  0.00    +0.270 C 
ENDBRANCH  14  16
ENDBRANCH   5  14
TORSDOF 2
ENDMDL
