MODEL 1
REMARK VINA RESULT:      -6.3      0.000      0.000
REMARK  Name = 26763045
REMARK  11 active torsions:
REMARK  status: ('A' for Active; 'I' for Inactive)
REMARK    1  A    between atoms: N_6  and  C_11
REMARK    2  A    between atoms: N_7  and  C_21
REMARK    3  A    between atoms: N_7  and  C_22
REMARK    4  A    between atoms: N_8  and  C_20
REMARK    5  A    between atoms: C_10  and  C_15
REMARK    6  A    between atoms: C_15  and  C_17
REMARK    7  A    between atoms: C_17  and  C_19
REMARK    8  A    between atoms: C_20  and  C_23
REMARK    9  A    between atoms: C_20  and  C_24
REMARK   10  A    between atoms: C_21  and  C_25
REMARK   11  A    between atoms: C_22  and  C_26
REMARK                            x       y       z     vdW  Elec       q    Type
REMARK                         _______ _______ _______ _____ _____    ______ ____
ROOT
ATOM      1  O   UNL     1      10.719   6.259  21.839  0.00  0.00    -0.274 OA
ATOM      4  N   UNL     1      12.696   8.872  20.506  0.00  0.00    -0.285 NA
ATOM      5  N   UNL     1      11.984   6.297  19.922  0.00  0.00    -0.313 N 
ATOM      9  C   UNL     1      12.372   7.991  21.632  0.00  0.00    +0.145 C 
ATOM     10  C   UNL     1      13.601   8.191  19.579  0.00  0.00    +0.075 C 
ATOM     11  C   UNL     1      12.241  10.302  22.301  0.00  0.00    +0.090 C 
ATOM     12  C   UNL     1      11.630   8.924  22.578  0.00  0.00    +0.052 C 
ATOM     13  C   UNL     1      13.209  10.090  21.132  0.00  0.00    +0.107 C 
ATOM     14  C   UNL     1      12.815   7.020  18.972  0.00  0.00    +0.123 C 
ATOM     16  C   UNL     1      11.581   6.799  21.145  0.00  0.00    +0.230 C 
ATOM     27  H   UNL     1      11.528   5.452  19.592  0.00  0.00    +0.149 HD
ENDROOT
BRANCH  11   6
ATOM      2  O   UNL     1      12.178  13.078  23.082  0.00  0.00    -0.253 OA
ATOM      6  N   UNL     1      11.221  11.270  21.983  0.00  0.00    -0.295 N 
ATOM      8  N   UNL     1      10.161  13.312  21.960  0.00  0.00    -0.297 N 
ATOM     18  C   UNL     1      11.270  12.598  22.405  0.00  0.00    +0.300 C 
ATOM     28  H   UNL     1      10.390  10.954  21.492  0.00  0.00    +0.151 HD
ATOM     29  H   UNL     1       9.504  12.847  21.341  0.00  0.00    +0.150 HD
BRANCH   8  20
ATOM     20  C   UNL     1       9.960  14.711  22.255  0.00  0.00    +0.068 C 
ATOM     23  C   UNL     1       9.392  14.881  23.658  0.00  0.00    +0.027 C 
ATOM     24  C   UNL     1       9.055  15.353  21.211  0.00  0.00    +0.027 C 
ENDBRANCH   8  20
ENDBRANCH  11   6
BRANCH  10  15
ATOM     15  C   UNL     1      14.109   9.101  18.460  0.00  0.00    +0.029 C 
BRANCH  15  17
ATOM     17  C   UNL     1      12.978   9.497  17.516  0.00  0.00    +0.097 C 
BRANCH  17  19
ATOM      3  O   UNL     1      13.304   8.827  15.238  0.00  0.00    -0.276 OA
ATOM      7  N   UNL     1      14.086  10.931  15.821  0.00  0.00    -0.302 N 
ATOM     19  C   UNL     1      13.464   9.707  16.088  0.00  0.00    +0.216 C 
BRANCH   7  21
ATOM     21  C   UNL     1      14.297  12.001  16.794  0.00  0.00    +0.104 C 
ATOM     25  C   UNL     1      15.772  12.225  17.060  0.00  0.00    +0.024 C 
ENDBRANCH   7  21
BRANCH   7  22
ATOM     22  C   UNL     1      14.587  11.205  14.481  0.00  0.00    +0.104 C 
ATOM     26  C   UNL     1      13.785  12.293  13.799  0.00  0.00    +0.024 C 
ENDBRANCH   7  22
ENDBRANCH  17  19
ENDBRANCH  15  17
ENDBRANCH  10  15
TORSDOF 7
ENDMDL
MODEL 2
REMARK VINA RESULT:      -5.9     26.634     28.010
REMARK  Name = 26763045
REMARK  11 active torsions:
REMARK  status: ('A' for Active; 'I' for Inactive)
REMARK    1  A    between atoms: N_6  and  C_11
REMARK    2  A    between atoms: N_7  and  C_21
REMARK    3  A    between atoms: N_7  and  C_22
REMARK    4  A    between atoms: N_8  and  C_20
REMARK    5  A    between atoms: C_10  and  C_15
REMARK    6  A    between atoms: C_15  and  C_17
REMARK    7  A    between atoms: C_17  and  C_19
REMARK    8  A    between atoms: C_20  and  C_23
REMARK    9  A    between atoms: C_20  and  C_24
REMARK   10  A    between atoms: C_21  and  C_25
REMARK   11  A    between atoms: C_22  and  C_26
REMARK                            x       y       z     vdW  Elec       q    Type
REMARK                         _______ _______ _______ _____ _____    ______ ____
ROOT
ATOM      1  O   UNL     1      -5.679 -14.371  16.569  0.00  0.00    -0.274 OA
ATOM      4  N   UNL     1      -4.223 -11.273  15.680  0.00  0.00    -0.285 NA
ATOM      5  N   UNL     1      -3.814 -13.950  15.297  0.00  0.00    -0.313 N 
ATOM      9  C   UNL     1      -4.698 -12.183  16.726  0.00  0.00    +0.145 C 
ATOM     10  C   UNL     1      -2.857 -11.625  15.290  0.00  0.00    +0.075 C 
ATOM     11  C   UNL     1      -5.786 -10.042  16.910  0.00  0.00    +0.090 C 
ATOM     12  C   UNL     1      -6.008 -11.538  17.154  0.00  0.00    +0.052 C 
ATOM     13  C   UNL     1      -4.409  -9.938  16.247  0.00  0.00    +0.107 C 
ATOM     14  C   UNL     1      -2.927 -13.009  14.629  0.00  0.00    +0.123 C 
ATOM     16  C   UNL     1      -4.817 -13.586  16.177  0.00  0.00    +0.230 C 
ATOM     27  H   UNL     1      -3.814 -14.908  14.961  0.00  0.00    +0.149 HD
ENDROOT
BRANCH  11   6
ATOM      2  O   UNL     1      -8.437  -9.250  17.730  0.00  0.00    -0.253 OA
ATOM      6  N   UNL     1      -6.825  -9.490  16.076  0.00  0.00    -0.295 N 
ATOM      8  N   UNL     1      -8.892  -8.630  15.542  0.00  0.00    -0.297 N 
ATOM     18  C   UNL     1      -8.084  -9.135  16.557  0.00  0.00    +0.300 C 
ATOM     28  H   UNL     1      -6.660  -9.426  15.076  0.00  0.00    +0.151 HD
ATOM     29  H   UNL     1      -8.484  -8.501  14.621  0.00  0.00    +0.150 HD
BRANCH   8  20
ATOM     20  C   UNL     1     -10.247  -8.185  15.766  0.00  0.00    +0.068 C 
ATOM     23  C   UNL     1     -11.194  -8.849  14.775  0.00  0.00    +0.027 C 
ATOM     24  C   UNL     1     -10.332  -6.666  15.679  0.00  0.00    +0.027 C 
ENDBRANCH   8  20
ENDBRANCH  11   6
BRANCH  10  15
ATOM     15  C   UNL     1      -2.235 -10.624  14.315  0.00  0.00    +0.029 C 
BRANCH  15  17
ATOM     17  C   UNL     1      -2.061 -11.239  12.930  0.00  0.00    +0.097 C 
BRANCH  17  19
ATOM      3  O   UNL     1      -1.152  -9.559  11.483  0.00  0.00    -0.276 OA
ATOM      7  N   UNL     1      -3.409 -10.030  11.234  0.00  0.00    -0.302 N 
ATOM     19  C   UNL     1      -2.151 -10.199  11.821  0.00  0.00    +0.216 C 
BRANCH   7  21
ATOM     21  C   UNL     1      -4.617 -10.765  11.599  0.00  0.00    +0.104 C 
ATOM     25  C   UNL     1      -5.508  -9.947  12.513  0.00  0.00    +0.024 C 
ENDBRANCH   7  21
BRANCH   7  22
ATOM     22  C   UNL     1      -3.578  -9.047  10.172  0.00  0.00    +0.104 C 
ATOM     26  C   UNL     1      -4.313  -9.634   8.984  0.00  0.00    +0.024 C 
ENDBRANCH   7  22
ENDBRANCH  17  19
ENDBRANCH  15  17
ENDBRANCH  10  15
TORSDOF 7
ENDMDL
MODEL 3
REMARK VINA RESULT:      -5.9     12.954     16.532
REMARK  Name = 26763045
REMARK  11 active torsions:
REMARK  status: ('A' for Active; 'I' for Inactive)
REMARK    1  A    between atoms: N_6  and  C_11
REMARK    2  A    between atoms: N_7  and  C_21
REMARK    3  A    between atoms: N_7  and  C_22
REMARK    4  A    between atoms: N_8  and  C_20
REMARK    5  A    between atoms: C_10  and  C_15
REMARK    6  A    between atoms: C_15  and  C_17
REMARK    7  A    between atoms: C_17  and  C_19
REMARK    8  A    between atoms: C_20  and  C_23
REMARK    9  A    between atoms: C_20  and  C_24
REMARK   10  A    between atoms: C_21  and  C_25
REMARK   11  A    between atoms: C_22  and  C_26
REMARK                            x       y       z     vdW  Elec       q    Type
REMARK                         _______ _______ _______ _____ _____    ______ ____
ROOT
ATOM      1  O   UNL     1      10.104   4.336   8.491  0.00  0.00    -0.274 OA
ATOM      4  N   UNL     1       9.722   6.669   5.861  0.00  0.00    -0.285 NA
ATOM      5  N   UNL     1       9.647   6.584   8.593  0.00  0.00    -0.313 N 
ATOM      9  C   UNL     1       9.324   5.403   6.485  0.00  0.00    +0.145 C 
ATOM     10  C   UNL     1       9.001   7.783   6.480  0.00  0.00    +0.075 C 
ATOM     11  C   UNL     1      10.018   5.043   4.206  0.00  0.00    +0.090 C 
ATOM     12  C   UNL     1       9.983   4.371   5.582  0.00  0.00    +0.052 C 
ATOM     13  C   UNL     1       9.486   6.462   4.433  0.00  0.00    +0.107 C 
ATOM     14  C   UNL     1       9.486   7.871   7.934  0.00  0.00    +0.123 C 
ATOM     16  C   UNL     1       9.767   5.378   7.929  0.00  0.00    +0.230 C 
ATOM     27  H   UNL     1       9.864   6.594   9.585  0.00  0.00    +0.149 HD
ENDROOT
BRANCH  11   6
ATOM      2  O   UNL     1      10.950   3.648   1.858  0.00  0.00    -0.253 OA
ATOM      6  N   UNL     1      11.354   5.053   3.664  0.00  0.00    -0.295 N 
ATOM      8  N   UNL     1      13.067   4.529   2.218  0.00  0.00    -0.297 N 
ATOM     18  C   UNL     1      11.719   4.345   2.520  0.00  0.00    +0.300 C 
ATOM     28  H   UNL     1      12.082   5.537   4.180  0.00  0.00    +0.151 HD
ATOM     29  H   UNL     1      13.601   5.185   2.779  0.00  0.00    +0.150 HD
BRANCH   8  20
ATOM     20  C   UNL     1      13.707   3.908   1.083  0.00  0.00    +0.068 C 
ATOM     23  C   UNL     1      15.152   3.558   1.414  0.00  0.00    +0.027 C 
ATOM     24  C   UNL     1      13.625   4.817  -0.139  0.00  0.00    +0.027 C 
ENDBRANCH   8  20
ENDBRANCH  11   6
BRANCH  10  15
ATOM     15  C   UNL     1       9.245   9.119   5.777  0.00  0.00    +0.029 C 
BRANCH  15  17
ATOM     17  C   UNL     1      10.546   9.761   6.250  0.00  0.00    +0.097 C 
BRANCH  17  19
ATOM      3  O   UNL     1      11.473  10.144   4.073  0.00  0.00    -0.276 OA
ATOM      7  N   UNL     1      12.830   9.042   5.598  0.00  0.00    -0.302 N 
ATOM     19  C   UNL     1      11.647   9.674   5.200  0.00  0.00    +0.216 C 
BRANCH   7  21
ATOM     21  C   UNL     1      13.081   8.473   6.919  0.00  0.00    +0.104 C 
ATOM     25  C   UNL     1      13.026   6.959   6.889  0.00  0.00    +0.024 C 
ENDBRANCH   7  21
BRANCH   7  22
ATOM     22  C   UNL     1      13.927   8.912   4.648  0.00  0.00    +0.104 C 
ATOM     26  C   UNL     1      13.639   7.846   3.610  0.00  0.00    +0.024 C 
ENDBRANCH   7  22
ENDBRANCH  17  19
ENDBRANCH  15  17
ENDBRANCH  10  15
TORSDOF 7
ENDMDL
MODEL 4
REMARK VINA RESULT:      -5.9      1.826      6.860
REMARK  Name = 26763045
REMARK  11 active torsions:
REMARK  status: ('A' for Active; 'I' for Inactive)
REMARK    1  A    between atoms: N_6  and  C_11
REMARK    2  A    between atoms: N_7  and  C_21
REMARK    3  A    between atoms: N_7  and  C_22
REMARK    4  A    between atoms: N_8  and  C_20
REMARK    5  A    between atoms: C_10  and  C_15
REMARK    6  A    between atoms: C_15  and  C_17
REMARK    7  A    between atoms: C_17  and  C_19
REMARK    8  A    between atoms: C_20  and  C_23
REMARK    9  A    between atoms: C_20  and  C_24
REMARK   10  A    between atoms: C_21  and  C_25
REMARK   11  A    between atoms: C_22  and  C_26
REMARK                            x       y       z     vdW  Elec       q    Type
REMARK                         _______ _______ _______ _____ _____    ______ ____
ROOT
ATOM      1  O   UNL     1      13.370  10.366  14.768  0.00  0.00    -0.274 OA
ATOM      4  N   UNL     1      14.189  10.154  18.203  0.00  0.00    -0.285 NA
ATOM      5  N   UNL     1      13.651  12.049  16.305  0.00  0.00    -0.313 N 
ATOM      9  C   UNL     1      14.514   9.826  16.811  0.00  0.00    +0.145 C 
ATOM     10  C   UNL     1      14.681  11.494  18.530  0.00  0.00    +0.075 C 
ATOM     11  C   UNL     1      14.377   7.823  18.144  0.00  0.00    +0.090 C 
ATOM     12  C   UNL     1      14.142   8.353  16.725  0.00  0.00    +0.052 C 
ATOM     13  C   UNL     1      14.754   9.051  18.979  0.00  0.00    +0.107 C 
ATOM     14  C   UNL     1      13.875  12.483  17.676  0.00  0.00    +0.123 C 
ATOM     16  C   UNL     1      13.759  10.740  15.875  0.00  0.00    +0.230 C 
ATOM     27  H   UNL     1      13.216  12.714  15.673  0.00  0.00    +0.149 HD
ENDROOT
BRANCH  11   6
ATOM      2  O   UNL     1      13.758   7.279  20.909  0.00  0.00    -0.253 OA
ATOM      6  N   UNL     1      13.200   7.168  18.658  0.00  0.00    -0.295 N 
ATOM      8  N   UNL     1      11.770   6.293  20.234  0.00  0.00    -0.297 N 
ATOM     18  C   UNL     1      12.981   6.944  20.016  0.00  0.00    +0.300 C 
ATOM     28  H   UNL     1      12.532   6.784  17.996  0.00  0.00    +0.151 HD
ATOM     29  H   UNL     1      11.161   6.127  19.438  0.00  0.00    +0.150 HD
BRANCH   8  20
ATOM     20  C   UNL     1      11.297   5.940  21.552  0.00  0.00    +0.068 C 
ATOM     23  C   UNL     1      10.575   4.599  21.514  0.00  0.00    +0.027 C 
ATOM     24  C   UNL     1      10.396   7.036  22.108  0.00  0.00    +0.027 C 
ENDBRANCH   8  20
ENDBRANCH  11   6
BRANCH  10  15
ATOM     15  C   UNL     1      14.519  11.846  20.010  0.00  0.00    +0.029 C 
BRANCH  15  17
ATOM     17  C   UNL     1      13.113  12.358  20.303  0.00  0.00    +0.097 C 
BRANCH  17  19
ATOM      3  O   UNL     1      12.375  10.222  21.101  0.00  0.00    -0.276 OA
ATOM      7  N   UNL     1      11.652  12.077  22.290  0.00  0.00    -0.302 N 
ATOM     19  C   UNL     1      12.353  11.445  21.258  0.00  0.00    +0.216 C 
BRANCH   7  21
ATOM     21  C   UNL     1      11.598  13.520  22.515  0.00  0.00    +0.104 C 
ATOM     25  C   UNL     1      10.276  14.103  22.057  0.00  0.00    +0.024 C 
ENDBRANCH   7  21
BRANCH   7  22
ATOM     22  C   UNL     1      10.893  11.273  23.239  0.00  0.00    +0.104 C 
ATOM     26  C   UNL     1      11.431  11.419  24.647  0.00  0.00    +0.024 C 
ENDBRANCH   7  22
ENDBRANCH  17  19
ENDBRANCH  15  17
ENDBRANCH  10  15
TORSDOF 7
ENDMDL
MODEL 5
REMARK VINA RESULT:      -5.8     13.821     16.779
REMARK  Name = 26763045
REMARK  11 active torsions:
REMARK  status: ('A' for Active; 'I' for Inactive)
REMARK    1  A    between atoms: N_6  and  C_11
REMARK    2  A    between atoms: N_7  and  C_21
REMARK    3  A    between atoms: N_7  and  C_22
REMARK    4  A    between atoms: N_8  and  C_20
REMARK    5  A    between atoms: C_10  and  C_15
REMARK    6  A    between atoms: C_15  and  C_17
REMARK    7  A    between atoms: C_17  and  C_19
REMARK    8  A    between atoms: C_20  and  C_23
REMARK    9  A    between atoms: C_20  and  C_24
REMARK   10  A    between atoms: C_21  and  C_25
REMARK   11  A    between atoms: C_22  and  C_26
REMARK                            x       y       z     vdW  Elec       q    Type
REMARK                         _______ _______ _______ _____ _____    ______ ____
ROOT
ATOM      1  O   UNL     1       9.255   5.828   8.776  0.00  0.00    -0.274 OA
ATOM      4  N   UNL     1       9.506   6.631   5.341  0.00  0.00    -0.285 NA
ATOM      5  N   UNL     1       9.871   4.496   7.010  0.00  0.00    -0.313 N 
ATOM      9  C   UNL     1       9.883   6.917   6.728  0.00  0.00    +0.145 C 
ATOM     10  C   UNL     1      10.364   5.577   4.795  0.00  0.00    +0.075 C 
ATOM     11  C   UNL     1       8.924   8.869   5.692  0.00  0.00    +0.090 C 
ATOM     12  C   UNL     1       9.063   8.160   7.042  0.00  0.00    +0.052 C 
ATOM     13  C   UNL     1       9.572   7.929   4.670  0.00  0.00    +0.107 C 
ATOM     14  C   UNL     1      10.045   4.296   5.579  0.00  0.00    +0.123 C 
ATOM     16  C   UNL     1       9.599   5.716   7.599  0.00  0.00    +0.230 C 
ATOM     27  H   UNL     1       9.764   3.666   7.585  0.00  0.00    +0.149 HD
ENDROOT
BRANCH  11   6
ATOM      2  O   UNL     1       7.893  10.946   3.974  0.00  0.00    -0.253 OA
ATOM      6  N   UNL     1       7.541   9.129   5.378  0.00  0.00    -0.295 N 
ATOM      8  N   UNL     1       5.743  10.187   4.406  0.00  0.00    -0.297 N 
ATOM     18  C   UNL     1       7.129  10.160   4.535  0.00  0.00    +0.300 C 
ATOM     28  H   UNL     1       6.827   8.584   5.851  0.00  0.00    +0.151 HD
ATOM     29  H   UNL     1       5.204   9.448   4.847  0.00  0.00    +0.150 HD
BRANCH   8  20
ATOM     20  C   UNL     1       5.051  11.156   3.589  0.00  0.00    +0.068 C 
ATOM     23  C   UNL     1       4.122  12.006   4.447  0.00  0.00    +0.027 C 
ATOM     24  C   UNL     1       4.286  10.461   2.469  0.00  0.00    +0.027 C 
ENDBRANCH   8  20
ENDBRANCH  11   6
BRANCH  10  15
ATOM     15  C   UNL     1      10.135   5.333   3.302  0.00  0.00    +0.029 C 
BRANCH  15  17
ATOM     17  C   UNL     1      11.130   4.317   2.751  0.00  0.00    +0.097 C 
BRANCH  17  19
ATOM      3  O   UNL     1      10.620   5.169   0.570  0.00  0.00    -0.276 OA
ATOM      7  N   UNL     1      12.584   3.952   0.773  0.00  0.00    -0.302 N 
ATOM     19  C   UNL     1      11.408   4.526   1.268  0.00  0.00    +0.216 C 
BRANCH   7  21
ATOM     21  C   UNL     1      13.545   3.184   1.561  0.00  0.00    +0.104 C 
ATOM     25  C   UNL     1      14.943   3.756   1.440  0.00  0.00    +0.024 C 
ENDBRANCH   7  21
BRANCH   7  22
ATOM     22  C   UNL     1      12.915   4.099  -0.638  0.00  0.00    +0.104 C 
ATOM     26  C   UNL     1      12.480   2.890  -1.440  0.00  0.00    +0.024 C 
ENDBRANCH   7  22
ENDBRANCH  17  19
ENDBRANCH  15  17
ENDBRANCH  10  15
TORSDOF 7
ENDMDL
MODEL 6
REMARK VINA RESULT:      -5.8     15.127     19.314
REMARK  Name = 26763045
REMARK  11 active torsions:
REMARK  status: ('A' for Active; 'I' for Inactive)
REMARK    1  A    between atoms: N_6  and  C_11
REMARK    2  A    between atoms: N_7  and  C_21
REMARK    3  A    between atoms: N_7  and  C_22
REMARK    4  A    between atoms: N_8  and  C_20
REMARK    5  A    between atoms: C_10  and  C_15
REMARK    6  A    between atoms: C_15  and  C_17
REMARK    7  A    between atoms: C_17  and  C_19
REMARK    8  A    between atoms: C_20  and  C_23
REMARK    9  A    between atoms: C_20  and  C_24
REMARK   10  A    between atoms: C_21  and  C_25
REMARK   11  A    between atoms: C_22  and  C_26
REMARK                            x       y       z     vdW  Elec       q    Type
REMARK                         _______ _______ _______ _____ _____    ______ ____
ROOT
ATOM      1  O   UNL     1      16.006   7.697   2.470  0.00  0.00    -0.274 OA
ATOM      4  N   UNL     1      13.325   5.459   1.906  0.00  0.00    -0.285 NA
ATOM      5  N   UNL     1      15.924   5.828   1.138  0.00  0.00    -0.313 N 
ATOM      9  C   UNL     1      13.837   6.833   1.899  0.00  0.00    +0.145 C 
ATOM     10  C   UNL     1      13.689   4.782   0.660  0.00  0.00    +0.075 C 
ATOM     11  C   UNL     1      11.859   6.673   3.265  0.00  0.00    +0.090 C 
ATOM     12  C   UNL     1      13.182   7.434   3.134  0.00  0.00    +0.052 C 
ATOM     13  C   UNL     1      11.894   5.605   2.168  0.00  0.00    +0.107 C 
ATOM     14  C   UNL     1      15.219   4.650   0.658  0.00  0.00    +0.123 C 
ATOM     16  C   UNL     1      15.348   6.822   1.907  0.00  0.00    +0.230 C 
ATOM     27  H   UNL     1      16.936   5.829   1.057  0.00  0.00    +0.149 HD
ENDROOT
BRANCH  11   6
ATOM      2  O   UNL     1       9.455   6.523   4.854  0.00  0.00    -0.253 OA
ATOM      6  N   UNL     1      11.720   6.090   4.576  0.00  0.00    -0.295 N 
ATOM      8  N   UNL     1      10.662   5.442   6.514  0.00  0.00    -0.297 N 
ATOM     18  C   UNL     1      10.515   6.062   5.276  0.00  0.00    +0.300 C 
ATOM     28  H   UNL     1      12.554   5.750   5.045  0.00  0.00    +0.151 HD
ATOM     29  H   UNL     1      11.559   5.024   6.740  0.00  0.00    +0.150 HD
BRANCH   8  20
ATOM     20  C   UNL     1       9.569   5.278   7.443  0.00  0.00    +0.068 C 
ATOM     23  C   UNL     1       9.287   6.588   8.167  0.00  0.00    +0.027 C 
ATOM     24  C   UNL     1       9.870   4.155   8.429  0.00  0.00    +0.027 C 
ENDBRANCH   8  20
ENDBRANCH  11   6
BRANCH  10  15
ATOM     15  C   UNL     1      13.056   3.395   0.526  0.00  0.00    +0.029 C 
BRANCH  15  17
ATOM     17  C   UNL     1      12.838   3.029  -0.939  0.00  0.00    +0.097 C 
BRANCH  17  19
ATOM      3  O   UNL     1      10.588   3.795  -0.628  0.00  0.00    -0.276 OA
ATOM      7  N   UNL     1      11.211   3.267  -2.798  0.00  0.00    -0.302 N 
ATOM     19  C   UNL     1      11.443   3.401  -1.425  0.00  0.00    +0.216 C 
BRANCH   7  21
ATOM     21  C   UNL     1      12.191   2.806  -3.779  0.00  0.00    +0.104 C 
ATOM     25  C   UNL     1      12.907   3.969  -4.436  0.00  0.00    +0.024 C 
ENDBRANCH   7  21
BRANCH   7  22
ATOM     22  C   UNL     1       9.899   3.594  -3.340  0.00  0.00    +0.104 C 
ATOM     26  C   UNL     1       9.422   2.538  -4.316  0.00  0.00    +0.024 C 
ENDBRANCH   7  22
ENDBRANCH  17  19
ENDBRANCH  15  17
ENDBRANCH  10  15
TORSDOF 7
ENDMDL
MODEL 7
REMARK VINA RESULT:      -5.4     14.898     20.011
REMARK  Name = 26763045
REMARK  11 active torsions:
REMARK  status: ('A' for Active; 'I' for Inactive)
REMARK    1  A    between atoms: N_6  and  C_11
REMARK    2  A    between atoms: N_7  and  C_21
REMARK    3  A    between atoms: N_7  and  C_22
REMARK    4  A    between atoms: N_8  and  C_20
REMARK    5  A    between atoms: C_10  and  C_15
REMARK    6  A    between atoms: C_15  and  C_17
REMARK    7  A    between atoms: C_17  and  C_19
REMARK    8  A    between atoms: C_20  and  C_23
REMARK    9  A    between atoms: C_20  and  C_24
REMARK   10  A    between atoms: C_21  and  C_25
REMARK   11  A    between atoms: C_22  and  C_26
REMARK                            x       y       z     vdW  Elec       q    Type
REMARK                         _______ _______ _______ _____ _____    ______ ____
ROOT
ATOM      1  O   UNL     1      15.121   6.270   1.628  0.00  0.00    -0.274 OA
ATOM      4  N   UNL     1      11.775   5.152   1.886  0.00  0.00    -0.285 NA
ATOM      5  N   UNL     1      13.571   6.680   3.271  0.00  0.00    -0.313 N 
ATOM      9  C   UNL     1      13.197   4.833   1.724  0.00  0.00    +0.145 C 
ATOM     10  C   UNL     1      11.456   5.321   3.304  0.00  0.00    +0.075 C 
ATOM     11  C   UNL     1      11.909   3.898  -0.084  0.00  0.00    +0.090 C 
ATOM     12  C   UNL     1      13.289   4.476   0.248  0.00  0.00    +0.052 C 
ATOM     13  C   UNL     1      11.078   4.071   1.191  0.00  0.00    +0.107 C 
ATOM     14  C   UNL     1      12.213   6.568   3.783  0.00  0.00    +0.123 C 
ATOM     16  C   UNL     1      14.043   6.007   2.160  0.00  0.00    +0.230 C 
ATOM     27  H   UNL     1      14.147   7.430   3.642  0.00  0.00    +0.149 HD
ENDROOT
BRANCH  11   6
ATOM      2  O   UNL     1      10.466   2.700  -2.277  0.00  0.00    -0.253 OA
ATOM      6  N   UNL     1      11.315   4.579  -1.207  0.00  0.00    -0.295 N 
ATOM      8  N   UNL     1      10.162   4.813  -3.186  0.00  0.00    -0.297 N 
ATOM     18  C   UNL     1      10.633   3.918  -2.228  0.00  0.00    +0.300 C 
ATOM     28  H   UNL     1      11.462   5.579  -1.300  0.00  0.00    +0.151 HD
ATOM     29  H   UNL     1      10.283   5.807  -3.016  0.00  0.00    +0.150 HD
BRANCH   8  20
ATOM     20  C   UNL     1       9.421   4.395  -4.351  0.00  0.00    +0.068 C 
ATOM     23  C   UNL     1      10.273   4.548  -5.605  0.00  0.00    +0.027 C 
ATOM     24  C   UNL     1       8.121   5.181  -4.468  0.00  0.00    +0.027 C 
ENDBRANCH   8  20
ENDBRANCH  11   6
BRANCH  10  15
ATOM     15  C   UNL     1       9.959   5.501   3.564  0.00  0.00    +0.029 C 
BRANCH  15  17
ATOM     17  C   UNL     1       9.590   5.071   4.980  0.00  0.00    +0.097 C 
BRANCH  17  19
ATOM      3  O   UNL     1       8.101   6.932   5.235  0.00  0.00    -0.276 OA
ATOM      7  N   UNL     1       9.325   6.321   7.108  0.00  0.00    -0.302 N 
ATOM     19  C   UNL     1       8.931   6.194   5.771  0.00  0.00    +0.216 C 
BRANCH   7  21
ATOM     21  C   UNL     1      10.302   5.472   7.784  0.00  0.00    +0.104 C 
ATOM     25  C   UNL     1       9.637   4.562   8.798  0.00  0.00    +0.024 C 
ENDBRANCH   7  21
BRANCH   7  22
ATOM     22  C   UNL     1       8.747   7.377   7.928  0.00  0.00    +0.104 C 
ATOM     26  C   UNL     1       9.619   8.616   7.935  0.00  0.00    +0.024 C 
ENDBRANCH   7  22
ENDBRANCH  17  19
ENDBRANCH  15  17
ENDBRANCH  10  15
TORSDOF 7
ENDMDL
MODEL 8
REMARK VINA RESULT:      -5.4     26.723     29.078
REMARK  Name = 26763045
REMARK  11 active torsions:
REMARK  status: ('A' for Active; 'I' for Inactive)
REMARK    1  A    between atoms: N_6  and  C_11
REMARK    2  A    between atoms: N_7  and  C_21
REMARK    3  A    between atoms: N_7  and  C_22
REMARK    4  A    between atoms: N_8  and  C_20
REMARK    5  A    between atoms: C_10  and  C_15
REMARK    6  A    between atoms: C_15  and  C_17
REMARK    7  A    between atoms: C_17  and  C_19
REMARK    8  A    between atoms: C_20  and  C_23
REMARK    9  A    between atoms: C_20  and  C_24
REMARK   10  A    between atoms: C_21  and  C_25
REMARK   11  A    between atoms: C_22  and  C_26
REMARK                            x       y       z     vdW  Elec       q    Type
REMARK                         _______ _______ _______ _____ _____    ______ ____
ROOT
ATOM      1  O   UNL     1      -8.608 -14.605  17.240  0.00  0.00    -0.274 OA
ATOM      4  N   UNL     1      -6.584 -11.870  18.206  0.00  0.00    -0.285 NA
ATOM      5  N   UNL     1      -6.321 -14.401  17.204  0.00  0.00    -0.313 N 
ATOM      9  C   UNL     1      -7.630 -12.840  18.545  0.00  0.00    +0.145 C 
ATOM     10  C   UNL     1      -5.262 -12.465  18.408  0.00  0.00    +0.075 C 
ATOM     11  C   UNL     1      -8.419 -10.590  18.890  0.00  0.00    +0.090 C 
ATOM     12  C   UNL     1      -8.893 -11.993  18.497  0.00  0.00    +0.052 C 
ATOM     13  C   UNL     1      -6.896 -10.698  19.022  0.00  0.00    +0.107 C 
ATOM     14  C   UNL     1      -5.122 -13.595  17.378  0.00  0.00    +0.123 C 
ATOM     16  C   UNL     1      -7.591 -14.001  17.578  0.00  0.00    +0.230 C 
ATOM     27  H   UNL     1      -6.247 -15.224  16.614  0.00  0.00    +0.149 HD
ENDROOT
BRANCH  11   6
ATOM      2  O   UNL     1     -11.042  -9.456  18.496  0.00  0.00    -0.253 OA
ATOM      6  N   UNL     1      -8.803  -9.614  17.901  0.00  0.00    -0.295 N 
ATOM      8  N   UNL     1     -10.194  -8.191  16.746  0.00  0.00    -0.297 N 
ATOM     18  C   UNL     1     -10.100  -9.119  17.780  0.00  0.00    +0.300 C 
ATOM     28  H   UNL     1      -8.115  -9.327  17.212  0.00  0.00    +0.151 HD
ATOM     29  H   UNL     1      -9.343  -7.920  16.262  0.00  0.00    +0.150 HD
BRANCH   8  20
ATOM     20  C   UNL     1     -11.427  -7.522  16.403  0.00  0.00    +0.068 C 
ATOM     23  C   UNL     1     -11.941  -8.014  15.056  0.00  0.00    +0.027 C 
ATOM     24  C   UNL     1     -11.232  -6.011  16.401  0.00  0.00    +0.027 C 
ENDBRANCH   8  20
ENDBRANCH  11   6
BRANCH  10  15
ATOM     15  C   UNL     1      -4.120 -11.463  18.225  0.00  0.00    +0.029 C 
BRANCH  15  17
ATOM     17  C   UNL     1      -4.224 -10.749  16.882  0.00  0.00    +0.097 C 
BRANCH  17  19
ATOM      3  O   UNL     1      -1.851 -10.772  16.546  0.00  0.00    -0.276 OA
ATOM      7  N   UNL     1      -3.164 -11.241  14.692  0.00  0.00    -0.302 N 
ATOM     19  C   UNL     1      -2.966 -10.918  16.039  0.00  0.00    +0.216 C 
BRANCH   7  21
ATOM     21  C   UNL     1      -4.463 -11.424  14.050  0.00  0.00    +0.104 C 
ATOM     25  C   UNL     1      -4.729 -12.885  13.745  0.00  0.00    +0.024 C 
ENDBRANCH   7  21
BRANCH   7  22
ATOM     22  C   UNL     1      -2.010 -11.411  13.819  0.00  0.00    +0.104 C 
ATOM     26  C   UNL     1      -2.059 -10.456  12.643  0.00  0.00    +0.024 C 
ENDBRANCH   7  22
ENDBRANCH  17  19
ENDBRANCH  15  17
ENDBRANCH  10  15
TORSDOF 7
ENDMDL
MODEL 9
REMARK VINA RESULT:      -5.1      3.293      6.467
REMARK  Name = 26763045
REMARK  11 active torsions:
REMARK  status: ('A' for Active; 'I' for Inactive)
REMARK    1  A    between atoms: N_6  and  C_11
REMARK    2  A    between atoms: N_7  and  C_21
REMARK    3  A    between atoms: N_7  and  C_22
REMARK    4  A    between atoms: N_8  and  C_20
REMARK    5  A    between atoms: C_10  and  C_15
REMARK    6  A    between atoms: C_15  and  C_17
REMARK    7  A    between atoms: C_17  and  C_19
REMARK    8  A    between atoms: C_20  and  C_23
REMARK    9  A    between atoms: C_20  and  C_24
REMARK   10  A    between atoms: C_21  and  C_25
REMARK   11  A    between atoms: C_22  and  C_26
REMARK                            x       y       z     vdW  Elec       q    Type
REMARK                         _______ _______ _______ _____ _____    ______ ____
ROOT
ATOM      1  O   UNL     1      10.852  11.473  25.642  0.00  0.00    -0.274 OA
ATOM      4  N   UNL     1      11.641  11.468  22.194  0.00  0.00    -0.285 NA
ATOM      5  N   UNL     1      11.046  13.241  24.190  0.00  0.00    -0.313 N 
ATOM      9  C   UNL     1      10.791  10.990  23.289  0.00  0.00    +0.145 C 
ATOM     10  C   UNL     1      11.168  12.771  21.723  0.00  0.00    +0.075 C 
ATOM     11  C   UNL     1      11.757   9.133  22.095  0.00  0.00    +0.090 C 
ATOM     12  C   UNL     1      11.280   9.562  23.486  0.00  0.00    +0.052 C 
ATOM     13  C   UNL     1      11.620  10.381  21.216  0.00  0.00    +0.107 C 
ATOM     14  C   UNL     1      11.384  13.763  22.874  0.00  0.00    +0.123 C 
ATOM     16  C   UNL     1      10.936  11.896  24.489  0.00  0.00    +0.230 C 
ATOM     27  H   UNL     1      11.072  13.891  24.969  0.00  0.00    +0.149 HD
ENDROOT
BRANCH  11   6
ATOM      2  O   UNL     1      12.974   7.220  20.311  0.00  0.00    -0.253 OA
ATOM      6  N   UNL     1      13.115   8.652  22.134  0.00  0.00    -0.295 N 
ATOM      8  N   UNL     1      14.958   7.431  21.494  0.00  0.00    -0.297 N 
ATOM     18  C   UNL     1      13.622   7.721  21.229  0.00  0.00    +0.300 C 
ATOM     28  H   UNL     1      13.711   8.947  22.901  0.00  0.00    +0.151 HD
ATOM     29  H   UNL     1      15.429   7.955  22.226  0.00  0.00    +0.150 HD
BRANCH   8  20
ATOM     20  C   UNL     1      15.729   6.498  20.707  0.00  0.00    +0.068 C 
ATOM     23  C   UNL     1      17.138   6.367  21.270  0.00  0.00    +0.027 C 
ATOM     24  C   UNL     1      15.755   6.926  19.245  0.00  0.00    +0.027 C 
ENDBRANCH   8  20
ENDBRANCH  11   6
BRANCH  10  15
ATOM     15  C   UNL     1      11.908  13.262  20.478  0.00  0.00    +0.029 C 
BRANCH  15  17
ATOM     17  C   UNL     1      13.386  13.498  20.773  0.00  0.00    +0.097 C 
BRANCH  17  19
ATOM      3  O   UNL     1      14.095  11.993  19.047  0.00  0.00    -0.276 OA
ATOM      7  N   UNL     1      15.267  11.902  21.046  0.00  0.00    -0.302 N 
ATOM     19  C   UNL     1      14.271  12.399  20.198  0.00  0.00    +0.216 C 
BRANCH   7  21
ATOM     21  C   UNL     1      15.514  12.352  22.414  0.00  0.00    +0.104 C 
ATOM     25  C   UNL     1      14.890  11.413  23.427  0.00  0.00    +0.024 C 
ENDBRANCH   7  21
BRANCH   7  22
ATOM     22  C   UNL     1      16.149  10.844  20.573  0.00  0.00    +0.104 C 
ATOM     26  C   UNL     1      17.601  11.152  20.878  0.00  0.00    +0.024 C 
ENDBRANCH   7  22
ENDBRANCH  17  19
ENDBRANCH  15  17
ENDBRANCH  10  15
TORSDOF 7
ENDMDL
MODEL 10
REMARK VINA RESULT:      -5.1     26.970     29.015
REMARK  Name = 26763045
REMARK  11 active torsions:
REMARK  status: ('A' for Active; 'I' for Inactive)
REMARK    1  A    between atoms: N_6  and  C_11
REMARK    2  A    between atoms: N_7  and  C_21
REMARK    3  A    between atoms: N_7  and  C_22
REMARK    4  A    between atoms: N_8  and  C_20
REMARK    5  A    between atoms: C_10  and  C_15
REMARK    6  A    between atoms: C_15  and  C_17
REMARK    7  A    between atoms: C_17  and  C_19
REMARK    8  A    between atoms: C_20  and  C_23
REMARK    9  A    between atoms: C_20  and  C_24
REMARK   10  A    between atoms: C_21  and  C_25
REMARK   11  A    between atoms: C_22  and  C_26
REMARK                            x       y       z     vdW  Elec       q    Type
REMARK                         _______ _______ _______ _____ _____    ______ ____
ROOT
ATOM      1  O   UNL     1      -8.191 -13.104  19.534  0.00  0.00    -0.274 OA
ATOM      4  N   UNL     1      -6.728 -10.612  17.495  0.00  0.00    -0.285 NA
ATOM      5  N   UNL     1      -6.010 -12.873  18.857  0.00  0.00    -0.313 N 
ATOM      9  C   UNL     1      -7.514 -10.962  18.682  0.00  0.00    +0.145 C 
ATOM     10  C   UNL     1      -5.298 -10.709  17.793  0.00  0.00    +0.075 C 
ATOM     11  C   UNL     1      -8.735  -9.431  17.279  0.00  0.00    +0.090 C 
ATOM     12  C   UNL     1      -8.928 -10.591  18.261  0.00  0.00    +0.052 C 
ATOM     13  C   UNL     1      -7.219  -9.290  17.109  0.00  0.00    +0.107 C 
ATOM     14  C   UNL     1      -5.000 -12.191  18.061  0.00  0.00    +0.123 C 
ATOM     16  C   UNL     1      -7.303 -12.417  19.032  0.00  0.00    +0.230 C 
ATOM     27  H   UNL     1      -5.807 -13.824  19.149  0.00  0.00    +0.149 HD
ENDROOT
BRANCH  11   6
ATOM      2  O   UNL     1     -10.492  -7.660  15.829  0.00  0.00    -0.253 OA
ATOM      6  N   UNL     1      -9.392  -9.696  16.023  0.00  0.00    -0.295 N 
ATOM      8  N   UNL     1     -10.732  -9.290  14.196  0.00  0.00    -0.297 N 
ATOM     18  C   UNL     1     -10.230  -8.779  15.391  0.00  0.00    +0.300 C 
ATOM     28  H   UNL     1      -9.302 -10.622  15.616  0.00  0.00    +0.151 HD
ATOM     29  H   UNL     1     -10.395 -10.195  13.880  0.00  0.00    +0.150 HD
BRANCH   8  20
ATOM     20  C   UNL     1     -11.625  -8.547  13.340  0.00  0.00    +0.068 C 
ATOM     23  C   UNL     1     -13.072  -8.771  13.760  0.00  0.00    +0.027 C 
ATOM     24  C   UNL     1     -11.408  -8.929  11.881  0.00  0.00    +0.027 C 
ENDBRANCH   8  20
ENDBRANCH  11   6
BRANCH  10  15
ATOM     15  C   UNL     1      -4.413 -10.207  16.651  0.00  0.00    +0.029 C 
BRANCH  15  17
ATOM     17  C   UNL     1      -3.816 -11.371  15.865  0.00  0.00    +0.097 C 
BRANCH  17  19
ATOM      3  O   UNL     1      -4.761 -10.500  13.842  0.00  0.00    -0.276 OA
ATOM      7  N   UNL     1      -2.747 -11.631  13.641  0.00  0.00    -0.302 N 
ATOM     19  C   UNL     1      -3.831 -11.121  14.363  0.00  0.00    +0.216 C 
BRANCH   7  21
ATOM     21  C   UNL     1      -1.624 -12.371  14.213  0.00  0.00    +0.104 C 
ATOM     25  C   UNL     1      -1.610 -13.810  13.740  0.00  0.00    +0.024 C 
ENDBRANCH   7  21
BRANCH   7  22
ATOM     22  C   UNL     1      -2.693 -11.442  12.197  0.00  0.00    +0.104 C 
ATOM     26  C   UNL     1      -1.866 -10.228  11.827  0.00  0.00    +0.024 C 
ENDBRANCH   7  22
ENDBRANCH  17  19
ENDBRANCH  15  17
ENDBRANCH  10  15
TORSDOF 7
ENDMDL
