MODEL 1
REMARK VINA RESULT:      -6.4      0.000      0.000
REMARK  Name = 7134327
REMARK  15 active torsions:
REMARK  status: ('A' for Active; 'I' for Inactive)
REMARK    1  A    between atoms: O_4  and  C_25
REMARK    2  A    between atoms: O_4  and  C_32
REMARK    3  A    between atoms: O_7  and  C_34
REMARK    4  A    between atoms: N_10  and  C_15
REMARK    5  A    between atoms: N_11  and  C_22
REMARK    6  A    between atoms: C_16  and  C_20
REMARK    7  A    between atoms: C_21  and  C_25
REMARK    8  A    between atoms: C_22  and  C_23
REMARK    9  A    between atoms: C_22  and  C_27
REMARK   10  A    between atoms: C_23  and  C_24
REMARK   11  A    between atoms: C_24  and  C_28
REMARK   12  A    between atoms: C_24  and  C_29
REMARK   13  A    between atoms: C_26  and  C_30
REMARK   14  A    between atoms: C_31  and  C_33
REMARK   15  A    between atoms: C_32  and  C_34
REMARK                            x       y       z     vdW  Elec       q    Type
REMARK                         _______ _______ _______ _____ _____    ______ ____
ROOT
ATOM      3  O   UNL     1      12.047   6.712  18.753  0.00  0.00    -0.273 OA
ATOM      9  N   UNL     1      13.741   7.263  20.253  0.00  0.00    -0.288 N 
ATOM     15  C   UNL     1      16.580   7.195  20.930  0.00  0.00    +0.077 C 
ATOM     16  C   UNL     1      14.164   7.723  21.585  0.00  0.00    +0.164 C 
ATOM     17  C   UNL     1      15.510   7.142  22.024  0.00  0.00    +0.054 C 
ATOM     18  C   UNL     1      16.046   6.583  19.637  0.00  0.00    +0.041 C 
ATOM     19  C   UNL     1      14.763   7.275  19.199  0.00  0.00    +0.110 C 
ATOM     21  C   UNL     1      12.418   6.966  19.902  0.00  0.00    +0.242 C 
ENDROOT
BRANCH  16  20
ATOM      2  O   UNL     1      13.864   9.848  20.535  0.00  0.00    -0.274 OA
ATOM     11  N   UNL     1      14.619   9.776  22.735  0.00  0.00    -0.302 N 
ATOM     20  C   UNL     1      14.185   9.224  21.542  0.00  0.00    +0.234 C 
ATOM     36  H   UNL     1      14.738   9.174  23.545  0.00  0.00    +0.150 HD
BRANCH  11  22
ATOM     22  C   UNL     1      14.750  11.200  22.945  0.00  0.00    +0.159 C 
BRANCH  22  27
ATOM      6  O   UNL     1      13.053  12.043  24.470  0.00  0.00    -0.274 OA
ATOM     12  N   UNL     1      14.939  11.074  25.353  0.00  0.00    -0.328 N 
ATOM     27  C   UNL     1      14.148  11.507  24.310  0.00  0.00    +0.231 C 
ATOM     37  H   UNL     1      15.831  10.612  25.206  0.00  0.00    +0.145 HD
ATOM     38  H   UNL     1      14.647  11.204  26.317  0.00  0.00    +0.145 HD
ENDBRANCH  22  27
BRANCH  22  23
ATOM     23  C   UNL     1      16.211  11.663  22.893  0.00  0.00    +0.034 C 
BRANCH  23  24
ATOM     24  C   UNL     1      16.643  12.291  21.553  0.00  0.00    -0.015 C 
ATOM     28  C   UNL     1      17.151  11.248  20.557  0.00  0.00    +0.007 C 
ATOM     29  C   UNL     1      15.470  13.060  20.940  0.00  0.00    +0.007 C 
ENDBRANCH  23  24
ENDBRANCH  22  23
ENDBRANCH  11  22
ENDBRANCH  16  20
BRANCH  15  10
ATOM      5  O   UNL     1      19.097   8.402  21.333  0.00  0.00    -0.270 OA
ATOM     10  N   UNL     1      17.782   6.518  21.354  0.00  0.00    -0.308 N 
ATOM     26  C   UNL     1      18.990   7.190  21.531  0.00  0.00    +0.254 C 
ATOM     35  H   UNL     1      17.726   5.530  21.584  0.00  0.00    +0.149 HD
BRANCH  26  30
ATOM      1  S   UNL     1      20.842   5.196  20.980  0.00  0.00    +0.041 S 
ATOM     13  N   UNL     1      21.825   5.406  23.275  0.00  0.00    -0.146 NA
ATOM     14  N   UNL     1      21.954   4.731  22.144  0.00  0.00    -0.110 NA
ATOM     30  C   UNL     1      20.117   6.370  21.999  0.00  0.00    +0.117 A 
ATOM     31  C   UNL     1      20.794   6.330  23.200  0.00  0.00    +0.081 A 
ATOM     33  C   UNL     1      20.522   7.166  24.386  0.00  0.00    +0.069 C 
ENDBRANCH  26  30
ENDBRANCH  15  10
BRANCH  21  25
ATOM     25  C   UNL     1      11.406   6.955  21.020  0.00  0.00    +0.256 C 
BRANCH  25   4
ATOM      4  O   UNL     1      10.798   8.223  21.023  0.00  0.00    -0.359 OA
BRANCH   4  32
ATOM     32  C   UNL     1      10.315   8.583  22.316  0.00  0.00    +0.280 C 
BRANCH  32  34
ATOM      8  O   UNL     1      11.070  10.868  21.983  0.00  0.00    -0.248 OA
ATOM     34  C   UNL     1      10.888   9.913  22.722  0.00  0.00    +0.331 C 
BRANCH  34   7
ATOM      7  O   UNL     1      11.181   9.912  24.047  0.00  0.00    -0.479 OA
ATOM     39  H   UNL     1      10.516  10.411  24.569  0.00  0.00    +0.295 HD
ENDBRANCH  34   7
ENDBRANCH  32  34
ENDBRANCH   4  32
ENDBRANCH  25   4
ENDBRANCH  21  25
TORSDOF 12
ENDMDL
MODEL 2
REMARK VINA RESULT:      -5.9     16.241     19.215
REMARK  Name = 7134327
REMARK  15 active torsions:
REMARK  status: ('A' for Active; 'I' for Inactive)
REMARK    1  A    between atoms: O_4  and  C_25
REMARK    2  A    between atoms: O_4  and  C_32
REMARK    3  A    between atoms: O_7  and  C_34
REMARK    4  A    between atoms: N_10  and  C_15
REMARK    5  A    between atoms: N_11  and  C_22
REMARK    6  A    between atoms: C_16  and  C_20
REMARK    7  A    between atoms: C_21  and  C_25
REMARK    8  A    between atoms: C_22  and  C_23
REMARK    9  A    between atoms: C_22  and  C_27
REMARK   10  A    between atoms: C_23  and  C_24
REMARK   11  A    between atoms: C_24  and  C_28
REMARK   12  A    between atoms: C_24  and  C_29
REMARK   13  A    between atoms: C_26  and  C_30
REMARK   14  A    between atoms: C_31  and  C_33
REMARK   15  A    between atoms: C_32  and  C_34
REMARK                            x       y       z     vdW  Elec       q    Type
REMARK                         _______ _______ _______ _____ _____    ______ ____
ROOT
ATOM      3  O   UNL     1       8.415   7.998   7.385  0.00  0.00    -0.273 OA
ATOM      9  N   UNL     1       9.864   7.077   5.813  0.00  0.00    -0.288 N 
ATOM     15  C   UNL     1      10.456   6.508   3.011  0.00  0.00    +0.077 C 
ATOM     16  C   UNL     1      11.023   6.229   5.490  0.00  0.00    +0.164 C 
ATOM     17  C   UNL     1      10.915   5.557   4.119  0.00  0.00    +0.054 C 
ATOM     18  C   UNL     1       9.183   7.238   3.433  0.00  0.00    +0.041 C 
ATOM     19  C   UNL     1       9.389   7.972   4.751  0.00  0.00    +0.110 C 
ATOM     21  C   UNL     1       9.297   7.188   7.088  0.00  0.00    +0.242 C 
ENDROOT
BRANCH  16  20
ATOM      2  O   UNL     1      12.446   7.811   6.576  0.00  0.00    -0.274 OA
ATOM     11  N   UNL     1      13.053   7.005   4.479  0.00  0.00    -0.302 N 
ATOM     20  C   UNL     1      12.242   7.098   5.597  0.00  0.00    +0.234 C 
ATOM     36  H   UNL     1      12.856   6.291   3.783  0.00  0.00    +0.150 HD
BRANCH  11  22
ATOM     22  C   UNL     1      14.276   7.758   4.324  0.00  0.00    +0.159 C 
BRANCH  22  27
ATOM      6  O   UNL     1      16.165   7.493   2.815  0.00  0.00    -0.274 OA
ATOM     12  N   UNL     1      14.494   5.917   2.770  0.00  0.00    -0.328 N 
ATOM     27  C   UNL     1      15.083   7.079   3.225  0.00  0.00    +0.231 C 
ATOM     37  H   UNL     1      13.610   5.575   3.134  0.00  0.00    +0.145 HD
ATOM     38  H   UNL     1      14.935   5.359   2.047  0.00  0.00    +0.145 HD
ENDBRANCH  22  27
BRANCH  22  23
ATOM     23  C   UNL     1      14.014   9.225   3.961  0.00  0.00    +0.034 C 
BRANCH  23  24
ATOM     24  C   UNL     1      14.799  10.250   4.802  0.00  0.00    -0.015 C 
ATOM     28  C   UNL     1      15.444   9.620   6.037  0.00  0.00    +0.007 C 
ATOM     29  C   UNL     1      15.878  10.910   3.938  0.00  0.00    +0.007 C 
ENDBRANCH  23  24
ENDBRANCH  22  23
ENDBRANCH  11  22
ENDBRANCH  16  20
BRANCH  15  10
ATOM      5  O   UNL     1      12.223   6.464   0.813  0.00  0.00    -0.270 OA
ATOM     10  N   UNL     1      10.247   5.794   1.775  0.00  0.00    -0.308 N 
ATOM     26  C   UNL     1      11.173   5.823   0.733  0.00  0.00    +0.254 C 
ATOM     35  H   UNL     1       9.422   5.207   1.688  0.00  0.00    +0.149 HD
BRANCH  26  30
ATOM      1  S   UNL     1       9.519   5.443  -1.464  0.00  0.00    +0.041 S 
ATOM     13  N   UNL     1      10.793   3.391  -2.131  0.00  0.00    -0.146 NA
ATOM     14  N   UNL     1       9.768   4.146  -2.495  0.00  0.00    -0.110 NA
ATOM     30  C   UNL     1      10.834   5.017  -0.448  0.00  0.00    +0.117 A 
ATOM     31  C   UNL     1      11.397   3.876  -0.981  0.00  0.00    +0.081 A 
ATOM     33  C   UNL     1      12.561   3.142  -0.444  0.00  0.00    +0.069 C 
ENDBRANCH  26  30
ENDBRANCH  15  10
BRANCH  21  25
ATOM     25  C   UNL     1       9.809   6.240   8.144  0.00  0.00    +0.256 C 
BRANCH  25   4
ATOM      4  O   UNL     1       9.153   5.013   7.932  0.00  0.00    -0.359 OA
BRANCH   4  32
ATOM     32  C   UNL     1       9.605   4.002   8.831  0.00  0.00    +0.280 C 
BRANCH  32  34
ATOM      8  O   UNL     1       8.192   4.708  10.676  0.00  0.00    -0.248 OA
ATOM     34  C   UNL     1       9.293   4.401  10.247  0.00  0.00    +0.331 C 
BRANCH  34   7
ATOM      7  O   UNL     1      10.421   4.372  11.001  0.00  0.00    -0.479 OA
ATOM     39  H   UNL     1      10.434   3.603  11.611  0.00  0.00    +0.295 HD
ENDBRANCH  34   7
ENDBRANCH  32  34
ENDBRANCH   4  32
ENDBRANCH  25   4
ENDBRANCH  21  25
TORSDOF 12
ENDMDL
MODEL 3
REMARK VINA RESULT:      -5.6      1.684      1.942
REMARK  Name = 7134327
REMARK  15 active torsions:
REMARK  status: ('A' for Active; 'I' for Inactive)
REMARK    1  A    between atoms: O_4  and  C_25
REMARK    2  A    between atoms: O_4  and  C_32
REMARK    3  A    between atoms: O_7  and  C_34
REMARK    4  A    between atoms: N_10  and  C_15
REMARK    5  A    between atoms: N_11  and  C_22
REMARK    6  A    between atoms: C_16  and  C_20
REMARK    7  A    between atoms: C_21  and  C_25
REMARK    8  A    between atoms: C_22  and  C_23
REMARK    9  A    between atoms: C_22  and  C_27
REMARK   10  A    between atoms: C_23  and  C_24
REMARK   11  A    between atoms: C_24  and  C_28
REMARK   12  A    between atoms: C_24  and  C_29
REMARK   13  A    between atoms: C_26  and  C_30
REMARK   14  A    between atoms: C_31  and  C_33
REMARK   15  A    between atoms: C_32  and  C_34
REMARK                            x       y       z     vdW  Elec       q    Type
REMARK                         _______ _______ _______ _____ _____    ______ ____
ROOT
ATOM      3  O   UNL     1      12.249   6.972  17.782  0.00  0.00    -0.273 OA
ATOM      9  N   UNL     1      13.896   7.659  19.277  0.00  0.00    -0.288 N 
ATOM     15  C   UNL     1      16.654   7.437  20.211  0.00  0.00    +0.077 C 
ATOM     16  C   UNL     1      14.286   8.358  20.512  0.00  0.00    +0.164 C 
ATOM     17  C   UNL     1      15.516   7.747  21.187  0.00  0.00    +0.054 C 
ATOM     18  C   UNL     1      16.133   6.612  19.036  0.00  0.00    +0.041 C 
ATOM     19  C   UNL     1      14.979   7.323  18.343  0.00  0.00    +0.110 C 
ATOM     21  C   UNL     1      12.573   7.436  18.878  0.00  0.00    +0.242 C 
ENDROOT
BRANCH  16  20
ATOM      2  O   UNL     1      15.392  10.149  19.384  0.00  0.00    -0.274 OA
ATOM     11  N   UNL     1      13.601  10.637  20.788  0.00  0.00    -0.302 N 
ATOM     20  C   UNL     1      14.499   9.799  20.149  0.00  0.00    +0.234 C 
ATOM     36  H   UNL     1      12.823  10.232  21.300  0.00  0.00    +0.150 HD
BRANCH  11  22
ATOM     22  C   UNL     1      13.608  12.073  20.625  0.00  0.00    +0.159 C 
BRANCH  22  27
ATOM      6  O   UNL     1      11.723  13.591  20.385  0.00  0.00    -0.274 OA
ATOM     12  N   UNL     1      11.445  11.683  21.634  0.00  0.00    -0.328 N 
ATOM     27  C   UNL     1      12.183  12.556  20.863  0.00  0.00    +0.231 C 
ATOM     37  H   UNL     1      11.832  10.821  22.005  0.00  0.00    +0.145 HD
ATOM     38  H   UNL     1      10.474  11.878  21.857  0.00  0.00    +0.145 HD
ENDBRANCH  22  27
BRANCH  22  23
ATOM     23  C   UNL     1      14.573  12.763  21.597  0.00  0.00    +0.034 C 
BRANCH  23  24
ATOM     24  C   UNL     1      15.720  13.544  20.926  0.00  0.00    -0.015 C 
ATOM     28  C   UNL     1      17.078  12.868  21.123  0.00  0.00    +0.007 C 
ATOM     29  C   UNL     1      15.434  13.698  19.430  0.00  0.00    +0.007 C 
ENDBRANCH  23  24
ENDBRANCH  22  23
ENDBRANCH  11  22
ENDBRANCH  16  20
BRANCH  15  10
ATOM      5  O   UNL     1      19.129   8.568  20.951  0.00  0.00    -0.270 OA
ATOM     10  N   UNL     1      17.730   6.746  20.879  0.00  0.00    -0.308 N 
ATOM     26  C   UNL     1      18.927   7.380  21.212  0.00  0.00    +0.254 C 
ATOM     35  H   UNL     1      17.584   5.782  21.164  0.00  0.00    +0.149 HD
BRANCH  26  30
ATOM      1  S   UNL     1      20.570   5.142  21.199  0.00  0.00    +0.041 S 
ATOM     13  N   UNL     1      21.403   5.679  23.500  0.00  0.00    -0.146 NA
ATOM     14  N   UNL     1      21.533   4.794  22.524  0.00  0.00    -0.110 NA
ATOM     30  C   UNL     1      19.914   6.553  21.920  0.00  0.00    +0.117 A 
ATOM     31  C   UNL     1      20.493   6.671  23.167  0.00  0.00    +0.081 A 
ATOM     33  C   UNL     1      20.234   7.737  24.155  0.00  0.00    +0.069 C 
ENDBRANCH  26  30
ENDBRANCH  15  10
BRANCH  21  25
ATOM     25  C   UNL     1      11.496   7.785  19.875  0.00  0.00    +0.256 C 
BRANCH  25   4
ATOM      4  O   UNL     1      11.407   6.700  20.765  0.00  0.00    -0.359 OA
BRANCH   4  32
ATOM     32  C   UNL     1      10.595   7.002  21.899  0.00  0.00    +0.280 C 
BRANCH  32  34
ATOM      8  O   UNL     1      11.958   8.837  22.725  0.00  0.00    -0.248 OA
ATOM     34  C   UNL     1      10.873   8.405  22.365  0.00  0.00    +0.331 C 
BRANCH  34   7
ATOM      7  O   UNL     1       9.735   9.143  22.332  0.00  0.00    -0.479 OA
ATOM     39  H   UNL     1       9.379   9.225  21.421  0.00  0.00    +0.295 HD
ENDBRANCH  34   7
ENDBRANCH  32  34
ENDBRANCH   4  32
ENDBRANCH  25   4
ENDBRANCH  21  25
TORSDOF 12
ENDMDL
MODEL 4
REMARK VINA RESULT:      -5.5      4.955      7.330
REMARK  Name = 7134327
REMARK  15 active torsions:
REMARK  status: ('A' for Active; 'I' for Inactive)
REMARK    1  A    between atoms: O_4  and  C_25
REMARK    2  A    between atoms: O_4  and  C_32
REMARK    3  A    between atoms: O_7  and  C_34
REMARK    4  A    between atoms: N_10  and  C_15
REMARK    5  A    between atoms: N_11  and  C_22
REMARK    6  A    between atoms: C_16  and  C_20
REMARK    7  A    between atoms: C_21  and  C_25
REMARK    8  A    between atoms: C_22  and  C_23
REMARK    9  A    between atoms: C_22  and  C_27
REMARK   10  A    between atoms: C_23  and  C_24
REMARK   11  A    between atoms: C_24  and  C_28
REMARK   12  A    between atoms: C_24  and  C_29
REMARK   13  A    between atoms: C_26  and  C_30
REMARK   14  A    between atoms: C_31  and  C_33
REMARK   15  A    between atoms: C_32  and  C_34
REMARK                            x       y       z     vdW  Elec       q    Type
REMARK                         _______ _______ _______ _____ _____    ______ ____
ROOT
ATOM      3  O   UNL     1      12.086   6.433  19.324  0.00  0.00    -0.273 OA
ATOM      9  N   UNL     1      13.049   8.431  18.615  0.00  0.00    -0.288 N 
ATOM     15  C   UNL     1      13.598  10.289  16.430  0.00  0.00    +0.077 C 
ATOM     16  C   UNL     1      13.945   9.572  18.861  0.00  0.00    +0.164 C 
ATOM     17  C   UNL     1      14.589  10.120  17.585  0.00  0.00    +0.054 C 
ATOM     18  C   UNL     1      12.816   8.995  16.211  0.00  0.00    +0.041 C 
ATOM     19  C   UNL     1      12.115   8.561  17.490  0.00  0.00    +0.110 C 
ATOM     21  C   UNL     1      12.932   7.321  19.460  0.00  0.00    +0.242 C 
ENDROOT
BRANCH  16  20
ATOM      2  O   UNL     1      12.982  11.743  19.120  0.00  0.00    -0.274 OA
ATOM     11  N   UNL     1      12.636  10.152  20.783  0.00  0.00    -0.302 N 
ATOM     20  C   UNL     1      13.137  10.615  19.578  0.00  0.00    +0.234 C 
ATOM     36  H   UNL     1      12.717   9.164  21.006  0.00  0.00    +0.150 HD
BRANCH  11  22
ATOM     22  C   UNL     1      11.843  10.967  21.675  0.00  0.00    +0.159 C 
BRANCH  22  27
ATOM      6  O   UNL     1      10.410   9.067  22.172  0.00  0.00    -0.274 OA
ATOM     12  N   UNL     1      11.239  10.305  23.921  0.00  0.00    -0.328 N 
ATOM     27  C   UNL     1      11.073  10.017  22.582  0.00  0.00    +0.231 C 
ATOM     37  H   UNL     1      11.808  11.079  24.246  0.00  0.00    +0.145 HD
ATOM     38  H   UNL     1      10.790   9.739  24.634  0.00  0.00    +0.145 HD
ENDBRANCH  22  27
BRANCH  22  23
ATOM     23  C   UNL     1      12.705  11.920  22.511  0.00  0.00    +0.034 C 
BRANCH  23  24
ATOM     24  C   UNL     1      12.376  13.415  22.335  0.00  0.00    -0.015 C 
ATOM     28  C   UNL     1      11.098  13.639  21.525  0.00  0.00    +0.007 C 
ATOM     29  C   UNL     1      12.239  14.080  23.707  0.00  0.00    +0.007 C 
ENDBRANCH  23  24
ENDBRANCH  22  23
ENDBRANCH  11  22
ENDBRANCH  16  20
BRANCH  15  10
ATOM      5  O   UNL     1      14.247  12.931  15.687  0.00  0.00    -0.270 OA
ATOM     10  N   UNL     1      14.281  10.681  15.221  0.00  0.00    -0.308 N 
ATOM     26  C   UNL     1      14.566  12.014  14.927  0.00  0.00    +0.254 C 
ATOM     35  H   UNL     1      14.612   9.954  14.594  0.00  0.00    +0.149 HD
BRANCH  26  30
ATOM      1  S   UNL     1      14.464  12.599  12.215  0.00  0.00    +0.041 S 
ATOM     13  N   UNL     1      16.964  12.530  12.057  0.00  0.00    -0.146 NA
ATOM     14  N   UNL     1      15.878  12.731  11.326  0.00  0.00    -0.110 NA
ATOM     30  C   UNL     1      15.296  12.252  13.674  0.00  0.00    +0.117 A 
ATOM     31  C   UNL     1      16.644  12.260  13.378  0.00  0.00    +0.081 A 
ATOM     33  C   UNL     1      17.749  12.012  14.325  0.00  0.00    +0.069 C 
ENDBRANCH  26  30
ENDBRANCH  15  10
BRANCH  21  25
ATOM     25  C   UNL     1      13.921   7.224  20.595  0.00  0.00    +0.256 C 
BRANCH  25   4
ATOM      4  O   UNL     1      14.950   6.370  20.158  0.00  0.00    -0.359 OA
BRANCH   4  32
ATOM     32  C   UNL     1      16.240   6.957  20.324  0.00  0.00    +0.280 C 
BRANCH  32  34
ATOM      8  O   UNL     1      18.466   6.191  19.721  0.00  0.00    -0.248 OA
ATOM     34  C   UNL     1      17.258   6.179  19.536  0.00  0.00    +0.331 C 
BRANCH  34   7
ATOM      7  O   UNL     1      16.645   5.446  18.573  0.00  0.00    -0.479 OA
ATOM     39  H   UNL     1      15.684   5.348  18.745  0.00  0.00    +0.295 HD
ENDBRANCH  34   7
ENDBRANCH  32  34
ENDBRANCH   4  32
ENDBRANCH  25   4
ENDBRANCH  21  25
TORSDOF 12
ENDMDL
MODEL 5
REMARK VINA RESULT:      -5.5     15.275     18.250
REMARK  Name = 7134327
REMARK  15 active torsions:
REMARK  status: ('A' for Active; 'I' for Inactive)
REMARK    1  A    between atoms: O_4  and  C_25
REMARK    2  A    between atoms: O_4  and  C_32
REMARK    3  A    between atoms: O_7  and  C_34
REMARK    4  A    between atoms: N_10  and  C_15
REMARK    5  A    between atoms: N_11  and  C_22
REMARK    6  A    between atoms: C_16  and  C_20
REMARK    7  A    between atoms: C_21  and  C_25
REMARK    8  A    between atoms: C_22  and  C_23
REMARK    9  A    between atoms: C_22  and  C_27
REMARK   10  A    between atoms: C_23  and  C_24
REMARK   11  A    between atoms: C_24  and  C_28
REMARK   12  A    between atoms: C_24  and  C_29
REMARK   13  A    between atoms: C_26  and  C_30
REMARK   14  A    between atoms: C_31  and  C_33
REMARK   15  A    between atoms: C_32  and  C_34
REMARK                            x       y       z     vdW  Elec       q    Type
REMARK                         _______ _______ _______ _____ _____    ______ ____
ROOT
ATOM      3  O   UNL     1      10.054   5.995   0.528  0.00  0.00    -0.273 OA
ATOM      9  N   UNL     1      11.068   6.391   2.586  0.00  0.00    -0.288 N 
ATOM     15  C   UNL     1      12.341   8.286   4.406  0.00  0.00    +0.077 C 
ATOM     16  C   UNL     1      11.686   5.883   3.822  0.00  0.00    +0.164 C 
ATOM     17  C   UNL     1      12.762   6.814   4.384  0.00  0.00    +0.054 C 
ATOM     18  C   UNL     1      11.827   8.710   3.032  0.00  0.00    +0.041 C 
ATOM     19  C   UNL     1      10.688   7.809   2.577  0.00  0.00    +0.110 C 
ATOM     21  C   UNL     1      10.692   5.588   1.503  0.00  0.00    +0.242 C 
ENDROOT
BRANCH  16  20
ATOM      2  O   UNL     1       9.579   4.991   4.510  0.00  0.00    -0.274 OA
ATOM     11  N   UNL     1      10.805   6.276   6.016  0.00  0.00    -0.302 N 
ATOM     20  C   UNL     1      10.573   5.651   4.802  0.00  0.00    +0.234 C 
ATOM     36  H   UNL     1      11.716   6.689   6.194  0.00  0.00    +0.150 HD
BRANCH  11  22
ATOM     22  C   UNL     1       9.875   6.225   7.121  0.00  0.00    +0.159 C 
BRANCH  22  27
ATOM      6  O   UNL     1      10.872   5.304   9.139  0.00  0.00    -0.274 OA
ATOM     12  N   UNL     1      10.064   3.853   7.552  0.00  0.00    -0.328 N 
ATOM     27  C   UNL     1      10.343   5.110   8.047  0.00  0.00    +0.231 C 
ATOM     37  H   UNL     1       9.606   3.707   6.658  0.00  0.00    +0.145 HD
ATOM     38  H   UNL     1      10.311   3.020   8.077  0.00  0.00    +0.145 HD
ENDBRANCH  22  27
BRANCH  22  23
ATOM     23  C   UNL     1       9.805   7.554   7.883  0.00  0.00    +0.034 C 
BRANCH  23  24
ATOM     24  C   UNL     1       8.904   8.624   7.237  0.00  0.00    -0.015 C 
ATOM     28  C   UNL     1       9.709   9.730   6.553  0.00  0.00    +0.007 C 
ATOM     29  C   UNL     1       7.967   7.966   6.220  0.00  0.00    +0.007 C 
ENDBRANCH  23  24
ENDBRANCH  22  23
ENDBRANCH  11  22
ENDBRANCH  16  20
BRANCH  15  10
ATOM      5  O   UNL     1      13.122   8.782   7.071  0.00  0.00    -0.270 OA
ATOM     10  N   UNL     1      13.437   9.127   4.821  0.00  0.00    -0.308 N 
ATOM     26  C   UNL     1      13.760   9.321   6.163  0.00  0.00    +0.254 C 
ATOM     35  H   UNL     1      14.025   9.546   4.105  0.00  0.00    +0.149 HD
BRANCH  26  30
ATOM      1  S   UNL     1      14.735  11.757   7.071  0.00  0.00    +0.041 S 
ATOM     13  N   UNL     1      17.092  11.038   6.619  0.00  0.00    -0.146 NA
ATOM     14  N   UNL     1      16.383  12.058   7.076  0.00  0.00    -0.110 NA
ATOM     30  C   UNL     1      14.924  10.179   6.425  0.00  0.00    +0.117 A 
ATOM     31  C   UNL     1      16.278   9.978   6.251  0.00  0.00    +0.081 A 
ATOM     33  C   UNL     1      16.920   8.759   5.719  0.00  0.00    +0.069 C 
ENDBRANCH  26  30
ENDBRANCH  15  10
BRANCH  21  25
ATOM     25  C   UNL     1      11.115   4.141   1.551  0.00  0.00    +0.256 C 
BRANCH  25   4
ATOM      4  O   UNL     1      12.309   4.047   0.813  0.00  0.00    -0.359 OA
BRANCH   4  32
ATOM     32  C   UNL     1      13.259   3.185   1.437  0.00  0.00    +0.280 C 
BRANCH  32  34
ATOM      8  O   UNL     1      14.719   5.126   1.483  0.00  0.00    -0.248 OA
ATOM     34  C   UNL     1      14.524   3.945   1.725  0.00  0.00    +0.331 C 
BRANCH  34   7
ATOM      7  O   UNL     1      15.440   3.128   2.303  0.00  0.00    -0.479 OA
ATOM     39  H   UNL     1      15.016   2.368   2.758  0.00  0.00    +0.295 HD
ENDBRANCH  34   7
ENDBRANCH  32  34
ENDBRANCH   4  32
ENDBRANCH  25   4
ENDBRANCH  21  25
TORSDOF 12
ENDMDL
MODEL 6
REMARK VINA RESULT:      -5.4     27.991     30.802
REMARK  Name = 7134327
REMARK  15 active torsions:
REMARK  status: ('A' for Active; 'I' for Inactive)
REMARK    1  A    between atoms: O_4  and  C_25
REMARK    2  A    between atoms: O_4  and  C_32
REMARK    3  A    between atoms: O_7  and  C_34
REMARK    4  A    between atoms: N_10  and  C_15
REMARK    5  A    between atoms: N_11  and  C_22
REMARK    6  A    between atoms: C_16  and  C_20
REMARK    7  A    between atoms: C_21  and  C_25
REMARK    8  A    between atoms: C_22  and  C_23
REMARK    9  A    between atoms: C_22  and  C_27
REMARK   10  A    between atoms: C_23  and  C_24
REMARK   11  A    between atoms: C_24  and  C_28
REMARK   12  A    between atoms: C_24  and  C_29
REMARK   13  A    between atoms: C_26  and  C_30
REMARK   14  A    between atoms: C_31  and  C_33
REMARK   15  A    between atoms: C_32  and  C_34
REMARK                            x       y       z     vdW  Elec       q    Type
REMARK                         _______ _______ _______ _____ _____    ______ ____
ROOT
ATOM      3  O   UNL     1      -8.674 -10.227  16.780  0.00  0.00    -0.273 OA
ATOM      9  N   UNL     1      -7.299 -10.890  15.022  0.00  0.00    -0.288 N 
ATOM     15  C   UNL     1      -6.783 -10.932  12.148  0.00  0.00    +0.077 C 
ATOM     16  C   UNL     1      -6.188 -11.710  14.511  0.00  0.00    +0.164 C 
ATOM     17  C   UNL     1      -6.353 -12.099  13.041  0.00  0.00    +0.054 C 
ATOM     18  C   UNL     1      -8.012 -10.242  12.736  0.00  0.00    +0.041 C 
ATOM     19  C   UNL     1      -7.748  -9.786  14.165  0.00  0.00    +0.110 C 
ATOM     21  C   UNL     1      -7.838 -11.003  16.309  0.00  0.00    +0.242 C 
ENDROOT
BRANCH  16  20
ATOM      2  O   UNL     1      -4.863 -10.048  15.599  0.00  0.00    -0.274 OA
ATOM     11  N   UNL     1      -3.902 -11.324  13.907  0.00  0.00    -0.302 N 
ATOM     20  C   UNL     1      -4.927 -10.934  14.752  0.00  0.00    +0.234 C 
ATOM     36  H   UNL     1      -4.024 -12.152  13.331  0.00  0.00    +0.150 HD
BRANCH  11  22
ATOM     22  C   UNL     1      -2.591 -10.716  13.921  0.00  0.00    +0.159 C 
BRANCH  22  27
ATOM      6  O   UNL     1      -1.314 -12.772  14.158  0.00  0.00    -0.274 OA
ATOM     12  N   UNL     1      -1.190 -11.203  15.832  0.00  0.00    -0.328 N 
ATOM     27  C   UNL     1      -1.656 -11.689  14.628  0.00  0.00    +0.231 C 
ATOM     37  H   UNL     1      -1.464 -10.296  16.197  0.00  0.00    +0.145 HD
ATOM     38  H   UNL     1      -0.547 -11.746  16.399  0.00  0.00    +0.145 HD
ENDBRANCH  22  27
BRANCH  22  23
ATOM     23  C   UNL     1      -2.075 -10.414  12.509  0.00  0.00    +0.034 C 
BRANCH  23  24
ATOM     24  C   UNL     1      -3.166 -10.349  11.421  0.00  0.00    -0.015 C 
ATOM     28  C   UNL     1      -2.894  -9.256  10.387  0.00  0.00    +0.007 C 
ATOM     29  C   UNL     1      -3.278 -11.705  10.720  0.00  0.00    +0.007 C 
ENDBRANCH  23  24
ENDBRANCH  22  23
ENDBRANCH  11  22
ENDBRANCH  16  20
BRANCH  15  10
ATOM      5  O   UNL     1      -6.375  -9.433   9.795  0.00  0.00    -0.270 OA
ATOM     10  N   UNL     1      -7.048 -11.384  10.804  0.00  0.00    -0.308 N 
ATOM     26  C   UNL     1      -6.818 -10.579   9.690  0.00  0.00    +0.254 C 
ATOM     35  H   UNL     1      -7.360 -12.341  10.667  0.00  0.00    +0.149 HD
BRANCH  26  30
ATOM      1  S   UNL     1      -8.708 -11.605   7.933  0.00  0.00    +0.041 S 
ATOM     13  N   UNL     1      -6.930 -12.112   6.241  0.00  0.00    -0.146 NA
ATOM     14  N   UNL     1      -8.236 -12.200   6.439  0.00  0.00    -0.110 NA
ATOM     30  C   UNL     1      -7.105 -11.192   8.385  0.00  0.00    +0.117 A 
ATOM     31  C   UNL     1      -6.288 -11.546   7.331  0.00  0.00    +0.081 A 
ATOM     33  C   UNL     1      -4.822 -11.379   7.266  0.00  0.00    +0.069 C 
ENDBRANCH  26  30
ENDBRANCH  15  10
BRANCH  21  25
ATOM     25  C   UNL     1      -7.355 -12.159  17.149  0.00  0.00    +0.256 C 
BRANCH  25   4
ATOM      4  O   UNL     1      -6.331 -11.656  17.972  0.00  0.00    -0.359 OA
BRANCH   4  32
ATOM     32  C   UNL     1      -5.501 -12.694  18.490  0.00  0.00    +0.280 C 
BRANCH  32  34
ATOM      8  O   UNL     1      -3.682 -12.028  19.956  0.00  0.00    -0.248 OA
ATOM     34  C   UNL     1      -4.145 -12.139  18.832  0.00  0.00    +0.331 C 
BRANCH  34   7
ATOM      7  O   UNL     1      -3.491 -11.772  17.701  0.00  0.00    -0.479 OA
ATOM     39  H   UNL     1      -3.685 -10.844  17.450  0.00  0.00    +0.295 HD
ENDBRANCH  34   7
ENDBRANCH  32  34
ENDBRANCH   4  32
ENDBRANCH  25   4
ENDBRANCH  21  25
TORSDOF 12
ENDMDL
MODEL 7
REMARK VINA RESULT:      -5.3     28.107     30.890
REMARK  Name = 7134327
REMARK  15 active torsions:
REMARK  status: ('A' for Active; 'I' for Inactive)
REMARK    1  A    between atoms: O_4  and  C_25
REMARK    2  A    between atoms: O_4  and  C_32
REMARK    3  A    between atoms: O_7  and  C_34
REMARK    4  A    between atoms: N_10  and  C_15
REMARK    5  A    between atoms: N_11  and  C_22
REMARK    6  A    between atoms: C_16  and  C_20
REMARK    7  A    between atoms: C_21  and  C_25
REMARK    8  A    between atoms: C_22  and  C_23
REMARK    9  A    between atoms: C_22  and  C_27
REMARK   10  A    between atoms: C_23  and  C_24
REMARK   11  A    between atoms: C_24  and  C_28
REMARK   12  A    between atoms: C_24  and  C_29
REMARK   13  A    between atoms: C_26  and  C_30
REMARK   14  A    between atoms: C_31  and  C_33
REMARK   15  A    between atoms: C_32  and  C_34
REMARK                            x       y       z     vdW  Elec       q    Type
REMARK                         _______ _______ _______ _____ _____    ______ ____
ROOT
ATOM      3  O   UNL     1     -11.579 -10.429  16.689  0.00  0.00    -0.273 OA
ATOM      9  N   UNL     1      -9.476 -10.749  15.744  0.00  0.00    -0.288 N 
ATOM     15  C   UNL     1      -7.660 -10.284  13.505  0.00  0.00    +0.077 C 
ATOM     16  C   UNL     1      -8.178 -11.444  15.725  0.00  0.00    +0.164 C 
ATOM     17  C   UNL     1      -7.586 -11.578  14.321  0.00  0.00    +0.054 C 
ATOM     18  C   UNL     1      -9.084  -9.733  13.514  0.00  0.00    +0.041 C 
ATOM     19  C   UNL     1      -9.576  -9.525  14.940  0.00  0.00    +0.110 C 
ATOM     21  C   UNL     1     -10.545 -11.094  16.579  0.00  0.00    +0.242 C 
ENDROOT
BRANCH  16  20
ATOM      2  O   UNL     1      -7.507  -9.540  17.002  0.00  0.00    -0.274 OA
ATOM     11  N   UNL     1      -6.162 -11.439  17.021  0.00  0.00    -0.302 N 
ATOM     20  C   UNL     1      -7.268 -10.692  16.653  0.00  0.00    +0.234 C 
ATOM     36  H   UNL     1      -6.127 -12.425  16.777  0.00  0.00    +0.150 HD
BRANCH  11  22
ATOM     22  C   UNL     1      -5.122 -10.937  17.890  0.00  0.00    +0.159 C 
BRANCH  22  27
ATOM      6  O   UNL     1      -3.550 -12.069  19.360  0.00  0.00    -0.274 OA
ATOM     12  N   UNL     1      -5.184 -13.314  18.330  0.00  0.00    -0.328 N 
ATOM     27  C   UNL     1      -4.512 -12.139  18.597  0.00  0.00    +0.231 C 
ATOM     37  H   UNL     1      -5.990 -13.354  17.716  0.00  0.00    +0.145 HD
ATOM     38  H   UNL     1      -4.888 -14.189  18.751  0.00  0.00    +0.145 HD
ENDBRANCH  22  27
BRANCH  22  23
ATOM     23  C   UNL     1      -4.042 -10.168  17.119  0.00  0.00    +0.034 C 
BRANCH  23  24
ATOM     24  C   UNL     1      -3.325 -10.983  16.024  0.00  0.00    -0.015 C 
ATOM     28  C   UNL     1      -3.816 -10.631  14.619  0.00  0.00    +0.007 C 
ATOM     29  C   UNL     1      -1.814 -10.753  16.114  0.00  0.00    +0.007 C 
ENDBRANCH  23  24
ENDBRANCH  22  23
ENDBRANCH  11  22
ENDBRANCH  16  20
BRANCH  15  10
ATOM      5  O   UNL     1      -5.953  -8.583  12.040  0.00  0.00    -0.270 OA
ATOM     10  N   UNL     1      -7.209 -10.504  12.152  0.00  0.00    -0.308 N 
ATOM     26  C   UNL     1      -6.362  -9.612  11.496  0.00  0.00    +0.254 C 
ATOM     35  H   UNL     1      -7.475 -11.367  11.686  0.00  0.00    +0.149 HD
BRANCH  26  30
ATOM      1  S   UNL     1      -7.098 -10.649   9.028  0.00  0.00    +0.041 S 
ATOM     13  N   UNL     1      -4.761 -10.384   8.165  0.00  0.00    -0.146 NA
ATOM     14  N   UNL     1      -5.964 -10.801   7.804  0.00  0.00    -0.110 NA
ATOM     30  C   UNL     1      -5.964  -9.990  10.133  0.00  0.00    +0.117 A 
ATOM     31  C   UNL     1      -4.753  -9.926   9.473  0.00  0.00    +0.081 A 
ATOM     33  C   UNL     1      -3.480  -9.425  10.028  0.00  0.00    +0.069 C 
ENDBRANCH  26  30
ENDBRANCH  15  10
BRANCH  21  25
ATOM     25  C   UNL     1     -10.402 -12.366  17.376  0.00  0.00    +0.256 C 
BRANCH  25   4
ATOM      4  O   UNL     1     -10.830 -12.070  18.683  0.00  0.00    -0.359 OA
BRANCH   4  32
ATOM     32  C   UNL     1      -9.951 -12.608  19.670  0.00  0.00    +0.280 C 
BRANCH  32  34
ATOM      8  O   UNL     1      -7.620 -11.985  19.951  0.00  0.00    -0.248 OA
ATOM     34  C   UNL     1      -8.798 -11.669  19.893  0.00  0.00    +0.331 C 
BRANCH  34   7
ATOM      7  O   UNL     1      -9.250 -10.396  20.023  0.00  0.00    -0.479 OA
ATOM     39  H   UNL     1      -9.645 -10.061  19.189  0.00  0.00    +0.295 HD
ENDBRANCH  34   7
ENDBRANCH  32  34
ENDBRANCH   4  32
ENDBRANCH  25   4
ENDBRANCH  21  25
TORSDOF 12
ENDMDL
MODEL 8
REMARK VINA RESULT:      -5.3     17.034     20.771
REMARK  Name = 7134327
REMARK  15 active torsions:
REMARK  status: ('A' for Active; 'I' for Inactive)
REMARK    1  A    between atoms: O_4  and  C_25
REMARK    2  A    between atoms: O_4  and  C_32
REMARK    3  A    between atoms: O_7  and  C_34
REMARK    4  A    between atoms: N_10  and  C_15
REMARK    5  A    between atoms: N_11  and  C_22
REMARK    6  A    between atoms: C_16  and  C_20
REMARK    7  A    between atoms: C_21  and  C_25
REMARK    8  A    between atoms: C_22  and  C_23
REMARK    9  A    between atoms: C_22  and  C_27
REMARK   10  A    between atoms: C_23  and  C_24
REMARK   11  A    between atoms: C_24  and  C_28
REMARK   12  A    between atoms: C_24  and  C_29
REMARK   13  A    between atoms: C_26  and  C_30
REMARK   14  A    between atoms: C_31  and  C_33
REMARK   15  A    between atoms: C_32  and  C_34
REMARK                            x       y       z     vdW  Elec       q    Type
REMARK                         _______ _______ _______ _____ _____    ______ ____
ROOT
ATOM      3  O   UNL     1      11.842   8.052   7.514  0.00  0.00    -0.273 OA
ATOM      9  N   UNL     1      10.318   7.778   5.775  0.00  0.00    -0.288 N 
ATOM     15  C   UNL     1       8.193   8.920   4.129  0.00  0.00    +0.077 C 
ATOM     16  C   UNL     1       9.599   6.902   4.836  0.00  0.00    +0.164 C 
ATOM     17  C   UNL     1       8.209   7.426   4.466  0.00  0.00    +0.054 C 
ATOM     18  C   UNL     1       8.870   9.720   5.240  0.00  0.00    +0.041 C 
ATOM     19  C   UNL     1      10.285   9.217   5.487  0.00  0.00    +0.110 C 
ATOM     21  C   UNL     1      11.136   7.320   6.815  0.00  0.00    +0.242 C 
ENDROOT
BRANCH  16  20
ATOM      2  O   UNL     1      11.287   7.602   3.297  0.00  0.00    -0.274 OA
ATOM     11  N   UNL     1      10.246   5.546   2.969  0.00  0.00    -0.302 N 
ATOM     20  C   UNL     1      10.480   6.740   3.631  0.00  0.00    +0.234 C 
ATOM     36  H   UNL     1       9.646   4.849   3.401  0.00  0.00    +0.150 HD
BRANCH  11  22
ATOM     22  C   UNL     1      10.947   5.159   1.766  0.00  0.00    +0.159 C 
BRANCH  22  27
ATOM      6  O   UNL     1      11.435   3.022   2.818  0.00  0.00    -0.274 OA
ATOM     12  N   UNL     1      13.065   4.014   1.539  0.00  0.00    -0.328 N 
ATOM     27  C   UNL     1      11.817   3.961   2.122  0.00  0.00    +0.231 C 
ATOM     37  H   UNL     1      13.359   4.785   0.948  0.00  0.00    +0.145 HD
ATOM     38  H   UNL     1      13.740   3.270   1.684  0.00  0.00    +0.145 HD
ENDBRANCH  22  27
BRANCH  22  23
ATOM     23  C   UNL     1       9.988   4.800   0.624  0.00  0.00    +0.034 C 
BRANCH  23  24
ATOM     24  C   UNL     1      10.462   5.230  -0.778  0.00  0.00    -0.015 C 
ATOM     28  C   UNL     1      11.117   4.083  -1.549  0.00  0.00    +0.007 C 
ATOM     29  C   UNL     1       9.278   5.778  -1.579  0.00  0.00    +0.007 C 
ENDBRANCH  23  24
ENDBRANCH  22  23
ENDBRANCH  11  22
ENDBRANCH  16  20
BRANCH  15  10
ATOM      5  O   UNL     1       7.344  10.627   2.051  0.00  0.00    -0.270 OA
ATOM     10  N   UNL     1       6.844   9.384   3.918  0.00  0.00    -0.308 N 
ATOM     26  C   UNL     1       6.505  10.229   2.862  0.00  0.00    +0.254 C 
ATOM     35  H   UNL     1       6.110   9.035   4.528  0.00  0.00    +0.149 HD
BRANCH  26  30
ATOM      1  S   UNL     1       4.349  11.639   3.898  0.00  0.00    +0.041 S 
ATOM     13  N   UNL     1       2.851  10.779   2.083  0.00  0.00    -0.146 NA
ATOM     14  N   UNL     1       2.850  11.556   3.155  0.00  0.00    -0.110 NA
ATOM     30  C   UNL     1       5.083  10.588   2.759  0.00  0.00    +0.117 A 
ATOM     31  C   UNL     1       4.104  10.231   1.855  0.00  0.00    +0.081 A 
ATOM     33  C   UNL     1       4.270   9.336   0.693  0.00  0.00    +0.069 C 
ENDBRANCH  26  30
ENDBRANCH  15  10
BRANCH  21  25
ATOM     25  C   UNL     1      11.128   5.835   7.081  0.00  0.00    +0.256 C 
BRANCH  25   4
ATOM      4  O   UNL     1      10.823   5.675   8.445  0.00  0.00    -0.359 OA
BRANCH   4  32
ATOM     32  C   UNL     1       9.491   5.204   8.645  0.00  0.00    +0.280 C 
BRANCH  32  34
ATOM      8  O   UNL     1       8.235   4.538  10.616  0.00  0.00    -0.248 OA
ATOM     34  C   UNL     1       9.301   4.812  10.085  0.00  0.00    +0.331 C 
BRANCH  34   7
ATOM      7  O   UNL     1      10.495   4.800  10.729  0.00  0.00    -0.479 OA
ATOM     39  H   UNL     1      11.234   5.049  10.133  0.00  0.00    +0.295 HD
ENDBRANCH  34   7
ENDBRANCH  32  34
ENDBRANCH   4  32
ENDBRANCH  25   4
ENDBRANCH  21  25
TORSDOF 12
ENDMDL
MODEL 9
REMARK VINA RESULT:      -5.2     29.004     31.240
REMARK  Name = 7134327
REMARK  15 active torsions:
REMARK  status: ('A' for Active; 'I' for Inactive)
REMARK    1  A    between atoms: O_4  and  C_25
REMARK    2  A    between atoms: O_4  and  C_32
REMARK    3  A    between atoms: O_7  and  C_34
REMARK    4  A    between atoms: N_10  and  C_15
REMARK    5  A    between atoms: N_11  and  C_22
REMARK    6  A    between atoms: C_16  and  C_20
REMARK    7  A    between atoms: C_21  and  C_25
REMARK    8  A    between atoms: C_22  and  C_23
REMARK    9  A    between atoms: C_22  and  C_27
REMARK   10  A    between atoms: C_23  and  C_24
REMARK   11  A    between atoms: C_24  and  C_28
REMARK   12  A    between atoms: C_24  and  C_29
REMARK   13  A    between atoms: C_26  and  C_30
REMARK   14  A    between atoms: C_31  and  C_33
REMARK   15  A    between atoms: C_32  and  C_34
REMARK                            x       y       z     vdW  Elec       q    Type
REMARK                         _______ _______ _______ _____ _____    ______ ____
ROOT
ATOM      3  O   UNL     1      -4.289 -12.621  15.066  0.00  0.00    -0.273 OA
ATOM      9  N   UNL     1      -5.677 -11.138  13.927  0.00  0.00    -0.288 N 
ATOM     15  C   UNL     1      -6.977 -10.372  11.427  0.00  0.00    +0.077 C 
ATOM     16  C   UNL     1      -6.385  -9.850  13.861  0.00  0.00    +0.164 C 
ATOM     17  C   UNL     1      -6.526  -9.311  12.435  0.00  0.00    +0.054 C 
ATOM     18  C   UNL     1      -6.087 -11.609  11.526  0.00  0.00    +0.041 C 
ATOM     19  C   UNL     1      -6.073 -12.157  12.946  0.00  0.00    +0.110 C 
ATOM     21  C   UNL     1      -4.777 -11.495  14.939  0.00  0.00    +0.242 C 
ENDROOT
BRANCH  16  20
ATOM      2  O   UNL     1      -8.613 -10.702  13.991  0.00  0.00    -0.274 OA
ATOM     11  N   UNL     1      -7.797  -9.409  15.746  0.00  0.00    -0.302 N 
ATOM     20  C   UNL     1      -7.718 -10.051  14.522  0.00  0.00    +0.234 C 
ATOM     36  H   UNL     1      -6.956  -9.004  16.148  0.00  0.00    +0.150 HD
BRANCH  11  22
ATOM     22  C   UNL     1      -8.982  -9.428  16.573  0.00  0.00    +0.159 C 
BRANCH  22  27
ATOM      6  O   UNL     1      -9.222 -11.165  18.259  0.00  0.00    -0.274 OA
ATOM     12  N   UNL     1      -7.513  -9.645  18.483  0.00  0.00    -0.328 N 
ATOM     27  C   UNL     1      -8.621 -10.172  17.852  0.00  0.00    +0.231 C 
ATOM     37  H   UNL     1      -7.014  -8.838  18.123  0.00  0.00    +0.145 HD
ATOM     38  H   UNL     1      -7.157 -10.056  19.340  0.00  0.00    +0.145 HD
ENDBRANCH  22  27
BRANCH  22  23
ATOM     23  C   UNL     1      -9.484  -8.017  16.903  0.00  0.00    +0.034 C 
BRANCH  23  24
ATOM     24  C   UNL     1     -10.273  -7.330  15.771  0.00  0.00    -0.015 C 
ATOM     28  C   UNL     1     -11.159  -8.310  15.000  0.00  0.00    +0.007 C 
ATOM     29  C   UNL     1     -11.134  -6.204  16.350  0.00  0.00    +0.007 C 
ENDBRANCH  23  24
ENDBRANCH  22  23
ENDBRANCH  11  22
ENDBRANCH  16  20
BRANCH  15  10
ATOM      5  O   UNL     1      -9.153  -9.139  10.124  0.00  0.00    -0.270 OA
ATOM     10  N   UNL     1      -6.966  -9.843  10.085  0.00  0.00    -0.308 N 
ATOM     26  C   UNL     1      -8.088  -9.246   9.512  0.00  0.00    +0.254 C 
ATOM     35  H   UNL     1      -6.093  -9.859   9.565  0.00  0.00    +0.149 HD
BRANCH  26  30
ATOM      1  S   UNL     1      -7.195  -9.683   6.919  0.00  0.00    +0.041 S 
ATOM     13  N   UNL     1      -7.901  -7.378   6.235  0.00  0.00    -0.146 NA
ATOM     14  N   UNL     1      -7.340  -8.480   5.762  0.00  0.00    -0.110 NA
ATOM     30  C   UNL     1      -7.910  -8.725   8.149  0.00  0.00    +0.117 A 
ATOM     31  C   UNL     1      -8.225  -7.509   7.577  0.00  0.00    +0.081 A 
ATOM     33  C   UNL     1      -8.860  -6.361   8.255  0.00  0.00    +0.069 C 
ENDBRANCH  26  30
ENDBRANCH  15  10
BRANCH  21  25
ATOM     25  C   UNL     1      -4.391 -10.413  15.916  0.00  0.00    +0.256 C 
BRANCH  25   4
ATOM      4  O   UNL     1      -5.172 -10.616  17.068  0.00  0.00    -0.359 OA
BRANCH   4  32
ATOM     32  C   UNL     1      -4.459 -11.323  18.081  0.00  0.00    +0.280 C 
BRANCH  32  34
ATOM      8  O   UNL     1      -6.301 -12.564  19.067  0.00  0.00    -0.248 OA
ATOM     34  C   UNL     1      -5.229 -12.552  18.483  0.00  0.00    +0.331 C 
BRANCH  34   7
ATOM      7  O   UNL     1      -4.561 -13.669  18.100  0.00  0.00    -0.479 OA
ATOM     39  H   UNL     1      -3.696 -13.752  18.556  0.00  0.00    +0.295 HD
ENDBRANCH  34   7
ENDBRANCH  32  34
ENDBRANCH   4  32
ENDBRANCH  25   4
ENDBRANCH  21  25
TORSDOF 12
ENDMDL
MODEL 10
REMARK VINA RESULT:      -5.1      4.532      5.555
REMARK  Name = 7134327
REMARK  15 active torsions:
REMARK  status: ('A' for Active; 'I' for Inactive)
REMARK    1  A    between atoms: O_4  and  C_25
REMARK    2  A    between atoms: O_4  and  C_32
REMARK    3  A    between atoms: O_7  and  C_34
REMARK    4  A    between atoms: N_10  and  C_15
REMARK    5  A    between atoms: N_11  and  C_22
REMARK    6  A    between atoms: C_16  and  C_20
REMARK    7  A    between atoms: C_21  and  C_25
REMARK    8  A    between atoms: C_22  and  C_23
REMARK    9  A    between atoms: C_22  and  C_27
REMARK   10  A    between atoms: C_23  and  C_24
REMARK   11  A    between atoms: C_24  and  C_28
REMARK   12  A    between atoms: C_24  and  C_29
REMARK   13  A    between atoms: C_26  and  C_30
REMARK   14  A    between atoms: C_31  and  C_33
REMARK   15  A    between atoms: C_32  and  C_34
REMARK                            x       y       z     vdW  Elec       q    Type
REMARK                         _______ _______ _______ _____ _____    ______ ____
ROOT
ATOM      3  O   UNL     1      11.684   7.362  17.454  0.00  0.00    -0.273 OA
ATOM      9  N   UNL     1      13.124   8.980  18.308  0.00  0.00    -0.288 N 
ATOM     15  C   UNL     1      14.828  11.300  17.816  0.00  0.00    +0.077 C 
ATOM     16  C   UNL     1      13.967   9.487  19.403  0.00  0.00    +0.164 C 
ATOM     17  C   UNL     1      15.175  10.289  18.912  0.00  0.00    +0.054 C 
ATOM     18  C   UNL     1      14.054  10.617  16.691  0.00  0.00    +0.041 C 
ATOM     19  C   UNL     1      12.808   9.926  17.230  0.00  0.00    +0.110 C 
ATOM     21  C   UNL     1      12.496   7.729  18.308  0.00  0.00    +0.242 C 
ENDROOT
BRANCH  16  20
ATOM      2  O   UNL     1      11.865  10.368  20.117  0.00  0.00    -0.274 OA
ATOM     11  N   UNL     1      13.788  10.948  21.294  0.00  0.00    -0.302 N 
ATOM     20  C   UNL     1      13.077  10.299  20.298  0.00  0.00    +0.234 C 
ATOM     36  H   UNL     1      14.769  10.722  21.429  0.00  0.00    +0.150 HD
BRANCH  11  22
ATOM     22  C   UNL     1      13.167  11.811  22.273  0.00  0.00    +0.159 C 
BRANCH  22  27
ATOM      6  O   UNL     1      13.350  11.910  24.696  0.00  0.00    -0.274 OA
ATOM     12  N   UNL     1      14.603  10.353  23.563  0.00  0.00    -0.328 N 
ATOM     27  C   UNL     1      13.706  11.399  23.637  0.00  0.00    +0.231 C 
ATOM     37  H   UNL     1      14.871   9.926  22.683  0.00  0.00    +0.145 HD
ATOM     38  H   UNL     1      15.027   9.971  24.402  0.00  0.00    +0.145 HD
ENDBRANCH  22  27
BRANCH  22  23
ATOM     23  C   UNL     1      13.462  13.293  22.011  0.00  0.00    +0.034 C 
BRANCH  23  24
ATOM     24  C   UNL     1      12.220  14.205  21.984  0.00  0.00    -0.015 C 
ATOM     28  C   UNL     1      10.930  13.425  21.727  0.00  0.00    +0.007 C 
ATOM     29  C   UNL     1      12.107  14.964  23.309  0.00  0.00    +0.007 C 
ENDBRANCH  23  24
ENDBRANCH  22  23
ENDBRANCH  11  22
ENDBRANCH  16  20
BRANCH  15  10
ATOM      5  O   UNL     1      15.932  13.729  18.729  0.00  0.00    -0.270 OA
ATOM     10  N   UNL     1      16.020  11.930  17.303  0.00  0.00    -0.308 N 
ATOM     26  C   UNL     1      16.502  13.135  17.811  0.00  0.00    +0.254 C 
ATOM     35  H   UNL     1      16.553  11.447  16.585  0.00  0.00    +0.149 HD
BRANCH  26  30
ATOM      1  S   UNL     1      17.714  14.703  15.866  0.00  0.00    +0.041 S 
ATOM     13  N   UNL     1      19.989  14.068  16.703  0.00  0.00    -0.146 NA
ATOM     14  N   UNL     1      19.385  14.797  15.778  0.00  0.00    -0.110 NA
ATOM     30  C   UNL     1      17.746  13.634  17.207  0.00  0.00    +0.117 A 
ATOM     31  C   UNL     1      19.074  13.412  17.511  0.00  0.00    +0.081 A 
ATOM     33  C   UNL     1      19.592  12.554  18.595  0.00  0.00    +0.069 C 
ENDBRANCH  26  30
ENDBRANCH  15  10
BRANCH  21  25
ATOM     25  C   UNL     1      12.860   6.787  19.427  0.00  0.00    +0.256 C 
BRANCH  25   4
ATOM      4  O   UNL     1      11.651   6.392  20.028  0.00  0.00    -0.359 OA
BRANCH   4  32
ATOM     32  C   UNL     1      11.762   6.300  21.447  0.00  0.00    +0.280 C 
BRANCH  32  34
ATOM      8  O   UNL     1      10.182   7.965  22.243  0.00  0.00    -0.248 OA
ATOM     34  C   UNL     1      11.334   7.597  22.076  0.00  0.00    +0.331 C 
BRANCH  34   7
ATOM      7  O   UNL     1      12.422   8.320  22.444  0.00  0.00    -0.479 OA
ATOM     39  H   UNL     1      12.644   9.010  21.782  0.00  0.00    +0.295 HD
ENDBRANCH  34   7
ENDBRANCH  32  34
ENDBRANCH   4  32
ENDBRANCH  25   4
ENDBRANCH  21  25
TORSDOF 12
ENDMDL
