MODEL 1
REMARK VINA RESULT:      -6.8      0.000      0.000
REMARK  Name = 75536943
REMARK  4 active torsions:
REMARK  status: ('A' for Active; 'I' for Inactive)
REMARK    1  A    between atoms: O_2  and  C_8
REMARK    2  A    between atoms: O_2  and  C_15
REMARK    3  A    between atoms: C_13  and  C_14
REMARK    4  A    between atoms: C_19  and  C_22
REMARK                            x       y       z     vdW  Elec       q    Type
REMARK                         _______ _______ _______ _____ _____    ______ ____
ROOT
ATOM      1  O   UNL     1      13.375   7.457  21.962  0.00  0.00    -0.375 OA
ATOM      3  O   UNL     1      11.596   7.706  17.480  0.00  0.00    -0.270 OA
ATOM      4  N   UNL     1      13.503   7.527  18.831  0.00  0.00    -0.292 N 
ATOM      8  C   UNL     1      15.350   7.805  20.571  0.00  0.00    +0.218 C 
ATOM      9  C   UNL     1      14.875   7.958  19.124  0.00  0.00    +0.155 C 
ATOM     10  C   UNL     1      12.867   6.571  19.737  0.00  0.00    +0.136 C 
ATOM     11  C   UNL     1      14.379   8.398  21.589  0.00  0.00    +0.206 C 
ATOM     12  C   UNL     1      12.351   7.264  20.992  0.00  0.00    +0.179 C 
ATOM     13  C   UNL     1      12.758   8.016  17.745  0.00  0.00    +0.250 C 
ENDROOT
BRANCH  13  14
ATOM      6  N   UNL     1      13.943  11.246  16.245  0.00  0.00    -0.243 NA
ATOM      7  N   UNL     1      14.668   9.429  14.839  0.00  0.00    -0.243 NA
ATOM     14  C   UNL     1      13.398   8.976  16.834  0.00  0.00    +0.073 A 
ATOM     17  C   UNL     1      13.366  10.337  17.060  0.00  0.00    +0.127 A 
ATOM     18  C   UNL     1      14.070   8.576  15.696  0.00  0.00    +0.127 A 
ATOM     23  C   UNL     1      14.567  10.730  15.169  0.00  0.00    +0.221 A 
ENDBRANCH  13  14
BRANCH   8   2
ATOM      2  O   UNL     1      16.600   8.488  20.669  0.00  0.00    -0.469 OA
BRANCH   2  15
ATOM      5  N   UNL     1      18.487   8.116  21.964  0.00  0.00    -0.218 NA
ATOM     15  C   UNL     1      17.698   7.718  20.941  0.00  0.00    +0.215 A 
ATOM     16  C   UNL     1      17.938   6.593  20.168  0.00  0.00    +0.067 A 
ATOM     19  C   UNL     1      19.569   7.346  22.222  0.00  0.00    +0.042 A 
ATOM     20  C   UNL     1      19.060   5.828  20.464  0.00  0.00    +0.007 A 
ATOM     21  C   UNL     1      19.896   6.204  21.508  0.00  0.00    +0.023 A 
ATOM     22  C   UNL     1      20.446   7.783  23.348  0.00  0.00    +0.066 C 
ENDBRANCH   2  15
ENDBRANCH   8   2
TORSDOF 3
ENDMDL
MODEL 2
REMARK VINA RESULT:      -6.1      3.793      6.047
REMARK  Name = 75536943
REMARK  4 active torsions:
REMARK  status: ('A' for Active; 'I' for Inactive)
REMARK    1  A    between atoms: O_2  and  C_8
REMARK    2  A    between atoms: O_2  and  C_15
REMARK    3  A    between atoms: C_13  and  C_14
REMARK    4  A    between atoms: C_19  and  C_22
REMARK                            x       y       z     vdW  Elec       q    Type
REMARK                         _______ _______ _______ _____ _____    ______ ____
ROOT
ATOM      1  O   UNL     1      11.402   7.489  21.426  0.00  0.00    -0.375 OA
ATOM      3  O   UNL     1      14.597   7.234  17.816  0.00  0.00    -0.270 OA
ATOM      4  N   UNL     1      13.621   8.556  19.487  0.00  0.00    -0.292 N 
ATOM      8  C   UNL     1      12.053   9.812  21.061  0.00  0.00    +0.218 C 
ATOM      9  C   UNL     1      13.029   9.839  19.882  0.00  0.00    +0.155 C 
ATOM     10  C   UNL     1      13.657   7.475  20.472  0.00  0.00    +0.136 C 
ATOM     11  C   UNL     1      10.967   8.747  20.920  0.00  0.00    +0.206 C 
ATOM     12  C   UNL     1      12.303   6.785  20.578  0.00  0.00    +0.179 C 
ATOM     13  C   UNL     1      14.122   8.302  18.199  0.00  0.00    +0.250 C 
ENDROOT
BRANCH  13  14
ATOM      6  N   UNL     1      14.834  11.553  16.461  0.00  0.00    -0.243 NA
ATOM      7  N   UNL     1      13.239  10.309  15.152  0.00  0.00    -0.243 NA
ATOM     14  C   UNL     1      14.087   9.390  17.210  0.00  0.00    +0.073 A 
ATOM     17  C   UNL     1      14.842  10.536  17.350  0.00  0.00    +0.127 A 
ATOM     18  C   UNL     1      13.296   9.331  16.079  0.00  0.00    +0.127 A 
ATOM     23  C   UNL     1      14.022  11.375  15.402  0.00  0.00    +0.221 A 
ENDBRANCH  13  14
BRANCH   8   2
ATOM      2  O   UNL     1      11.437  11.100  21.116  0.00  0.00    -0.469 OA
BRANCH   2  15
ATOM      5  N   UNL     1      10.681  12.856  22.426  0.00  0.00    -0.218 NA
ATOM     15  C   UNL     1      11.182  11.603  22.362  0.00  0.00    +0.215 A 
ATOM     16  C   UNL     1      11.448  10.817  23.471  0.00  0.00    +0.067 A 
ATOM     19  C   UNL     1      10.434  13.342  23.663  0.00  0.00    +0.042 A 
ATOM     20  C   UNL     1      11.182  11.351  24.727  0.00  0.00    +0.007 A 
ATOM     21  C   UNL     1      10.665  12.637  24.834  0.00  0.00    +0.023 A 
ATOM     22  C   UNL     1       9.883  14.728  23.740  0.00  0.00    +0.066 C 
ENDBRANCH   2  15
ENDBRANCH   8   2
TORSDOF 3
ENDMDL
MODEL 3
REMARK VINA RESULT:      -6.0      2.963      4.642
REMARK  Name = 75536943
REMARK  4 active torsions:
REMARK  status: ('A' for Active; 'I' for Inactive)
REMARK    1  A    between atoms: O_2  and  C_8
REMARK    2  A    between atoms: O_2  and  C_15
REMARK    3  A    between atoms: C_13  and  C_14
REMARK    4  A    between atoms: C_19  and  C_22
REMARK                            x       y       z     vdW  Elec       q    Type
REMARK                         _______ _______ _______ _____ _____    ______ ____
ROOT
ATOM      1  O   UNL     1      11.703   6.251  20.557  0.00  0.00    -0.375 OA
ATOM      3  O   UNL     1      11.012  10.131  23.345  0.00  0.00    -0.270 OA
ATOM      4  N   UNL     1      11.771   9.297  21.291  0.00  0.00    -0.292 N 
ATOM      8  C   UNL     1      12.912   8.023  19.396  0.00  0.00    +0.218 C 
ATOM      9  C   UNL     1      12.801   9.292  20.245  0.00  0.00    +0.155 C 
ATOM     10  C   UNL     1      10.644   8.374  21.161  0.00  0.00    +0.136 C 
ATOM     11  C   UNL     1      12.997   6.747  20.230  0.00  0.00    +0.206 C 
ATOM     12  C   UNL     1      11.035   6.966  21.591  0.00  0.00    +0.179 C 
ATOM     13  C   UNL     1      11.835  10.117  22.430  0.00  0.00    +0.250 C 
ENDROOT
BRANCH  13  14
ATOM      6  N   UNL     1      13.898  13.250  22.294  0.00  0.00    -0.243 NA
ATOM      7  N   UNL     1      15.250  11.471  23.196  0.00  0.00    -0.243 NA
ATOM     14  C   UNL     1      12.968  11.045  22.560  0.00  0.00    +0.073 A 
ATOM     17  C   UNL     1      12.878  12.371  22.187  0.00  0.00    +0.127 A 
ATOM     18  C   UNL     1      14.190  10.648  23.063  0.00  0.00    +0.127 A 
ATOM     23  C   UNL     1      15.038  12.740  22.798  0.00  0.00    +0.221 A 
ENDBRANCH  13  14
BRANCH   8   2
ATOM      2  O   UNL     1      14.104   8.151  18.619  0.00  0.00    -0.469 OA
BRANCH   2  15
ATOM      5  N   UNL     1      15.833   8.662  20.077  0.00  0.00    -0.218 NA
ATOM     15  C   UNL     1      15.272   7.775  19.225  0.00  0.00    +0.215 A 
ATOM     16  C   UNL     1      15.808   6.530  18.937  0.00  0.00    +0.067 A 
ATOM     19  C   UNL     1      16.987   8.279  20.669  0.00  0.00    +0.042 A 
ATOM     20  C   UNL     1      16.996   6.173  19.565  0.00  0.00    +0.007 A 
ATOM     21  C   UNL     1      17.603   7.057  20.448  0.00  0.00    +0.023 A 
ATOM     22  C   UNL     1      17.612   9.256  21.608  0.00  0.00    +0.066 C 
ENDBRANCH   2  15
ENDBRANCH   8   2
TORSDOF 3
ENDMDL
MODEL 4
REMARK VINA RESULT:      -6.0      3.433      6.459
REMARK  Name = 75536943
REMARK  4 active torsions:
REMARK  status: ('A' for Active; 'I' for Inactive)
REMARK    1  A    between atoms: O_2  and  C_8
REMARK    2  A    between atoms: O_2  and  C_15
REMARK    3  A    between atoms: C_13  and  C_14
REMARK    4  A    between atoms: C_19  and  C_22
REMARK                            x       y       z     vdW  Elec       q    Type
REMARK                         _______ _______ _______ _____ _____    ______ ____
ROOT
ATOM      1  O   UNL     1      10.484   7.100  21.739  0.00  0.00    -0.375 OA
ATOM      3  O   UNL     1      12.387  11.106  23.646  0.00  0.00    -0.270 OA
ATOM      4  N   UNL     1      11.957   9.867  21.704  0.00  0.00    -0.292 N 
ATOM      8  C   UNL     1      11.745   8.079  19.894  0.00  0.00    +0.218 C 
ATOM      9  C   UNL     1      12.442   9.335  20.425  0.00  0.00    +0.155 C 
ATOM     10  C   UNL     1      10.605   9.513  22.136  0.00  0.00    +0.136 C 
ATOM     11  C   UNL     1      11.648   6.961  20.930  0.00  0.00    +0.206 C 
ATOM     12  C   UNL     1      10.569   8.113  22.735  0.00  0.00    +0.179 C 
ATOM     13  C   UNL     1      12.741  10.666  22.552  0.00  0.00    +0.250 C 
ENDROOT
BRANCH  13  14
ATOM      6  N   UNL     1      15.599  12.521  20.977  0.00  0.00    -0.243 NA
ATOM      7  N   UNL     1      16.455  10.528  22.027  0.00  0.00    -0.243 NA
ATOM     14  C   UNL     1      14.100  11.022  22.118  0.00  0.00    +0.073 A 
ATOM     17  C   UNL     1      14.365  12.165  21.392  0.00  0.00    +0.127 A 
ATOM     18  C   UNL     1      15.196  10.233  22.410  0.00  0.00    +0.127 A 
ATOM     23  C   UNL     1      16.583  11.670  21.325  0.00  0.00    +0.221 A 
ENDBRANCH  13  14
BRANCH   8   2
ATOM      2  O   UNL     1      12.518   7.618  18.784  0.00  0.00    -0.469 OA
BRANCH   2  15
ATOM      5  N   UNL     1      13.502   8.853  17.087  0.00  0.00    -0.218 NA
ATOM     15  C   UNL     1      12.380   8.313  17.614  0.00  0.00    +0.215 A 
ATOM     16  C   UNL     1      11.123   8.425  17.042  0.00  0.00    +0.067 A 
ATOM     19  C   UNL     1      13.352   9.537  15.930  0.00  0.00    +0.042 A 
ATOM     20  C   UNL     1      11.010   9.137  15.854  0.00  0.00    +0.007 A 
ATOM     21  C   UNL     1      12.140   9.707  15.280  0.00  0.00    +0.023 A 
ATOM     22  C   UNL     1      14.587  10.139  15.346  0.00  0.00    +0.066 C 
ENDBRANCH   2  15
ENDBRANCH   8   2
TORSDOF 3
ENDMDL
MODEL 5
REMARK VINA RESULT:      -5.9     26.284     29.011
REMARK  Name = 75536943
REMARK  4 active torsions:
REMARK  status: ('A' for Active; 'I' for Inactive)
REMARK    1  A    between atoms: O_2  and  C_8
REMARK    2  A    between atoms: O_2  and  C_15
REMARK    3  A    between atoms: C_13  and  C_14
REMARK    4  A    between atoms: C_19  and  C_22
REMARK                            x       y       z     vdW  Elec       q    Type
REMARK                         _______ _______ _______ _____ _____    ______ ____
ROOT
ATOM      1  O   UNL     1      -1.791  -9.945  13.394  0.00  0.00    -0.375 OA
ATOM      3  O   UNL     1      -2.785 -14.376  11.756  0.00  0.00    -0.270 OA
ATOM      4  N   UNL     1      -3.141 -12.773  13.428  0.00  0.00    -0.292 N 
ATOM      8  C   UNL     1      -2.938 -11.012  15.264  0.00  0.00    +0.218 C 
ATOM      9  C   UNL     1      -3.243 -12.456  14.857  0.00  0.00    +0.155 C 
ATOM     10  C   UNL     1      -3.248 -11.678  12.464  0.00  0.00    +0.136 C 
ATOM     11  C   UNL     1      -1.619 -10.492  14.698  0.00  0.00    +0.206 C 
ATOM     12  C   UNL     1      -1.937 -10.910  12.358  0.00  0.00    +0.179 C 
ATOM     13  C   UNL     1      -2.908 -14.070  12.941  0.00  0.00    +0.250 C 
ENDROOT
BRANCH  13  14
ATOM      6  N   UNL     1      -3.849 -16.766  15.378  0.00  0.00    -0.243 NA
ATOM      7  N   UNL     1      -1.448 -16.696  15.191  0.00  0.00    -0.243 NA
ATOM     14  C   UNL     1      -2.801 -15.171  13.911  0.00  0.00    +0.073 A 
ATOM     17  C   UNL     1      -3.911 -15.754  14.486  0.00  0.00    +0.127 A 
ATOM     18  C   UNL     1      -1.583 -15.688  14.305  0.00  0.00    +0.127 A 
ATOM     23  C   UNL     1      -2.604 -17.181  15.681  0.00  0.00    +0.221 A 
ENDBRANCH  13  14
BRANCH   8   2
ATOM      2  O   UNL     1      -2.871 -10.991  16.691  0.00  0.00    -0.469 OA
BRANCH   2  15
ATOM      5  N   UNL     1      -5.055 -10.224  16.819  0.00  0.00    -0.218 NA
ATOM     15  C   UNL     1      -4.065 -10.971  17.358  0.00  0.00    +0.215 A 
ATOM     16  C   UNL     1      -4.194 -11.701  18.529  0.00  0.00    +0.067 A 
ATOM     19  C   UNL     1      -6.230 -10.211  17.488  0.00  0.00    +0.042 A 
ATOM     20  C   UNL     1      -5.417 -11.662  19.188  0.00  0.00    +0.007 A 
ATOM     21  C   UNL     1      -6.460 -10.906  18.665  0.00  0.00    +0.023 A 
ATOM     22  C   UNL     1      -7.326  -9.386  16.899  0.00  0.00    +0.066 C 
ENDBRANCH   2  15
ENDBRANCH   8   2
TORSDOF 3
ENDMDL
MODEL 6
REMARK VINA RESULT:      -5.8     26.569     29.743
REMARK  Name = 75536943
REMARK  4 active torsions:
REMARK  status: ('A' for Active; 'I' for Inactive)
REMARK    1  A    between atoms: O_2  and  C_8
REMARK    2  A    between atoms: O_2  and  C_15
REMARK    3  A    between atoms: C_13  and  C_14
REMARK    4  A    between atoms: C_19  and  C_22
REMARK                            x       y       z     vdW  Elec       q    Type
REMARK                         _______ _______ _______ _____ _____    ______ ____
ROOT
ATOM      1  O   UNL     1      -8.426 -11.310  19.121  0.00  0.00    -0.375 OA
ATOM      3  O   UNL     1      -3.632 -11.853  18.951  0.00  0.00    -0.270 OA
ATOM      4  N   UNL     1      -5.507 -10.691  18.162  0.00  0.00    -0.292 N 
ATOM      8  C   UNL     1      -7.757  -9.968  17.197  0.00  0.00    +0.218 C 
ATOM      9  C   UNL     1      -6.244 -10.128  17.024  0.00  0.00    +0.155 C 
ATOM     10  C   UNL     1      -6.111 -10.605  19.491  0.00  0.00    +0.136 C 
ATOM     11  C   UNL     1      -8.444 -11.236  17.699  0.00  0.00    +0.206 C 
ATOM     12  C   UNL     1      -7.171 -11.682  19.682  0.00  0.00    +0.179 C 
ATOM     13  C   UNL     1      -4.269 -11.340  18.031  0.00  0.00    +0.250 C 
ENDROOT
BRANCH  13  14
ATOM      6  N   UNL     1      -2.047 -10.651  15.085  0.00  0.00    -0.243 NA
ATOM      7  N   UNL     1      -3.557 -12.440  14.514  0.00  0.00    -0.243 NA
ATOM     14  C   UNL     1      -3.662 -11.425  16.694  0.00  0.00    +0.073 A 
ATOM     17  C   UNL     1      -2.627 -10.600  16.303  0.00  0.00    +0.127 A 
ATOM     18  C   UNL     1      -4.090 -12.335  15.748  0.00  0.00    +0.127 A 
ATOM     23  C   UNL     1      -2.554 -11.581  14.252  0.00  0.00    +0.221 A 
ENDBRANCH  13  14
BRANCH   8   2
ATOM      2  O   UNL     1      -8.285  -9.631  15.913  0.00  0.00    -0.469 OA
BRANCH   2  15
ATOM      5  N   UNL     1     -10.155  -8.851  14.787  0.00  0.00    -0.218 NA
ATOM     15  C   UNL     1      -9.387  -8.820  15.898  0.00  0.00    +0.215 A 
ATOM     16  C   UNL     1      -9.651  -8.026  17.002  0.00  0.00    +0.067 A 
ATOM     19  C   UNL     1     -11.241  -8.045  14.785  0.00  0.00    +0.042 A 
ATOM     20  C   UNL     1     -10.776  -7.210  16.963  0.00  0.00    +0.007 A 
ATOM     21  C   UNL     1     -11.592  -7.214  15.837  0.00  0.00    +0.023 A 
ATOM     22  C   UNL     1     -12.091  -8.072  13.558  0.00  0.00    +0.066 C 
ENDBRANCH   2  15
ENDBRANCH   8   2
TORSDOF 3
ENDMDL
MODEL 7
REMARK VINA RESULT:      -5.7     12.908     15.769
REMARK  Name = 75536943
REMARK  4 active torsions:
REMARK  status: ('A' for Active; 'I' for Inactive)
REMARK    1  A    between atoms: O_2  and  C_8
REMARK    2  A    between atoms: O_2  and  C_15
REMARK    3  A    between atoms: C_13  and  C_14
REMARK    4  A    between atoms: C_19  and  C_22
REMARK                            x       y       z     vdW  Elec       q    Type
REMARK                         _______ _______ _______ _____ _____    ______ ____
ROOT
ATOM      1  O   UNL     1      15.045   9.189   5.891  0.00  0.00    -0.375 OA
ATOM      3  O   UNL     1      14.425   7.843   1.297  0.00  0.00    -0.270 OA
ATOM      4  N   UNL     1      13.607   7.775   3.492  0.00  0.00    -0.292 N 
ATOM      8  C   UNL     1      13.266   7.524   6.009  0.00  0.00    +0.218 C 
ATOM      9  C   UNL     1      13.038   6.989   4.593  0.00  0.00    +0.155 C 
ATOM     10  C   UNL     1      13.900   9.189   3.727  0.00  0.00    +0.136 C 
ATOM     11  C   UNL     1      14.727   7.862   6.298  0.00  0.00    +0.206 C 
ATOM     12  C   UNL     1      15.209   9.359   4.487  0.00  0.00    +0.179 C 
ATOM     13  C   UNL     1      13.919   7.229   2.236  0.00  0.00    +0.250 C 
ENDROOT
BRANCH  13  14
ATOM      6  N   UNL     1      14.384   3.550   1.658  0.00  0.00    -0.243 NA
ATOM      7  N   UNL     1      12.025   4.039   1.669  0.00  0.00    -0.243 NA
ATOM     14  C   UNL     1      13.624   5.808   1.999  0.00  0.00    +0.073 A 
ATOM     17  C   UNL     1      14.620   4.861   1.875  0.00  0.00    +0.127 A 
ATOM     18  C   UNL     1      12.332   5.334   1.887  0.00  0.00    +0.127 A 
ATOM     23  C   UNL     1      13.083   3.213   1.567  0.00  0.00    +0.221 A 
ENDBRANCH  13  14
BRANCH   8   2
ATOM      2  O   UNL     1      12.839   6.500   6.910  0.00  0.00    -0.469 OA
BRANCH   2  15
ATOM      5  N   UNL     1      11.093   5.559   8.108  0.00  0.00    -0.218 NA
ATOM     15  C   UNL     1      11.563   6.603   7.390  0.00  0.00    +0.215 A 
ATOM     16  C   UNL     1      10.833   7.749   7.120  0.00  0.00    +0.067 A 
ATOM     19  C   UNL     1       9.830   5.673   8.578  0.00  0.00    +0.042 A 
ATOM     20  C   UNL     1       9.538   7.829   7.619  0.00  0.00    +0.007 A 
ATOM     21  C   UNL     1       9.019   6.776   8.363  0.00  0.00    +0.023 A 
ATOM     22  C   UNL     1       9.304   4.521   9.369  0.00  0.00    +0.066 C 
ENDBRANCH   2  15
ENDBRANCH   8   2
TORSDOF 3
ENDMDL
MODEL 8
REMARK VINA RESULT:      -5.7      4.038      5.902
REMARK  Name = 75536943
REMARK  4 active torsions:
REMARK  status: ('A' for Active; 'I' for Inactive)
REMARK    1  A    between atoms: O_2  and  C_8
REMARK    2  A    between atoms: O_2  and  C_15
REMARK    3  A    between atoms: C_13  and  C_14
REMARK    4  A    between atoms: C_19  and  C_22
REMARK                            x       y       z     vdW  Elec       q    Type
REMARK                         _______ _______ _______ _____ _____    ______ ____
ROOT
ATOM      1  O   UNL     1      12.007   7.582  21.802  0.00  0.00    -0.375 OA
ATOM      3  O   UNL     1      10.394  11.411  24.261  0.00  0.00    -0.270 OA
ATOM      4  N   UNL     1      11.807  10.615  22.570  0.00  0.00    -0.292 N 
ATOM      8  C   UNL     1      13.528   9.375  21.150  0.00  0.00    +0.218 C 
ATOM      9  C   UNL     1      13.130  10.629  21.933  0.00  0.00    +0.155 C 
ATOM     10  C   UNL     1      10.795   9.695  22.050  0.00  0.00    +0.136 C 
ATOM     11  C   UNL     1      13.334   8.083  21.940  0.00  0.00    +0.206 C 
ATOM     12  C   UNL     1      11.026   8.279  22.563  0.00  0.00    +0.179 C 
ATOM     13  C   UNL     1      11.478  11.413  23.678  0.00  0.00    +0.250 C 
ENDROOT
BRANCH  13  14
ATOM      6  N   UNL     1      13.550  14.502  24.182  0.00  0.00    -0.243 NA
ATOM      7  N   UNL     1      14.324  12.795  25.697  0.00  0.00    -0.243 NA
ATOM     14  C   UNL     1      12.495  12.338  24.200  0.00  0.00    +0.073 A 
ATOM     17  C   UNL     1      12.629  13.627  23.726  0.00  0.00    +0.127 A 
ATOM     18  C   UNL     1      13.379  11.973  25.196  0.00  0.00    +0.127 A 
ATOM     23  C   UNL     1      14.353  14.026  25.154  0.00  0.00    +0.221 A 
ENDBRANCH  13  14
BRANCH   8   2
ATOM      2  O   UNL     1      14.912   9.516  20.824  0.00  0.00    -0.469 OA
BRANCH   2  15
ATOM      5  N   UNL     1      16.659   7.996  20.919  0.00  0.00    -0.218 NA
ATOM     15  C   UNL     1      15.532   8.414  20.302  0.00  0.00    +0.215 A 
ATOM     16  C   UNL     1      14.984   7.798  19.188  0.00  0.00    +0.067 A 
ATOM     19  C   UNL     1      17.263   6.906  20.393  0.00  0.00    +0.042 A 
ATOM     20  C   UNL     1      15.633   6.681  18.676  0.00  0.00    +0.007 A 
ATOM     21  C   UNL     1      16.795   6.220  19.284  0.00  0.00    +0.023 A 
ATOM     22  C   UNL     1      18.510   6.441  21.070  0.00  0.00    +0.066 C 
ENDBRANCH   2  15
ENDBRANCH   8   2
TORSDOF 3
ENDMDL
MODEL 9
REMARK VINA RESULT:      -5.6     26.809     28.932
REMARK  Name = 75536943
REMARK  4 active torsions:
REMARK  status: ('A' for Active; 'I' for Inactive)
REMARK    1  A    between atoms: O_2  and  C_8
REMARK    2  A    between atoms: O_2  and  C_15
REMARK    3  A    between atoms: C_13  and  C_14
REMARK    4  A    between atoms: C_19  and  C_22
REMARK                            x       y       z     vdW  Elec       q    Type
REMARK                         _______ _______ _______ _____ _____    ______ ____
ROOT
ATOM      1  O   UNL     1      -3.831 -12.365  15.605  0.00  0.00    -0.375 OA
ATOM      3  O   UNL     1      -1.396 -10.616  11.821  0.00  0.00    -0.270 OA
ATOM      4  N   UNL     1      -3.314 -10.474  13.160  0.00  0.00    -0.292 N 
ATOM      8  C   UNL     1      -5.441 -10.898  14.506  0.00  0.00    +0.218 C 
ATOM      9  C   UNL     1      -4.773 -10.338  13.247  0.00  0.00    +0.155 C 
ATOM     10  C   UNL     1      -2.558 -10.658  14.398  0.00  0.00    +0.136 C 
ATOM     11  C   UNL     1      -5.022 -12.331  14.824  0.00  0.00    +0.206 C 
ATOM     12  C   UNL     1      -2.635 -12.101  14.879  0.00  0.00    +0.179 C 
ATOM     13  C   UNL     1      -2.612 -10.474  11.943  0.00  0.00    +0.250 C 
ENDROOT
BRANCH  13  14
ATOM      6  N   UNL     1      -4.642 -11.213   8.873  0.00  0.00    -0.243 NA
ATOM      7  N   UNL     1      -4.259  -8.837   8.994  0.00  0.00    -0.243 NA
ATOM     14  C   UNL     1      -3.373 -10.288  10.698  0.00  0.00    +0.073 A 
ATOM     17  C   UNL     1      -3.938 -11.347  10.017  0.00  0.00    +0.127 A 
ATOM     18  C   UNL     1      -3.568  -9.043  10.134  0.00  0.00    +0.127 A 
ATOM     23  C   UNL     1      -4.761  -9.948   8.424  0.00  0.00    +0.221 A 
ENDBRANCH  13  14
BRANCH   8   2
ATOM      2  O   UNL     1      -6.850 -10.866  14.273  0.00  0.00    -0.469 OA
BRANCH   2  15
ATOM      5  N   UNL     1      -8.741  -9.577  14.642  0.00  0.00    -0.218 NA
ATOM     15  C   UNL     1      -7.594 -10.101  15.129  0.00  0.00    +0.215 A 
ATOM     16  C   UNL     1      -7.140  -9.907  16.424  0.00  0.00    +0.067 A 
ATOM     19  C   UNL     1      -9.467  -8.822  15.498  0.00  0.00    +0.042 A 
ATOM     20  C   UNL     1      -7.914  -9.124  17.273  0.00  0.00    +0.007 A 
ATOM     21  C   UNL     1      -9.100  -8.568  16.810  0.00  0.00    +0.023 A 
ATOM     22  C   UNL     1     -10.733  -8.238  14.965  0.00  0.00    +0.066 C 
ENDBRANCH   2  15
ENDBRANCH   8   2
TORSDOF 3
ENDMDL
MODEL 10
REMARK VINA RESULT:      -5.6     26.669     29.242
REMARK  Name = 75536943
REMARK  4 active torsions:
REMARK  status: ('A' for Active; 'I' for Inactive)
REMARK    1  A    between atoms: O_2  and  C_8
REMARK    2  A    between atoms: O_2  and  C_15
REMARK    3  A    between atoms: C_13  and  C_14
REMARK    4  A    between atoms: C_19  and  C_22
REMARK                            x       y       z     vdW  Elec       q    Type
REMARK                         _______ _______ _______ _____ _____    ______ ____
ROOT
ATOM      1  O   UNL     1      -5.798 -11.963  19.502  0.00  0.00    -0.375 OA
ATOM      3  O   UNL     1     -10.390 -11.513  18.081  0.00  0.00    -0.270 OA
ATOM      4  N   UNL     1      -8.127 -11.378  17.487  0.00  0.00    -0.292 N 
ATOM      8  C   UNL     1      -5.628 -10.885  17.319  0.00  0.00    +0.218 C 
ATOM      9  C   UNL     1      -7.051 -10.644  16.810  0.00  0.00    +0.155 C 
ATOM     10  C   UNL     1      -7.782 -12.598  18.217  0.00  0.00    +0.136 C 
ATOM     11  C   UNL     1      -5.497 -10.741  18.834  0.00  0.00    +0.206 C 
ATOM     12  C   UNL     1      -7.185 -12.273  19.580  0.00  0.00    +0.179 C 
ATOM     13  C   UNL     1      -9.463 -10.947  17.501  0.00  0.00    +0.250 C 
ENDROOT
BRANCH  13  14
ATOM      6  N   UNL     1     -10.463  -8.629  14.723  0.00  0.00    -0.243 NA
ATOM      7  N   UNL     1     -10.137  -7.336  16.730  0.00  0.00    -0.243 NA
ATOM     14  C   UNL     1      -9.809  -9.721  16.767  0.00  0.00    +0.073 A 
ATOM     17  C   UNL     1     -10.140  -9.735  15.427  0.00  0.00    +0.127 A 
ATOM     18  C   UNL     1      -9.825  -8.480  17.373  0.00  0.00    +0.127 A 
ATOM     23  C   UNL     1     -10.441  -7.480  15.427  0.00  0.00    +0.221 A 
ENDBRANCH  13  14
BRANCH   8   2
ATOM      2  O   UNL     1      -4.793  -9.914  16.686  0.00  0.00    -0.469 OA
BRANCH   2  15
ATOM      5  N   UNL     1      -4.199 -10.552  14.538  0.00  0.00    -0.218 NA
ATOM     15  C   UNL     1      -3.839 -10.392  15.831  0.00  0.00    +0.215 A 
ATOM     16  C   UNL     1      -2.578 -10.684  16.326  0.00  0.00    +0.067 A 
ATOM     19  C   UNL     1      -3.247 -11.026  13.704  0.00  0.00    +0.042 A 
ATOM     20  C   UNL     1      -1.626 -11.170  15.438  0.00  0.00    +0.007 A 
ATOM     21  C   UNL     1      -1.958 -11.348  14.099  0.00  0.00    +0.023 A 
ATOM     22  C   UNL     1      -3.641 -11.208  12.275  0.00  0.00    +0.066 C 
ENDBRANCH   2  15
ENDBRANCH   8   2
TORSDOF 3
ENDMDL
