MODEL 1
REMARK VINA RESULT:      -6.7      0.000      0.000
REMARK  Name = 56775614
REMARK  10 active torsions:
REMARK  status: ('A' for Active; 'I' for Inactive)
REMARK    1  A    between atoms: N_4  and  C_8
REMARK    2  A    between atoms: N_4  and  C_9
REMARK    3  A    between atoms: N_7  and  C_22
REMARK    4  A    between atoms: N_7  and  C_23
REMARK    5  A    between atoms: N_7  and  C_24
REMARK    6  A    between atoms: C_8  and  C_12
REMARK    7  A    between atoms: C_12  and  C_17
REMARK    8  A    between atoms: C_18  and  C_21
REMARK    9  A    between atoms: C_20  and  C_22
REMARK   10  A    between atoms: C_23  and  C_25
REMARK                            x       y       z     vdW  Elec       q    Type
REMARK                         _______ _______ _______ _____ _____    ______ ____
ROOT
ATOM     12  C   UNL     1      17.896   6.305  21.584  0.00  0.00    +0.085 C 
ENDROOT
BRANCH  12  17
ATOM      2  O   UNL     1      16.027   6.238  18.493  0.00  0.00    -0.358 OA
ATOM      6  N   UNL     1      17.154   5.957  19.255  0.00  0.00    -0.083 NA
ATOM     17  C   UNL     1      16.877   6.437  20.471  0.00  0.00    +0.086 A 
ATOM     19  C   UNL     1      15.603   7.025  20.535  0.00  0.00    +0.072 A 
ATOM     20  C   UNL     1      15.111   6.874  19.266  0.00  0.00    +0.151 A 
BRANCH  20  22
ATOM     22  C   UNL     1      13.849   7.247  18.614  0.00  0.00    +0.161 C 
BRANCH  22   7
ATOM      7  N   UNL     1      13.570   8.692  18.672  0.00  0.00    -0.294 NA
ATOM     24  C   UNL     1      14.146   9.359  17.510  0.00  0.00    +0.105 C 
BRANCH   7  23
ATOM     23  C   UNL     1      12.131   8.922  18.744  0.00  0.00    +0.119 C 
BRANCH  23  25
ATOM     25  C   UNL     1      11.678   9.197  20.153  0.00  0.00    -0.033 A 
ATOM     26  C   UNL     1      11.989  10.414  20.760  0.00  0.00    +0.005 A 
ATOM     27  C   UNL     1      10.948   8.236  20.852  0.00  0.00    +0.005 A 
ATOM     28  C   UNL     1      11.569  10.669  22.066  0.00  0.00    +0.000 A 
ATOM     29  C   UNL     1      10.528   8.491  22.157  0.00  0.00    +0.000 A 
ATOM     30  C   UNL     1      10.839   9.708  22.764  0.00  0.00    +0.000 A 
ENDBRANCH  23  25
ENDBRANCH   7  23
ENDBRANCH  22   7
ENDBRANCH  20  22
ENDBRANCH  12  17
BRANCH  12   8
ATOM      1  O   UNL     1      19.545   9.106  22.385  0.00  0.00    -0.376 OA
ATOM      8  C   UNL     1      19.012   7.287  21.404  0.00  0.00    +0.072 C 
ATOM     10  C   UNL     1      18.677   8.769  21.278  0.00  0.00    +0.184 C 
ATOM     11  C   UNL     1      19.831   7.709  22.619  0.00  0.00    +0.184 C 
BRANCH   8   4
ATOM      4  N   UNL     1      19.930   6.917  20.322  0.00  0.00    -0.304 NA
ATOM     31  H   UNL     1      20.151   7.666  19.666  0.00  0.00    +0.123 HD
BRANCH   4   9
ATOM      3  O   UNL     1      25.729   5.064  19.463  0.00  0.00    -0.276 OA
ATOM      5  N   UNL     1      23.691   5.007  20.576  0.00  0.00    -0.302 N 
ATOM      9  C   UNL     1      21.154   6.366  20.896  0.00  0.00    +0.057 C 
ATOM     13  C   UNL     1      22.379   7.077  20.305  0.00  0.00    +0.037 C 
ATOM     14  C   UNL     1      21.229   4.858  20.629  0.00  0.00    +0.037 C 
ATOM     15  C   UNL     1      23.673   6.451  20.820  0.00  0.00    +0.109 C 
ATOM     16  C   UNL     1      22.548   4.276  21.137  0.00  0.00    +0.109 C 
ATOM     18  C   UNL     1      24.761   4.431  19.893  0.00  0.00    +0.212 C 
ATOM     21  C   UNL     1      24.702   2.939  19.680  0.00  0.00    +0.109 C 
ENDBRANCH   4   9
ENDBRANCH   8   4
ENDBRANCH  12   8
TORSDOF 8
ENDMDL
MODEL 2
REMARK VINA RESULT:      -6.5     27.034     31.789
REMARK  Name = 56775614
REMARK  10 active torsions:
REMARK  status: ('A' for Active; 'I' for Inactive)
REMARK    1  A    between atoms: N_4  and  C_8
REMARK    2  A    between atoms: N_4  and  C_9
REMARK    3  A    between atoms: N_7  and  C_22
REMARK    4  A    between atoms: N_7  and  C_23
REMARK    5  A    between atoms: N_7  and  C_24
REMARK    6  A    between atoms: C_8  and  C_12
REMARK    7  A    between atoms: C_12  and  C_17
REMARK    8  A    between atoms: C_18  and  C_21
REMARK    9  A    between atoms: C_20  and  C_22
REMARK   10  A    between atoms: C_23  and  C_25
REMARK                            x       y       z     vdW  Elec       q    Type
REMARK                         _______ _______ _______ _____ _____    ______ ____
ROOT
ATOM     12  C   UNL     1      -8.173 -11.204  16.869  0.00  0.00    +0.085 C 
ENDROOT
BRANCH  12  17
ATOM      2  O   UNL     1      -5.000  -9.532  16.431  0.00  0.00    -0.358 OA
ATOM      6  N   UNL     1      -6.387  -9.534  16.529  0.00  0.00    -0.083 NA
ATOM     17  C   UNL     1      -6.718 -10.816  16.715  0.00  0.00    +0.086 A 
ATOM     19  C   UNL     1      -5.594 -11.658  16.742  0.00  0.00    +0.072 A 
ATOM     20  C   UNL     1      -4.540 -10.803  16.559  0.00  0.00    +0.151 A 
BRANCH  20  22
ATOM     22  C   UNL     1      -3.085 -10.984  16.480  0.00  0.00    +0.161 C 
BRANCH  22   7
ATOM      7  N   UNL     1      -2.495 -10.411  15.257  0.00  0.00    -0.294 NA
ATOM     24  C   UNL     1      -1.091 -10.085  15.485  0.00  0.00    +0.105 C 
BRANCH   7  23
ATOM     23  C   UNL     1      -2.638 -11.346  14.146  0.00  0.00    +0.119 C 
BRANCH  23  25
ATOM     25  C   UNL     1      -3.102 -10.657  12.891  0.00  0.00    -0.033 A 
ATOM     26  C   UNL     1      -4.456 -10.374  12.710  0.00  0.00    +0.005 A 
ATOM     27  C   UNL     1      -2.179 -10.303  11.908  0.00  0.00    +0.005 A 
ATOM     28  C   UNL     1      -4.886  -9.737  11.546  0.00  0.00    +0.000 A 
ATOM     29  C   UNL     1      -2.608  -9.665  10.744  0.00  0.00    +0.000 A 
ATOM     30  C   UNL     1      -3.962  -9.382  10.564  0.00  0.00    +0.000 A 
ENDBRANCH  23  25
ENDBRANCH   7  23
ENDBRANCH  22   7
ENDBRANCH  20  22
ENDBRANCH  12  17
BRANCH  12   8
ATOM      1  O   UNL     1      -8.759 -11.887  20.094  0.00  0.00    -0.376 OA
ATOM      8  C   UNL     1      -8.679 -10.845  18.233  0.00  0.00    +0.072 C 
ATOM     10  C   UNL     1      -9.630 -11.802  18.942  0.00  0.00    +0.184 C 
ATOM     11  C   UNL     1      -7.771 -11.060  19.439  0.00  0.00    +0.184 C 
BRANCH   8   4
ATOM      4  N   UNL     1      -9.237  -9.491  18.297  0.00  0.00    -0.304 NA
ATOM     31  H   UNL     1      -8.550  -8.743  18.389  0.00  0.00    +0.123 HD
BRANCH   4   9
ATOM      3  O   UNL     1     -12.577  -5.557  14.955  0.00  0.00    -0.276 OA
ATOM      5  N   UNL     1     -12.073  -7.686  15.736  0.00  0.00    -0.302 N 
ATOM      9  C   UNL     1     -10.083  -9.262  17.130  0.00  0.00    +0.057 C 
ATOM     13  C   UNL     1      -9.733  -7.917  16.480  0.00  0.00    +0.037 C 
ATOM     14  C   UNL     1     -11.562  -9.293  17.537  0.00  0.00    +0.037 C 
ATOM     15  C   UNL     1     -10.672  -7.614  15.315  0.00  0.00    +0.109 C 
ATOM     16  C   UNL     1     -12.465  -8.961  16.349  0.00  0.00    +0.109 C 
ATOM     18  C   UNL     1     -12.923  -6.606  15.506  0.00  0.00    +0.212 C 
ATOM     21  C   UNL     1     -14.349  -6.757  15.973  0.00  0.00    +0.109 C 
ENDBRANCH   4   9
ENDBRANCH   8   4
ENDBRANCH  12   8
TORSDOF 8
ENDMDL
MODEL 3
REMARK VINA RESULT:      -6.1     28.461     31.398
REMARK  Name = 56775614
REMARK  10 active torsions:
REMARK  status: ('A' for Active; 'I' for Inactive)
REMARK    1  A    between atoms: N_4  and  C_8
REMARK    2  A    between atoms: N_4  and  C_9
REMARK    3  A    between atoms: N_7  and  C_22
REMARK    4  A    between atoms: N_7  and  C_23
REMARK    5  A    between atoms: N_7  and  C_24
REMARK    6  A    between atoms: C_8  and  C_12
REMARK    7  A    between atoms: C_12  and  C_17
REMARK    8  A    between atoms: C_18  and  C_21
REMARK    9  A    between atoms: C_20  and  C_22
REMARK   10  A    between atoms: C_23  and  C_25
REMARK                            x       y       z     vdW  Elec       q    Type
REMARK                         _______ _______ _______ _____ _____    ______ ____
ROOT
ATOM     12  C   UNL     1      -4.275  -9.197   9.057  0.00  0.00    +0.085 C 
ENDROOT
BRANCH  12  17
ATOM      2  O   UNL     1      -4.523  -9.942  12.583  0.00  0.00    -0.358 OA
ATOM      6  N   UNL     1      -5.057  -9.503  11.378  0.00  0.00    -0.083 NA
ATOM     17  C   UNL     1      -4.054  -9.596  10.501  0.00  0.00    +0.086 A 
ATOM     19  C   UNL     1      -2.874 -10.083  11.089  0.00  0.00    +0.072 A 
ATOM     20  C   UNL     1      -3.222 -10.284  12.399  0.00  0.00    +0.151 A 
BRANCH  20  22
ATOM     22  C   UNL     1      -2.499 -10.774  13.579  0.00  0.00    +0.161 C 
BRANCH  22   7
ATOM      7  N   UNL     1      -3.385 -11.352  14.604  0.00  0.00    -0.294 NA
ATOM     24  C   UNL     1      -3.231 -12.802  14.637  0.00  0.00    +0.105 C 
BRANCH   7  23
ATOM     23  C   UNL     1      -3.091 -10.767  15.908  0.00  0.00    +0.119 C 
BRANCH  23  25
ATOM     25  C   UNL     1      -4.335 -10.593  16.737  0.00  0.00    -0.033 A 
ATOM     26  C   UNL     1      -4.393 -11.120  18.027  0.00  0.00    +0.005 A 
ATOM     27  C   UNL     1      -5.431  -9.906  16.215  0.00  0.00    +0.005 A 
ATOM     28  C   UNL     1      -5.546 -10.960  18.795  0.00  0.00    +0.000 A 
ATOM     29  C   UNL     1      -6.584  -9.744  16.983  0.00  0.00    +0.000 A 
ATOM     30  C   UNL     1      -6.641 -10.271  18.273  0.00  0.00    +0.000 A 
ENDBRANCH  23  25
ENDBRANCH   7  23
ENDBRANCH  22   7
ENDBRANCH  20  22
ENDBRANCH  12  17
BRANCH  12   8
ATOM      1  O   UNL     1      -5.259 -11.576   6.917  0.00  0.00    -0.376 OA
ATOM      8  C   UNL     1      -5.319 -10.061   8.419  0.00  0.00    +0.072 C 
ATOM     10  C   UNL     1      -5.386 -10.136   6.898  0.00  0.00    +0.184 C 
ATOM     11  C   UNL     1      -5.095 -11.568   8.353  0.00  0.00    +0.184 C 
BRANCH   8   4
ATOM      4  N   UNL     1      -6.666  -9.807   8.938  0.00  0.00    -0.304 NA
ATOM     31  H   UNL     1      -6.711  -9.570   9.929  0.00  0.00    +0.123 HD
BRANCH   4   9
ATOM      3  O   UNL     1     -10.091  -4.704   8.777  0.00  0.00    -0.276 OA
ATOM      5  N   UNL     1      -9.287  -6.675   7.849  0.00  0.00    -0.302 N 
ATOM      9  C   UNL     1      -7.302  -8.764   8.138  0.00  0.00    +0.057 C 
ATOM     13  C   UNL     1      -7.142  -7.402   8.825  0.00  0.00    +0.037 C 
ATOM     14  C   UNL     1      -8.787  -9.090   7.933  0.00  0.00    +0.037 C 
ATOM     15  C   UNL     1      -7.882  -6.312   8.053  0.00  0.00    +0.109 C 
ATOM     16  C   UNL     1      -9.496  -7.965   7.179  0.00  0.00    +0.109 C 
ATOM     18  C   UNL     1     -10.295  -5.800   8.249  0.00  0.00    +0.212 C 
ATOM     21  C   UNL     1     -11.714  -6.248   8.007  0.00  0.00    +0.109 C 
ENDBRANCH   4   9
ENDBRANCH   8   4
ENDBRANCH  12   8
TORSDOF 8
ENDMDL
MODEL 4
REMARK VINA RESULT:      -6.1     15.057     18.242
REMARK  Name = 56775614
REMARK  10 active torsions:
REMARK  status: ('A' for Active; 'I' for Inactive)
REMARK    1  A    between atoms: N_4  and  C_8
REMARK    2  A    between atoms: N_4  and  C_9
REMARK    3  A    between atoms: N_7  and  C_22
REMARK    4  A    between atoms: N_7  and  C_23
REMARK    5  A    between atoms: N_7  and  C_24
REMARK    6  A    between atoms: C_8  and  C_12
REMARK    7  A    between atoms: C_12  and  C_17
REMARK    8  A    between atoms: C_18  and  C_21
REMARK    9  A    between atoms: C_20  and  C_22
REMARK   10  A    between atoms: C_23  and  C_25
REMARK                            x       y       z     vdW  Elec       q    Type
REMARK                         _______ _______ _______ _____ _____    ______ ____
ROOT
ATOM     12  C   UNL     1      14.442   8.779   4.708  0.00  0.00    +0.085 C 
ENDROOT
BRANCH  12  17
ATOM      2  O   UNL     1      13.499   6.470   7.322  0.00  0.00    -0.358 OA
ATOM      6  N   UNL     1      14.443   7.124   6.540  0.00  0.00    -0.083 NA
ATOM     17  C   UNL     1      13.732   7.903   5.719  0.00  0.00    +0.086 A 
ATOM     19  C   UNL     1      12.349   7.783   5.935  0.00  0.00    +0.072 A 
ATOM     20  C   UNL     1      12.256   6.870   6.951  0.00  0.00    +0.151 A 
BRANCH  20  22
ATOM     22  C   UNL     1      11.131   6.273   7.681  0.00  0.00    +0.161 C 
BRANCH  22   7
ATOM      7  N   UNL     1      10.124   5.660   6.797  0.00  0.00    -0.294 NA
ATOM     24  C   UNL     1       9.834   4.300   7.237  0.00  0.00    +0.105 C 
BRANCH   7  23
ATOM     23  C   UNL     1       8.912   6.472   6.779  0.00  0.00    +0.119 C 
BRANCH  23  25
ATOM     25  C   UNL     1       8.720   7.161   5.455  0.00  0.00    -0.033 A 
ATOM     26  C   UNL     1       9.236   6.591   4.290  0.00  0.00    +0.005 A 
ATOM     27  C   UNL     1       8.027   8.370   5.391  0.00  0.00    +0.005 A 
ATOM     28  C   UNL     1       9.058   7.231   3.063  0.00  0.00    +0.000 A 
ATOM     29  C   UNL     1       7.849   9.009   4.165  0.00  0.00    +0.000 A 
ATOM     30  C   UNL     1       8.365   8.439   3.001  0.00  0.00    +0.000 A 
ENDBRANCH  23  25
ENDBRANCH   7  23
ENDBRANCH  22   7
ENDBRANCH  20  22
ENDBRANCH  12  17
BRANCH  12   8
ATOM      1  O   UNL     1      17.154   8.343   2.794  0.00  0.00    -0.376 OA
ATOM      8  C   UNL     1      15.318   7.958   3.813  0.00  0.00    +0.072 C 
ATOM     10  C   UNL     1      15.758   8.541   2.475  0.00  0.00    +0.184 C 
ATOM     11  C   UNL     1      16.809   7.868   4.116  0.00  0.00    +0.184 C 
BRANCH   8   4
ATOM      4  N   UNL     1      14.800   6.605   3.590  0.00  0.00    -0.304 NA
ATOM     31  H   UNL     1      14.152   6.267   4.301  0.00  0.00    +0.123 HD
BRANCH   4   9
ATOM      3  O   UNL     1      10.630   4.001  -0.102  0.00  0.00    -0.276 OA
ATOM      5  N   UNL     1      12.641   5.098   0.284  0.00  0.00    -0.302 N 
ATOM      9  C   UNL     1      14.183   6.536   2.268  0.00  0.00    +0.057 C 
ATOM     13  C   UNL     1      12.666   6.360   2.403  0.00  0.00    +0.037 C 
ATOM     14  C   UNL     1      14.789   5.378   1.465  0.00  0.00    +0.037 C 
ATOM     15  C   UNL     1      12.013   6.189   1.033  0.00  0.00    +0.109 C 
ATOM     16  C   UNL     1      14.093   5.227   0.112  0.00  0.00    +0.109 C 
ATOM     18  C   UNL     1      11.855   4.068  -0.230  0.00  0.00    +0.212 C 
ATOM     21  C   UNL     1      12.577   2.980  -0.985  0.00  0.00    +0.109 C 
ENDBRANCH   4   9
ENDBRANCH   8   4
ENDBRANCH  12   8
TORSDOF 8
ENDMDL
MODEL 5
REMARK VINA RESULT:      -6.0     27.592     31.403
REMARK  Name = 56775614
REMARK  10 active torsions:
REMARK  status: ('A' for Active; 'I' for Inactive)
REMARK    1  A    between atoms: N_4  and  C_8
REMARK    2  A    between atoms: N_4  and  C_9
REMARK    3  A    between atoms: N_7  and  C_22
REMARK    4  A    between atoms: N_7  and  C_23
REMARK    5  A    between atoms: N_7  and  C_24
REMARK    6  A    between atoms: C_8  and  C_12
REMARK    7  A    between atoms: C_12  and  C_17
REMARK    8  A    between atoms: C_18  and  C_21
REMARK    9  A    between atoms: C_20  and  C_22
REMARK   10  A    between atoms: C_23  and  C_25
REMARK                            x       y       z     vdW  Elec       q    Type
REMARK                         _______ _______ _______ _____ _____    ______ ____
ROOT
ATOM     12  C   UNL     1      -9.548  -9.739  15.290  0.00  0.00    +0.085 C 
ENDROOT
BRANCH  12  17
ATOM      2  O   UNL     1     -10.489  -6.262  15.571  0.00  0.00    -0.358 OA
ATOM      6  N   UNL     1      -9.578  -7.304  15.695  0.00  0.00    -0.083 NA
ATOM     17  C   UNL     1     -10.240  -8.392  15.292  0.00  0.00    +0.086 A 
ATOM     19  C   UNL     1     -11.559  -8.101  14.905  0.00  0.00    +0.072 A 
ATOM     20  C   UNL     1     -11.665  -6.750  15.100  0.00  0.00    +0.151 A 
BRANCH  20  22
ATOM     22  C   UNL     1     -12.747  -5.777  14.906  0.00  0.00    +0.161 C 
BRANCH  22   7
ATOM      7  N   UNL     1     -13.382  -5.871  13.580  0.00  0.00    -0.294 NA
ATOM     24  C   UNL     1     -14.761  -6.328  13.716  0.00  0.00    +0.105 C 
BRANCH   7  23
ATOM     23  C   UNL     1     -13.326  -4.578  12.905  0.00  0.00    +0.119 C 
BRANCH  23  25
ATOM     25  C   UNL     1     -12.532  -4.646  11.629  0.00  0.00    -0.033 A 
ATOM     26  C   UNL     1     -12.280  -5.880  11.029  0.00  0.00    +0.005 A 
ATOM     27  C   UNL     1     -12.047  -3.475  11.045  0.00  0.00    +0.005 A 
ATOM     28  C   UNL     1     -11.542  -5.943   9.846  0.00  0.00    +0.000 A 
ATOM     29  C   UNL     1     -11.311  -3.538   9.863  0.00  0.00    +0.000 A 
ATOM     30  C   UNL     1     -11.059  -4.772   9.263  0.00  0.00    +0.000 A 
ENDBRANCH  23  25
ENDBRANCH   7  23
ENDBRANCH  22   7
ENDBRANCH  20  22
ENDBRANCH  12  17
BRANCH  12   8
ATOM      1  O   UNL     1      -9.227 -11.019  18.367  0.00  0.00    -0.376 OA
ATOM      8  C   UNL     1      -8.797  -9.954  16.568  0.00  0.00    +0.072 C 
ATOM     10  C   UNL     1      -9.502  -9.682  17.892  0.00  0.00    +0.184 C 
ATOM     11  C   UNL     1      -8.629 -11.373  17.099  0.00  0.00    +0.184 C 
BRANCH   8   4
ATOM      4  N   UNL     1      -7.492  -9.287  16.583  0.00  0.00    -0.304 NA
ATOM     31  H   UNL     1      -7.269  -8.790  17.445  0.00  0.00    +0.123 HD
BRANCH   4   9
ATOM      3  O   UNL     1      -1.498 -10.641  16.389  0.00  0.00    -0.276 OA
ATOM      5  N   UNL     1      -3.689 -10.881  15.656  0.00  0.00    -0.302 N 
ATOM      9  C   UNL     1      -6.449 -10.262  16.275  0.00  0.00    +0.057 C 
ATOM     13  C   UNL     1      -5.355 -10.221  17.350  0.00  0.00    +0.037 C 
ATOM     14  C   UNL     1      -5.852  -9.975  14.891  0.00  0.00    +0.037 C 
ATOM     15  C   UNL     1      -4.208 -11.165  16.996  0.00  0.00    +0.109 C 
ATOM     16  C   UNL     1      -4.693 -10.924  14.587  0.00  0.00    +0.109 C 
ATOM     18  C   UNL     1      -2.328 -10.636  15.477  0.00  0.00    +0.212 C 
ATOM     21  C   UNL     1      -1.874 -10.349  14.068  0.00  0.00    +0.109 C 
ENDBRANCH   4   9
ENDBRANCH   8   4
ENDBRANCH  12   8
TORSDOF 8
ENDMDL
MODEL 6
REMARK VINA RESULT:      -5.9     28.124     30.501
REMARK  Name = 56775614
REMARK  10 active torsions:
REMARK  status: ('A' for Active; 'I' for Inactive)
REMARK    1  A    between atoms: N_4  and  C_8
REMARK    2  A    between atoms: N_4  and  C_9
REMARK    3  A    between atoms: N_7  and  C_22
REMARK    4  A    between atoms: N_7  and  C_23
REMARK    5  A    between atoms: N_7  and  C_24
REMARK    6  A    between atoms: C_8  and  C_12
REMARK    7  A    between atoms: C_12  and  C_17
REMARK    8  A    between atoms: C_18  and  C_21
REMARK    9  A    between atoms: C_20  and  C_22
REMARK   10  A    between atoms: C_23  and  C_25
REMARK                            x       y       z     vdW  Elec       q    Type
REMARK                         _______ _______ _______ _____ _____    ______ ____
ROOT
ATOM     12  C   UNL     1      -2.691 -10.862  16.377  0.00  0.00    +0.085 C 
ENDROOT
BRANCH  12  17
ATOM      2  O   UNL     1      -6.141 -10.010  17.031  0.00  0.00    -0.358 OA
ATOM      6  N   UNL     1      -4.946  -9.856  16.339  0.00  0.00    -0.083 NA
ATOM     17  C   UNL     1      -4.112 -10.743  16.889  0.00  0.00    +0.086 A 
ATOM     19  C   UNL     1      -4.719 -11.478  17.922  0.00  0.00    +0.072 A 
ATOM     20  C   UNL     1      -5.993 -10.978  17.971  0.00  0.00    +0.151 A 
BRANCH  20  22
ATOM     22  C   UNL     1      -7.169 -11.272  18.799  0.00  0.00    +0.161 C 
BRANCH  22   7
ATOM      7  N   UNL     1      -8.436 -11.218  18.049  0.00  0.00    -0.294 NA
ATOM     24  C   UNL     1      -8.902 -12.569  17.755  0.00  0.00    +0.105 C 
BRANCH   7  23
ATOM     23  C   UNL     1      -9.437 -10.476  18.808  0.00  0.00    +0.119 C 
BRANCH  23  25
ATOM     25  C   UNL     1     -10.141  -9.454  17.957  0.00  0.00    -0.033 A 
ATOM     26  C   UNL     1     -11.527  -9.506  17.809  0.00  0.00    +0.005 A 
ATOM     27  C   UNL     1      -9.409  -8.454  17.316  0.00  0.00    +0.005 A 
ATOM     28  C   UNL     1     -12.181  -8.559  17.019  0.00  0.00    +0.000 A 
ATOM     29  C   UNL     1     -10.061  -7.507  16.528  0.00  0.00    +0.000 A 
ATOM     30  C   UNL     1     -11.448  -7.560  16.379  0.00  0.00    +0.000 A 
ENDBRANCH  23  25
ENDBRANCH   7  23
ENDBRANCH  22   7
ENDBRANCH  20  22
ENDBRANCH  12  17
BRANCH  12   8
ATOM      1  O   UNL     1      -2.374 -13.261  14.063  0.00  0.00    -0.376 OA
ATOM      8  C   UNL     1      -2.675 -11.347  14.960  0.00  0.00    +0.072 C 
ATOM     10  C   UNL     1      -1.497 -12.190  14.483  0.00  0.00    +0.184 C 
ATOM     11  C   UNL     1      -3.525 -12.555  14.581  0.00  0.00    +0.184 C 
BRANCH   8   4
ATOM      4  N   UNL     1      -2.915 -10.278  13.987  0.00  0.00    -0.304 NA
ATOM     31  H   UNL     1      -2.078  -9.805  13.647  0.00  0.00    +0.123 HD
BRANCH   4   9
ATOM      3  O   UNL     1      -4.773  -9.658   8.159  0.00  0.00    -0.276 OA
ATOM      5  N   UNL     1      -5.039 -10.424  10.336  0.00  0.00    -0.302 N 
ATOM      9  C   UNL     1      -3.687 -10.810  12.867  0.00  0.00    +0.057 C 
ATOM     13  C   UNL     1      -2.907 -10.631  11.558  0.00  0.00    +0.037 C 
ATOM     14  C   UNL     1      -5.047 -10.105  12.782  0.00  0.00    +0.037 C 
ATOM     15  C   UNL     1      -3.736 -11.094  10.362  0.00  0.00    +0.109 C 
ATOM     16  C   UNL     1      -5.834 -10.579  11.560  0.00  0.00    +0.109 C 
ATOM     18  C   UNL     1      -5.445  -9.743   9.189  0.00  0.00    +0.212 C 
ATOM     21  C   UNL     1      -6.797  -9.077   9.243  0.00  0.00    +0.109 C 
ENDBRANCH   4   9
ENDBRANCH   8   4
ENDBRANCH  12   8
TORSDOF 8
ENDMDL
MODEL 7
REMARK VINA RESULT:      -5.9     30.441     34.161
REMARK  Name = 56775614
REMARK  10 active torsions:
REMARK  status: ('A' for Active; 'I' for Inactive)
REMARK    1  A    between atoms: N_4  and  C_8
REMARK    2  A    between atoms: N_4  and  C_9
REMARK    3  A    between atoms: N_7  and  C_22
REMARK    4  A    between atoms: N_7  and  C_23
REMARK    5  A    between atoms: N_7  and  C_24
REMARK    6  A    between atoms: C_8  and  C_12
REMARK    7  A    between atoms: C_12  and  C_17
REMARK    8  A    between atoms: C_18  and  C_21
REMARK    9  A    between atoms: C_20  and  C_22
REMARK   10  A    between atoms: C_23  and  C_25
REMARK                            x       y       z     vdW  Elec       q    Type
REMARK                         _______ _______ _______ _____ _____    ______ ____
ROOT
ATOM     12  C   UNL     1     -18.156   3.038  25.454  0.00  0.00    +0.085 C 
ENDROOT
BRANCH  12  17
ATOM      2  O   UNL     1     -15.945   3.703  22.675  0.00  0.00    -0.358 OA
ATOM      6  N   UNL     1     -16.993   3.017  23.276  0.00  0.00    -0.083 NA
ATOM     17  C   UNL     1     -17.098   3.548  24.498  0.00  0.00    +0.086 A 
ATOM     19  C   UNL     1     -16.153   4.564  24.721  0.00  0.00    +0.072 A 
ATOM     20  C   UNL     1     -15.453   4.622  23.545  0.00  0.00    +0.151 A 
BRANCH  20  22
ATOM     22  C   UNL     1     -14.333   5.443  23.068  0.00  0.00    +0.161 C 
BRANCH  22   7
ATOM      7  N   UNL     1     -14.718   6.387  22.004  0.00  0.00    -0.294 NA
ATOM     24  C   UNL     1     -16.058   6.904  22.255  0.00  0.00    +0.105 C 
BRANCH   7  23
ATOM     23  C   UNL     1     -13.747   7.472  21.923  0.00  0.00    +0.119 C 
BRANCH  23  25
ATOM     25  C   UNL     1     -13.160   7.599  20.543  0.00  0.00    -0.033 A 
ATOM     26  C   UNL     1     -11.890   7.087  20.275  0.00  0.00    +0.005 A 
ATOM     27  C   UNL     1     -13.886   8.227  19.531  0.00  0.00    +0.005 A 
ATOM     28  C   UNL     1     -11.346   7.205  18.996  0.00  0.00    +0.000 A 
ATOM     29  C   UNL     1     -13.343   8.344  18.252  0.00  0.00    +0.000 A 
ATOM     30  C   UNL     1     -12.073   7.833  17.984  0.00  0.00    +0.000 A 
ENDBRANCH  23  25
ENDBRANCH   7  23
ENDBRANCH  22   7
ENDBRANCH  20  22
ENDBRANCH  12  17
BRANCH  12   8
ATOM      1  O   UNL     1     -17.107  -0.130  25.196  0.00  0.00    -0.376 OA
ATOM      8  C   UNL     1     -17.752   1.721  26.041  0.00  0.00    +0.072 C 
ATOM     10  C   UNL     1     -18.396   0.447  25.505  0.00  0.00    +0.184 C 
ATOM     11  C   UNL     1     -16.438   1.086  25.601  0.00  0.00    +0.184 C 
BRANCH   8   4
ATOM      4  N   UNL     1     -17.819   1.702  27.505  0.00  0.00    -0.304 NA
ATOM     31  H   UNL     1     -18.226   0.860  27.910  0.00  0.00    +0.123 HD
BRANCH   4   9
ATOM      3  O   UNL     1     -14.125   1.783  32.420  0.00  0.00    -0.276 OA
ATOM      5  N   UNL     1     -14.750   2.499  30.300  0.00  0.00    -0.302 N 
ATOM      9  C   UNL     1     -16.484   1.934  28.051  0.00  0.00    +0.057 C 
ATOM     13  C   UNL     1     -16.150   0.864  29.098  0.00  0.00    +0.037 C 
ATOM     14  C   UNL     1     -16.405   3.334  28.672  0.00  0.00    +0.037 C 
ATOM     15  C   UNL     1     -14.798   1.142  29.750  0.00  0.00    +0.109 C 
ATOM     16  C   UNL     1     -15.046   3.564  29.334  0.00  0.00    +0.109 C 
ATOM     18  C   UNL     1     -14.405   2.694  31.637  0.00  0.00    +0.212 C 
ATOM     21  C   UNL     1     -14.382   4.120  32.127  0.00  0.00    +0.109 C 
ENDBRANCH   4   9
ENDBRANCH   8   4
ENDBRANCH  12   8
TORSDOF 8
ENDMDL
MODEL 8
REMARK VINA RESULT:      -5.8     27.348     30.671
REMARK  Name = 56775614
REMARK  10 active torsions:
REMARK  status: ('A' for Active; 'I' for Inactive)
REMARK    1  A    between atoms: N_4  and  C_8
REMARK    2  A    between atoms: N_4  and  C_9
REMARK    3  A    between atoms: N_7  and  C_22
REMARK    4  A    between atoms: N_7  and  C_23
REMARK    5  A    between atoms: N_7  and  C_24
REMARK    6  A    between atoms: C_8  and  C_12
REMARK    7  A    between atoms: C_12  and  C_17
REMARK    8  A    between atoms: C_18  and  C_21
REMARK    9  A    between atoms: C_20  and  C_22
REMARK   10  A    between atoms: C_23  and  C_25
REMARK                            x       y       z     vdW  Elec       q    Type
REMARK                         _______ _______ _______ _____ _____    ______ ____
ROOT
ATOM     12  C   UNL     1      -8.701 -12.137  17.043  0.00  0.00    +0.085 C 
ENDROOT
BRANCH  12  17
ATOM      2  O   UNL     1      -9.635  -9.344  14.951  0.00  0.00    -0.358 OA
ATOM      6  N   UNL     1      -9.421  -9.935  16.190  0.00  0.00    -0.083 NA
ATOM     17  C   UNL     1      -9.030 -11.183  15.914  0.00  0.00    +0.086 A 
ATOM     19  C   UNL     1      -8.980 -11.433  14.533  0.00  0.00    +0.072 A 
ATOM     20  C   UNL     1      -9.370 -10.246  13.972  0.00  0.00    +0.151 A 
BRANCH  20  22
ATOM     22  C   UNL     1      -9.546  -9.784  12.590  0.00  0.00    +0.161 C 
BRANCH  22   7
ATOM      7  N   UNL     1      -8.361 -10.017  11.745  0.00  0.00    -0.294 NA
ATOM     24  C   UNL     1      -8.664  -9.684  10.357  0.00  0.00    +0.105 C 
BRANCH   7  23
ATOM     23  C   UNL     1      -7.234  -9.231  12.235  0.00  0.00    +0.119 C 
BRANCH  23  25
ATOM     25  C   UNL     1      -5.959  -9.566  11.508  0.00  0.00    -0.033 A 
ATOM     26  C   UNL     1      -5.487 -10.879  11.498  0.00  0.00    +0.005 A 
ATOM     27  C   UNL     1      -5.249  -8.565  10.846  0.00  0.00    +0.005 A 
ATOM     28  C   UNL     1      -4.305 -11.189  10.826  0.00  0.00    +0.000 A 
ATOM     29  C   UNL     1      -4.068  -8.875  10.173  0.00  0.00    +0.000 A 
ATOM     30  C   UNL     1      -3.596 -10.187  10.163  0.00  0.00    +0.000 A 
ENDBRANCH  23  25
ENDBRANCH   7  23
ENDBRANCH  22   7
ENDBRANCH  20  22
ENDBRANCH  12  17
BRANCH  12   8
ATOM      1  O   UNL     1      -7.091 -11.890  19.968  0.00  0.00    -0.376 OA
ATOM      8  C   UNL     1      -7.638 -11.566  17.931  0.00  0.00    +0.072 C 
ATOM     10  C   UNL     1      -8.034 -11.021  19.299  0.00  0.00    +0.184 C 
ATOM     11  C   UNL     1      -6.738 -12.515  18.714  0.00  0.00    +0.184 C 
BRANCH   8   4
ATOM      4  N   UNL     1      -6.799 -10.573  17.252  0.00  0.00    -0.304 NA
ATOM     31  H   UNL     1      -6.607  -9.728  17.790  0.00  0.00    +0.123 HD
BRANCH   4   9
ATOM      3  O   UNL     1      -0.934  -9.912  15.533  0.00  0.00    -0.276 OA
ATOM      5  N   UNL     1      -2.962 -11.043  15.544  0.00  0.00    -0.302 N 
ATOM      9  C   UNL     1      -5.551 -11.203  16.832  0.00  0.00    +0.057 C 
ATOM     13  C   UNL     1      -4.359 -10.511  17.505  0.00  0.00    +0.037 C 
ATOM     14  C   UNL     1      -5.416 -11.139  15.305  0.00  0.00    +0.037 C 
ATOM     15  C   UNL     1      -3.038 -11.092  17.006  0.00  0.00    +0.109 C 
ATOM     16  C   UNL     1      -4.072 -11.707  14.849  0.00  0.00    +0.109 C 
ATOM     18  C   UNL     1      -1.873 -10.431  14.926  0.00  0.00    +0.212 C 
ATOM     21  C   UNL     1      -1.871 -10.420  13.418  0.00  0.00    +0.109 C 
ENDBRANCH   4   9
ENDBRANCH   8   4
ENDBRANCH  12   8
TORSDOF 8
ENDMDL
MODEL 9
REMARK VINA RESULT:      -5.7     30.581     34.174
REMARK  Name = 56775614
REMARK  10 active torsions:
REMARK  status: ('A' for Active; 'I' for Inactive)
REMARK    1  A    between atoms: N_4  and  C_8
REMARK    2  A    between atoms: N_4  and  C_9
REMARK    3  A    between atoms: N_7  and  C_22
REMARK    4  A    between atoms: N_7  and  C_23
REMARK    5  A    between atoms: N_7  and  C_24
REMARK    6  A    between atoms: C_8  and  C_12
REMARK    7  A    between atoms: C_12  and  C_17
REMARK    8  A    between atoms: C_18  and  C_21
REMARK    9  A    between atoms: C_20  and  C_22
REMARK   10  A    between atoms: C_23  and  C_25
REMARK                            x       y       z     vdW  Elec       q    Type
REMARK                         _______ _______ _______ _____ _____    ______ ____
ROOT
ATOM     12  C   UNL     1     -14.887   7.141  33.208  0.00  0.00    +0.085 C 
ENDROOT
BRANCH  12  17
ATOM      2  O   UNL     1     -11.700   8.601  32.331  0.00  0.00    -0.358 OA
ATOM      6  N   UNL     1     -12.686   7.629  32.202  0.00  0.00    -0.083 NA
ATOM     17  C   UNL     1     -13.636   7.983  33.073  0.00  0.00    +0.086 A 
ATOM     19  C   UNL     1     -13.309   9.158  33.771  0.00  0.00    +0.072 A 
ATOM     20  C   UNL     1     -12.083   9.505  33.268  0.00  0.00    +0.151 A 
BRANCH  20  22
ATOM     22  C   UNL     1     -11.152  10.609  33.531  0.00  0.00    +0.161 C 
BRANCH  22   7
ATOM      7  N   UNL     1     -10.019  10.222  34.390  0.00  0.00    -0.294 NA
ATOM     24  C   UNL     1      -8.767  10.692  33.809  0.00  0.00    +0.105 C 
BRANCH   7  23
ATOM     23  C   UNL     1     -10.203  10.759  35.734  0.00  0.00    +0.119 C 
BRANCH  23  25
ATOM     25  C   UNL     1     -10.144   9.679  36.781  0.00  0.00    -0.033 A 
ATOM     26  C   UNL     1     -10.805   8.469  36.573  0.00  0.00    +0.005 A 
ATOM     27  C   UNL     1      -9.429   9.889  37.960  0.00  0.00    +0.005 A 
ATOM     28  C   UNL     1     -10.751   7.469  37.545  0.00  0.00    +0.000 A 
ATOM     29  C   UNL     1      -9.374   8.890  38.931  0.00  0.00    +0.000 A 
ATOM     30  C   UNL     1     -10.035   7.679  38.723  0.00  0.00    +0.000 A 
ENDBRANCH  23  25
ENDBRANCH   7  23
ENDBRANCH  22   7
ENDBRANCH  20  22
ENDBRANCH  12  17
BRANCH  12   8
ATOM      1  O   UNL     1     -14.845   4.856  35.655  0.00  0.00    -0.376 OA
ATOM      8  C   UNL     1     -14.560   5.785  33.754  0.00  0.00    +0.072 C 
ATOM     10  C   UNL     1     -13.810   5.685  35.078  0.00  0.00    +0.184 C 
ATOM     11  C   UNL     1     -15.650   4.989  34.461  0.00  0.00    +0.184 C 
BRANCH   8   4
ATOM      4  N   UNL     1     -13.902   4.917  32.773  0.00  0.00    -0.304 NA
ATOM     31  H   UNL     1     -12.995   4.549  33.059  0.00  0.00    +0.123 HD
BRANCH   4   9
ATOM      3  O   UNL     1     -14.827  -0.270  29.605  0.00  0.00    -0.276 OA
ATOM      5  N   UNL     1     -15.569   1.678  30.630  0.00  0.00    -0.302 N 
ATOM      9  C   UNL     1     -14.804   3.825  32.416  0.00  0.00    +0.057 C 
ATOM     13  C   UNL     1     -14.035   2.498  32.378  0.00  0.00    +0.037 C 
ATOM     14  C   UNL     1     -15.458   4.105  31.057  0.00  0.00    +0.037 C 
ATOM     15  C   UNL     1     -14.938   1.358  31.913  0.00  0.00    +0.109 C 
ATOM     16  C   UNL     1     -16.333   2.931  30.617  0.00  0.00    +0.109 C 
ATOM     18  C   UNL     1     -15.445   0.796  29.557  0.00  0.00    +0.212 C 
ATOM     21  C   UNL     1     -16.121   1.199  28.271  0.00  0.00    +0.109 C 
ENDBRANCH   4   9
ENDBRANCH   8   4
ENDBRANCH  12   8
TORSDOF 8
ENDMDL
MODEL 10
REMARK VINA RESULT:      -5.7     28.773     32.285
REMARK  Name = 56775614
REMARK  10 active torsions:
REMARK  status: ('A' for Active; 'I' for Inactive)
REMARK    1  A    between atoms: N_4  and  C_8
REMARK    2  A    between atoms: N_4  and  C_9
REMARK    3  A    between atoms: N_7  and  C_22
REMARK    4  A    between atoms: N_7  and  C_23
REMARK    5  A    between atoms: N_7  and  C_24
REMARK    6  A    between atoms: C_8  and  C_12
REMARK    7  A    between atoms: C_12  and  C_17
REMARK    8  A    between atoms: C_18  and  C_21
REMARK    9  A    between atoms: C_20  and  C_22
REMARK   10  A    between atoms: C_23  and  C_25
REMARK                            x       y       z     vdW  Elec       q    Type
REMARK                         _______ _______ _______ _____ _____    ______ ____
ROOT
ATOM     12  C   UNL     1     -11.059 -10.499  16.896  0.00  0.00    +0.085 C 
ENDROOT
BRANCH  12  17
ATOM      2  O   UNL     1     -10.339  -7.357  15.265  0.00  0.00    -0.358 OA
ATOM      6  N   UNL     1      -9.987  -8.633  15.685  0.00  0.00    -0.083 NA
ATOM     17  C   UNL     1     -11.074  -9.107  16.300  0.00  0.00    +0.086 A 
ATOM     19  C   UNL     1     -12.133  -8.183  16.298  0.00  0.00    +0.072 A 
ATOM     20  C   UNL     1     -11.620  -7.100  15.635  0.00  0.00    +0.151 A 
BRANCH  20  22
ATOM     22  C   UNL     1     -12.158  -5.785  15.267  0.00  0.00    +0.161 C 
BRANCH  22   7
ATOM      7  N   UNL     1     -13.006  -5.822  14.063  0.00  0.00    -0.294 NA
ATOM     24  C   UNL     1     -14.369  -6.199  14.423  0.00  0.00    +0.105 C 
BRANCH   7  23
ATOM     23  C   UNL     1     -12.984  -4.525  13.395  0.00  0.00    +0.119 C 
BRANCH  23  25
ATOM     25  C   UNL     1     -12.426  -4.623  12.000  0.00  0.00    -0.033 A 
ATOM     26  C   UNL     1     -12.313  -5.867  11.380  0.00  0.00    +0.005 A 
ATOM     27  C   UNL     1     -12.019  -3.470  11.329  0.00  0.00    +0.005 A 
ATOM     28  C   UNL     1     -11.795  -5.958  10.088  0.00  0.00    +0.000 A 
ATOM     29  C   UNL     1     -11.501  -3.560  10.037  0.00  0.00    +0.000 A 
ATOM     30  C   UNL     1     -11.389  -4.804   9.417  0.00  0.00    +0.000 A 
ENDBRANCH  23  25
ENDBRANCH   7  23
ENDBRANCH  22   7
ENDBRANCH  20  22
ENDBRANCH  12  17
BRANCH  12   8
ATOM      1  O   UNL     1     -11.422 -11.097  20.170  0.00  0.00    -0.376 OA
ATOM      8  C   UNL     1     -10.577 -10.467  18.314  0.00  0.00    +0.072 C 
ATOM     10  C   UNL     1     -11.487  -9.882  19.388  0.00  0.00    +0.184 C 
ATOM     11  C   UNL     1     -10.634 -11.744  19.145  0.00  0.00    +0.184 C 
BRANCH   8   4
ATOM      4  N   UNL     1      -9.243  -9.874  18.451  0.00  0.00    -0.304 NA
ATOM     31  H   UNL     1      -9.052  -9.443  19.355  0.00  0.00    +0.123 HD
BRANCH   4   9
ATOM      3  O   UNL     1      -3.442 -11.815  19.070  0.00  0.00    -0.276 OA
ATOM      5  N   UNL     1      -5.457 -11.676  17.922  0.00  0.00    -0.302 N 
ATOM      9  C   UNL     1      -8.233 -10.884  18.146  0.00  0.00    +0.057 C 
ATOM     13  C   UNL     1      -7.373 -11.160  19.386  0.00  0.00    +0.037 C 
ATOM     14  C   UNL     1      -7.356 -10.415  16.978  0.00  0.00    +0.037 C 
ATOM     15  C   UNL     1      -6.250 -12.142  19.062  0.00  0.00    +0.109 C 
ATOM     16  C   UNL     1      -6.231 -11.413  16.703  0.00  0.00    +0.109 C 
ATOM     18  C   UNL     1      -4.074 -11.552  18.043  0.00  0.00    +0.212 C 
ATOM     21  C   UNL     1      -3.331 -11.063  16.826  0.00  0.00    +0.109 C 
ENDBRANCH   4   9
ENDBRANCH   8   4
ENDBRANCH  12   8
TORSDOF 8
ENDMDL
