MODEL 1
REMARK VINA RESULT:      -8.5      0.000      0.000
REMARK  Name = 26761985
REMARK  3 active torsions:
REMARK  status: ('A' for Active; 'I' for Inactive)
REMARK    1  A    between atoms: N_6  and  C_11
REMARK    2  A    between atoms: C_17  and  C_23
REMARK    3  A    between atoms: C_25  and  C_26
REMARK                            x       y       z     vdW  Elec       q    Type
REMARK                         _______ _______ _______ _____ _____    ______ ____
ROOT
ATOM      3  O   UNL     1      12.283   8.337  22.098  0.00  0.00    -0.253 OA
ATOM      5  N   UNL     1      13.046   9.076  20.024  0.00  0.00    -0.268 N 
ATOM      6  N   UNL     1      12.669  10.583  21.810  0.00  0.00    -0.296 N 
ATOM      7  N   UNL     1      13.267  10.652  16.638  0.00  0.00    -0.347 N 
ATOM      8  N   UNL     1      12.524   8.678  15.904  0.00  0.00    -0.240 NA
ATOM     17  C   UNL     1      13.177   7.669  19.506  0.00  0.00    +0.172 C 
ATOM     18  C   UNL     1      12.457   7.485  18.137  0.00  0.00    +0.089 C 
ATOM     19  C   UNL     1      13.472  10.196  19.135  0.00  0.00    +0.165 C 
ATOM     20  C   UNL     1      12.636   9.265  21.364  0.00  0.00    +0.303 C 
ATOM     21  C   UNL     1      13.158   9.851  17.735  0.00  0.00    +0.056 A 
ATOM     22  C   UNL     1      12.704   8.648  17.258  0.00  0.00    +0.066 A 
ATOM     24  C   UNL     1      12.873   9.901  15.559  0.00  0.00    +0.197 A 
ATOM     32  H   UNL     1      13.142  11.289  21.261  0.00  0.00    +0.151 HD
ATOM     33  H   UNL     1      13.578  11.615  16.618  0.00  0.00    +0.167 HD
ENDROOT
BRANCH   6  11
ATOM     11  C   UNL     1      12.295  10.952  23.157  0.00  0.00    +0.074 C 
ATOM     12  C   UNL     1      13.346  11.871  23.788  0.00  0.00    +0.022 C 
ATOM     13  C   UNL     1      10.905  11.596  23.186  0.00  0.00    +0.022 C 
ATOM     14  C   UNL     1      13.334  13.275  23.183  0.00  0.00    +0.002 C 
ATOM     15  C   UNL     1      10.897  12.999  22.582  0.00  0.00    +0.002 C 
ATOM     16  C   UNL     1      11.943  13.899  23.234  0.00  0.00    +0.000 C 
ENDBRANCH   6  11
BRANCH  17  23
ATOM      4  O   UNL     1      15.027   6.312  18.633  0.00  0.00    -0.336 OA
ATOM      9  N   UNL     1      15.573   7.548  20.420  0.00  0.00    -0.190 NA
ATOM     10  N   UNL     1      16.377   6.042  18.897  0.00  0.00    -0.056 NA
ATOM     23  C   UNL     1      14.632   7.207  19.575  0.00  0.00    +0.249 A 
ATOM     25  C   UNL     1      16.624   6.809  19.964  0.00  0.00    +0.202 A 
BRANCH  25  26
ATOM      1 CL   UNL     1      21.316   4.764  20.522  0.00  0.00    -0.081 Cl
ATOM      2  F   UNL     1      21.611   7.018  22.424  0.00  0.00    -0.204 F 
ATOM     26  C   UNL     1      17.910   6.858  20.596  0.00  0.00    +0.024 A 
ATOM     27  C   UNL     1      18.876   5.900  20.289  0.00  0.00    +0.034 A 
ATOM     28  C   UNL     1      18.196   7.867  21.517  0.00  0.00    +0.014 A 
ATOM     29  C   UNL     1      20.127   5.950  20.904  0.00  0.00    +0.077 A 
ATOM     30  C   UNL     1      19.447   7.917  22.131  0.00  0.00    +0.040 A 
ATOM     31  C   UNL     1      20.413   6.958  21.825  0.00  0.00    +0.142 A 
ENDBRANCH  25  26
ENDBRANCH  17  23
TORSDOF 3
ENDMDL
MODEL 2
REMARK VINA RESULT:      -7.3     27.828     29.444
REMARK  Name = 26761985
REMARK  3 active torsions:
REMARK  status: ('A' for Active; 'I' for Inactive)
REMARK    1  A    between atoms: N_6  and  C_11
REMARK    2  A    between atoms: C_17  and  C_23
REMARK    3  A    between atoms: C_25  and  C_26
REMARK                            x       y       z     vdW  Elec       q    Type
REMARK                         _______ _______ _______ _____ _____    ______ ____
ROOT
ATOM      3  O   UNL     1      -2.639 -10.333  16.257  0.00  0.00    -0.253 OA
ATOM      5  N   UNL     1      -3.220 -12.071  14.819  0.00  0.00    -0.268 N 
ATOM      6  N   UNL     1      -4.629 -11.426  16.608  0.00  0.00    -0.296 N 
ATOM      7  N   UNL     1      -3.929 -15.453  13.383  0.00  0.00    -0.347 N 
ATOM      8  N   UNL     1      -1.760 -15.446  12.849  0.00  0.00    -0.240 NA
ATOM     17  C   UNL     1      -2.028 -11.818  13.938  0.00  0.00    +0.172 C 
ATOM     18  C   UNL     1      -1.209 -13.119  13.681  0.00  0.00    +0.089 C 
ATOM     19  C   UNL     1      -4.182 -13.138  14.413  0.00  0.00    +0.165 C 
ATOM     20  C   UNL     1      -3.436 -11.215  15.923  0.00  0.00    +0.303 C 
ATOM     21  C   UNL     1      -3.442 -14.241  13.773  0.00  0.00    +0.056 A 
ATOM     22  C   UNL     1      -2.113 -14.262  13.432  0.00  0.00    +0.066 A 
ATOM     24  C   UNL     1      -2.878 -16.143  12.832  0.00  0.00    +0.197 A 
ATOM     32  H   UNL     1      -5.346 -12.013  16.203  0.00  0.00    +0.151 HD
ATOM     33  H   UNL     1      -4.881 -15.783  13.477  0.00  0.00    +0.167 HD
ENDROOT
BRANCH   6  11
ATOM     11  C   UNL     1      -5.013 -10.630  17.753  0.00  0.00    +0.074 C 
ATOM     12  C   UNL     1      -6.301  -9.848  17.473  0.00  0.00    +0.022 C 
ATOM     13  C   UNL     1      -5.153 -11.499  19.007  0.00  0.00    +0.022 C 
ATOM     14  C   UNL     1      -7.535 -10.750  17.429  0.00  0.00    +0.002 C 
ATOM     15  C   UNL     1      -6.388 -12.399  18.961  0.00  0.00    +0.002 C 
ATOM     16  C   UNL     1      -7.658 -11.597  18.693  0.00  0.00    +0.000 C 
ENDBRANCH   6  11
BRANCH  17  23
ATOM      4  O   UNL     1      -1.463 -10.270  12.118  0.00  0.00    -0.336 OA
ATOM      9  N   UNL     1      -3.600 -10.942  12.108  0.00  0.00    -0.190 NA
ATOM     10  N   UNL     1      -2.066  -9.638  11.023  0.00  0.00    -0.056 NA
ATOM     23  C   UNL     1      -2.435 -11.018  12.701  0.00  0.00    +0.249 A 
ATOM     25  C   UNL     1      -3.325 -10.084  11.084  0.00  0.00    +0.202 A 
BRANCH  25  26
ATOM      1 CL   UNL     1      -5.402 -10.658   6.409  0.00  0.00    -0.081 Cl
ATOM      2  F   UNL     1      -7.229  -8.558   7.426  0.00  0.00    -0.204 F 
ATOM     26  C   UNL     1      -4.329  -9.693  10.138  0.00  0.00    +0.024 A 
ATOM     27  C   UNL     1      -4.374 -10.294   8.880  0.00  0.00    +0.034 A 
ATOM     28  C   UNL     1      -5.263  -8.713  10.477  0.00  0.00    +0.014 A 
ATOM     29  C   UNL     1      -5.351  -9.914   7.960  0.00  0.00    +0.077 A 
ATOM     30  C   UNL     1      -6.240  -8.333   9.558  0.00  0.00    +0.040 A 
ATOM     31  C   UNL     1      -6.284  -8.934   8.299  0.00  0.00    +0.142 A 
ENDBRANCH  25  26
ENDBRANCH  17  23
TORSDOF 3
ENDMDL
MODEL 3
REMARK VINA RESULT:      -7.2     13.818     16.577
REMARK  Name = 26761985
REMARK  3 active torsions:
REMARK  status: ('A' for Active; 'I' for Inactive)
REMARK    1  A    between atoms: N_6  and  C_11
REMARK    2  A    between atoms: C_17  and  C_23
REMARK    3  A    between atoms: C_25  and  C_26
REMARK                            x       y       z     vdW  Elec       q    Type
REMARK                         _______ _______ _______ _____ _____    ______ ____
ROOT
ATOM      3  O   UNL     1       9.295   7.855   3.475  0.00  0.00    -0.253 OA
ATOM      5  N   UNL     1      10.000   6.644   5.337  0.00  0.00    -0.268 N 
ATOM      6  N   UNL     1      10.210   5.773   3.145  0.00  0.00    -0.296 N 
ATOM      7  N   UNL     1      10.262   4.112   8.080  0.00  0.00    -0.347 N 
ATOM      8  N   UNL     1       8.966   5.530   9.222  0.00  0.00    -0.240 NA
ATOM     17  C   UNL     1       9.713   7.792   6.265  0.00  0.00    +0.172 C 
ATOM     18  C   UNL     1       8.830   7.356   7.473  0.00  0.00    +0.089 C 
ATOM     19  C   UNL     1      10.603   5.406   5.913  0.00  0.00    +0.165 C 
ATOM     20  C   UNL     1       9.794   6.830   3.951  0.00  0.00    +0.303 C 
ATOM     21  C   UNL     1      10.067   5.192   7.271  0.00  0.00    +0.056 A 
ATOM     22  C   UNL     1       9.274   6.046   7.995  0.00  0.00    +0.066 A 
ATOM     24  C   UNL     1       9.578   4.363   9.244  0.00  0.00    +0.197 A 
ATOM     32  H   UNL     1      10.787   5.040   3.535  0.00  0.00    +0.151 HD
ATOM     33  H   UNL     1      10.805   3.285   7.869  0.00  0.00    +0.167 HD
ENDROOT
BRANCH   6  11
ATOM     11  C   UNL     1      10.085   5.805   1.705  0.00  0.00    +0.074 C 
ATOM     12  C   UNL     1      11.082   6.791   1.088  0.00  0.00    +0.022 C 
ATOM     13  C   UNL     1      10.247   4.404   1.107  0.00  0.00    +0.022 C 
ATOM     14  C   UNL     1      12.523   6.284   1.156  0.00  0.00    +0.002 C 
ATOM     15  C   UNL     1      11.688   3.901   1.176  0.00  0.00    +0.002 C 
ATOM     16  C   UNL     1      12.661   4.892   0.545  0.00  0.00    +0.000 C 
ENDBRANCH   6  11
BRANCH  17  23
ATOM      4  O   UNL     1      10.918   9.472   7.590  0.00  0.00    -0.336 OA
ATOM      9  N   UNL     1      12.193   8.426   6.074  0.00  0.00    -0.190 NA
ATOM     10  N   UNL     1      12.201  10.019   7.716  0.00  0.00    -0.056 NA
ATOM     23  C   UNL     1      11.000   8.543   6.602  0.00  0.00    +0.249 A 
ATOM     25  C   UNL     1      12.895   9.351   6.789  0.00  0.00    +0.202 A 
BRANCH  25  26
ATOM      1 CL   UNL     1      16.846  12.652   6.765  0.00  0.00    -0.081 Cl
ATOM      2  F   UNL     1      18.312  10.235   5.875  0.00  0.00    -0.204 F 
ATOM     26  C   UNL     1      14.291   9.583   6.554  0.00  0.00    +0.024 A 
ATOM     27  C   UNL     1      14.829  10.855   6.750  0.00  0.00    +0.034 A 
ATOM     28  C   UNL     1      15.111   8.536   6.131  0.00  0.00    +0.014 A 
ATOM     29  C   UNL     1      16.187  11.080   6.522  0.00  0.00    +0.077 A 
ATOM     30  C   UNL     1      16.468   8.761   5.903  0.00  0.00    +0.040 A 
ATOM     31  C   UNL     1      17.006  10.034   6.099  0.00  0.00    +0.142 A 
ENDBRANCH  25  26
ENDBRANCH  17  23
TORSDOF 3
ENDMDL
MODEL 4
REMARK VINA RESULT:      -7.2     28.484     30.139
REMARK  Name = 26761985
REMARK  3 active torsions:
REMARK  status: ('A' for Active; 'I' for Inactive)
REMARK    1  A    between atoms: N_6  and  C_11
REMARK    2  A    between atoms: C_17  and  C_23
REMARK    3  A    between atoms: C_25  and  C_26
REMARK                            x       y       z     vdW  Elec       q    Type
REMARK                         _______ _______ _______ _____ _____    ______ ____
ROOT
ATOM      3  O   UNL     1      -8.942 -12.562  15.837  0.00  0.00    -0.253 OA
ATOM      5  N   UNL     1      -9.159 -10.245  15.733  0.00  0.00    -0.268 N 
ATOM      6  N   UNL     1      -7.970 -11.296  17.489  0.00  0.00    -0.296 N 
ATOM      7  N   UNL     1     -10.168  -6.703  16.400  0.00  0.00    -0.347 N 
ATOM      8  N   UNL     1     -11.847  -7.141  14.993  0.00  0.00    -0.240 NA
ATOM     17  C   UNL     1      -9.842 -10.310  14.395  0.00  0.00    +0.172 C 
ATOM     18  C   UNL     1     -11.177  -9.506  14.384  0.00  0.00    +0.089 C 
ATOM     19  C   UNL     1      -8.881  -8.900  16.317  0.00  0.00    +0.165 C 
ATOM     20  C   UNL     1      -8.711 -11.450  16.321  0.00  0.00    +0.303 C 
ATOM     21  C   UNL     1      -9.976  -7.978  15.958  0.00  0.00    +0.056 A 
ATOM     22  C   UNL     1     -11.016  -8.220  15.096  0.00  0.00    +0.066 A 
ATOM     24  C   UNL     1     -11.307  -6.241  15.791  0.00  0.00    +0.197 A 
ATOM     32  H   UNL     1      -7.631 -10.381  17.755  0.00  0.00    +0.151 HD
ATOM     33  H   UNL     1      -9.585  -6.192  17.050  0.00  0.00    +0.167 HD
ENDROOT
BRANCH   6  11
ATOM     11  C   UNL     1      -7.424 -12.424  18.211  0.00  0.00    +0.074 C 
ATOM     12  C   UNL     1      -6.144 -12.937  17.544  0.00  0.00    +0.022 C 
ATOM     13  C   UNL     1      -7.182 -12.072  19.682  0.00  0.00    +0.022 C 
ATOM     14  C   UNL     1      -4.964 -11.984  17.734  0.00  0.00    +0.002 C 
ATOM     15  C   UNL     1      -6.001 -11.120  19.869  0.00  0.00    +0.002 C 
ATOM     16  C   UNL     1      -4.735 -11.657  19.207  0.00  0.00    +0.000 C 
ENDBRANCH   6  11
BRANCH  17  23
ATOM      4  O   UNL     1      -9.389  -9.651  12.073  0.00  0.00    -0.336 OA
ATOM      9  N   UNL     1      -7.544 -10.015  13.291  0.00  0.00    -0.190 NA
ATOM     10  N   UNL     1      -8.304  -9.417  11.218  0.00  0.00    -0.056 NA
ATOM     23  C   UNL     1      -8.853  -9.998  13.273  0.00  0.00    +0.249 A 
ATOM     25  C   UNL     1      -7.252  -9.652  12.009  0.00  0.00    +0.202 A 
BRANCH  25  26
ATOM      1 CL   UNL     1      -2.317 -11.031  12.503  0.00  0.00    -0.081 Cl
ATOM      2  F   UNL     1      -2.008  -9.176  10.212  0.00  0.00    -0.204 F 
ATOM     26  C   UNL     1      -5.899  -9.532  11.550  0.00  0.00    +0.024 A 
ATOM     27  C   UNL     1      -4.883 -10.254  12.175  0.00  0.00    +0.034 A 
ATOM     28  C   UNL     1      -5.600  -8.694  10.475  0.00  0.00    +0.014 A 
ATOM     29  C   UNL     1      -3.567 -10.137  11.727  0.00  0.00    +0.077 A 
ATOM     30  C   UNL     1      -4.285  -8.577  10.027  0.00  0.00    +0.040 A 
ATOM     31  C   UNL     1      -3.268  -9.299  10.653  0.00  0.00    +0.142 A 
ENDBRANCH  25  26
ENDBRANCH  17  23
TORSDOF 3
ENDMDL
MODEL 5
REMARK VINA RESULT:      -7.1     14.775     18.451
REMARK  Name = 26761985
REMARK  3 active torsions:
REMARK  status: ('A' for Active; 'I' for Inactive)
REMARK    1  A    between atoms: N_6  and  C_11
REMARK    2  A    between atoms: C_17  and  C_23
REMARK    3  A    between atoms: C_25  and  C_26
REMARK                            x       y       z     vdW  Elec       q    Type
REMARK                         _______ _______ _______ _____ _____    ______ ____
ROOT
ATOM      3  O   UNL     1      10.735   9.624   4.082  0.00  0.00    -0.253 OA
ATOM      5  N   UNL     1      10.028   7.850   5.417  0.00  0.00    -0.268 N 
ATOM      6  N   UNL     1       8.534   9.557   4.739  0.00  0.00    -0.296 N 
ATOM      7  N   UNL     1       8.861   5.778   8.306  0.00  0.00    -0.347 N 
ATOM      8  N   UNL     1      11.040   5.497   8.710  0.00  0.00    -0.240 NA
ATOM     17  C   UNL     1      11.362   7.163   5.313  0.00  0.00    +0.172 C 
ATOM     18  C   UNL     1      11.927   6.777   6.713  0.00  0.00    +0.089 C 
ATOM     19  C   UNL     1       8.938   7.161   6.169  0.00  0.00    +0.165 C 
ATOM     20  C   UNL     1       9.832   9.055   4.704  0.00  0.00    +0.303 C 
ATOM     21  C   UNL     1       9.523   6.424   7.305  0.00  0.00    +0.056 A 
ATOM     22  C   UNL     1      10.855   6.235   7.575  0.00  0.00    +0.066 A 
ATOM     24  C   UNL     1       9.817   5.236   9.127  0.00  0.00    +0.197 A 
ATOM     32  H   UNL     1       7.779   8.979   5.084  0.00  0.00    +0.151 HD
ATOM     33  H   UNL     1       7.858   5.708   8.424  0.00  0.00    +0.167 HD
ENDROOT
BRANCH   6  11
ATOM     11  C   UNL     1       8.158  10.773   4.052  0.00  0.00    +0.074 C 
ATOM     12  C   UNL     1       7.958  10.520   2.555  0.00  0.00    +0.022 C 
ATOM     13  C   UNL     1       6.909  11.397   4.682  0.00  0.00    +0.022 C 
ATOM     14  C   UNL     1       6.688   9.720   2.261  0.00  0.00    +0.002 C 
ATOM     15  C   UNL     1       5.641  10.596   4.386  0.00  0.00    +0.002 C 
ATOM     16  C   UNL     1       5.457  10.367   2.889  0.00  0.00    +0.000 C 
ENDBRANCH   6  11
BRANCH  17  23
ATOM      4  O   UNL     1      10.724   4.885   4.657  0.00  0.00    -0.336 OA
ATOM      9  N   UNL     1      11.755   6.041   3.039  0.00  0.00    -0.190 NA
ATOM     10  N   UNL     1      10.796   4.028   3.551  0.00  0.00    -0.056 NA
ATOM     23  C   UNL     1      11.311   6.048   4.270  0.00  0.00    +0.249 A 
ATOM     25  C   UNL     1      11.417   4.782   2.638  0.00  0.00    +0.202 A 
BRANCH  25  26
ATOM      1 CL   UNL     1      10.054   4.478  -2.317  0.00  0.00    -0.081 Cl
ATOM      2  F   UNL     1      12.578   2.934  -2.480  0.00  0.00    -0.204 F 
ATOM     26  C   UNL     1      11.712   4.307   1.317  0.00  0.00    +0.024 A 
ATOM     27  C   UNL     1      10.843   4.589   0.264  0.00  0.00    +0.034 A 
ATOM     28  C   UNL     1      12.871   3.565   1.086  0.00  0.00    +0.014 A 
ATOM     29  C   UNL     1      11.130   4.127  -1.020  0.00  0.00    +0.077 A 
ATOM     30  C   UNL     1      13.159   3.104  -0.198  0.00  0.00    +0.040 A 
ATOM     31  C   UNL     1      12.288   3.385  -1.252  0.00  0.00    +0.142 A 
ENDBRANCH  25  26
ENDBRANCH  17  23
TORSDOF 3
ENDMDL
MODEL 6
REMARK VINA RESULT:      -6.9     28.555     30.811
REMARK  Name = 26761985
REMARK  3 active torsions:
REMARK  status: ('A' for Active; 'I' for Inactive)
REMARK    1  A    between atoms: N_6  and  C_11
REMARK    2  A    between atoms: C_17  and  C_23
REMARK    3  A    between atoms: C_25  and  C_26
REMARK                            x       y       z     vdW  Elec       q    Type
REMARK                         _______ _______ _______ _____ _____    ______ ____
ROOT
ATOM      3  O   UNL     1      -7.108 -12.290  12.842  0.00  0.00    -0.253 OA
ATOM      5  N   UNL     1      -6.012 -11.600  14.779  0.00  0.00    -0.268 N 
ATOM      6  N   UNL     1      -5.071 -11.247  12.636  0.00  0.00    -0.296 N 
ATOM      7  N   UNL     1      -3.607 -11.318  17.633  0.00  0.00    -0.347 N 
ATOM      8  N   UNL     1      -4.991 -12.738  18.661  0.00  0.00    -0.240 NA
ATOM     17  C   UNL     1      -7.177 -11.991  15.648  0.00  0.00    +0.172 C 
ATOM     18  C   UNL     1      -6.737 -12.900  16.835  0.00  0.00    +0.089 C 
ATOM     19  C   UNL     1      -4.834 -10.955  15.430  0.00  0.00    +0.165 C 
ATOM     20  C   UNL     1      -6.132 -11.756  13.380  0.00  0.00    +0.303 C 
ATOM     21  C   UNL     1      -4.642 -11.536  16.773  0.00  0.00    +0.056 A 
ATOM     22  C   UNL     1      -5.476 -12.407  17.427  0.00  0.00    +0.066 A 
ATOM     24  C   UNL     1      -3.863 -12.064  18.756  0.00  0.00    +0.197 A 
ATOM     32  H   UNL     1      -4.387 -10.647  13.079  0.00  0.00    +0.151 HD
ATOM     33  H   UNL     1      -2.805 -10.720  17.478  0.00  0.00    +0.167 HD
ENDROOT
BRANCH   6  11
ATOM     11  C   UNL     1      -5.040 -11.311  11.192  0.00  0.00    +0.074 C 
ATOM     12  C   UNL     1      -5.751 -10.104  10.572  0.00  0.00    +0.022 C 
ATOM     13  C   UNL     1      -3.602 -11.433  10.677  0.00  0.00    +0.022 C 
ATOM     14  C   UNL     1      -4.955  -8.808  10.736  0.00  0.00    +0.002 C 
ATOM     15  C   UNL     1      -2.809 -10.137  10.840  0.00  0.00    +0.002 C 
ATOM     16  C   UNL     1      -3.531  -8.952  10.206  0.00  0.00    +0.000 C 
ENDBRANCH   6  11
BRANCH  17  23
ATOM      4  O   UNL     1      -7.863 -10.276  17.265  0.00  0.00    -0.336 OA
ATOM      9  N   UNL     1      -8.868 -10.098  15.271  0.00  0.00    -0.190 NA
ATOM     10  N   UNL     1      -8.718  -9.170  17.357  0.00  0.00    -0.056 NA
ATOM     23  C   UNL     1      -8.013 -10.764  16.006  0.00  0.00    +0.249 A 
ATOM     25  C   UNL     1      -9.275  -9.130  16.142  0.00  0.00    +0.202 A 
BRANCH  25  26
ATOM      1 CL   UNL     1     -12.735  -7.449  12.720  0.00  0.00    -0.081 Cl
ATOM      2  F   UNL     1     -13.010  -5.264  14.704  0.00  0.00    -0.204 F 
ATOM     26  C   UNL     1     -10.238  -8.136  15.767  0.00  0.00    +0.024 A 
ATOM     27  C   UNL     1     -10.937  -8.259  14.567  0.00  0.00    +0.034 A 
ATOM     28  C   UNL     1     -10.477  -7.046  16.605  0.00  0.00    +0.014 A 
ATOM     29  C   UNL     1     -11.874  -7.292  14.203  0.00  0.00    +0.077 A 
ATOM     30  C   UNL     1     -11.413  -6.079  16.242  0.00  0.00    +0.040 A 
ATOM     31  C   UNL     1     -12.113  -6.202  15.040  0.00  0.00    +0.142 A 
ENDBRANCH  25  26
ENDBRANCH  17  23
TORSDOF 3
ENDMDL
MODEL 7
REMARK VINA RESULT:      -6.8     28.916     31.083
REMARK  Name = 26761985
REMARK  3 active torsions:
REMARK  status: ('A' for Active; 'I' for Inactive)
REMARK    1  A    between atoms: N_6  and  C_11
REMARK    2  A    between atoms: C_17  and  C_23
REMARK    3  A    between atoms: C_25  and  C_26
REMARK                            x       y       z     vdW  Elec       q    Type
REMARK                         _______ _______ _______ _____ _____    ______ ____
ROOT
ATOM      3  O   UNL     1     -13.045   8.729  36.517  0.00  0.00    -0.253 OA
ATOM      5  N   UNL     1     -12.587   8.739  34.232  0.00  0.00    -0.268 N 
ATOM      6  N   UNL     1     -10.882   9.098  35.834  0.00  0.00    -0.296 N 
ATOM      7  N   UNL     1     -11.740   9.811  30.748  0.00  0.00    -0.347 N 
ATOM      8  N   UNL     1     -13.944  10.099  30.528  0.00  0.00    -0.240 NA
ATOM     17  C   UNL     1     -13.994   8.331  33.889  0.00  0.00    +0.172 C 
ATOM     18  C   UNL     1     -14.629   9.275  32.823  0.00  0.00    +0.089 C 
ATOM     19  C   UNL     1     -11.605   8.887  33.118  0.00  0.00    +0.165 C 
ATOM     20  C   UNL     1     -12.231   8.852  35.595  0.00  0.00    +0.303 C 
ATOM     21  C   UNL     1     -12.298   9.413  31.926  0.00  0.00    +0.056 A 
ATOM     22  C   UNL     1     -13.648   9.597  31.764  0.00  0.00    +0.066 A 
ATOM     24  C   UNL     1     -12.772  10.216  29.939  0.00  0.00    +0.197 A 
ATOM     32  H   UNL     1     -10.211   8.999  35.084  0.00  0.00    +0.151 HD
ATOM     33  H   UNL     1     -10.756   9.809  30.512  0.00  0.00    +0.167 HD
ENDROOT
BRANCH   6  11
ATOM     11  C   UNL     1     -10.346   9.228  37.171  0.00  0.00    +0.074 C 
ATOM     12  C   UNL     1      -9.280   8.161  37.442  0.00  0.00    +0.022 C 
ATOM     13  C   UNL     1      -9.795  10.637  37.410  0.00  0.00    +0.022 C 
ATOM     14  C   UNL     1      -7.983   8.423  36.676  0.00  0.00    +0.002 C 
ATOM     15  C   UNL     1      -8.497  10.896  36.644  0.00  0.00    +0.002 C 
ATOM     16  C   UNL     1      -7.448   9.828  36.939  0.00  0.00    +0.000 C 
ENDBRANCH   6  11
BRANCH  17  23
ATOM      4  O   UNL     1     -14.018   6.004  34.671  0.00  0.00    -0.336 OA
ATOM      9  N   UNL     1     -14.155   6.216  32.445  0.00  0.00    -0.190 NA
ATOM     10  N   UNL     1     -14.092   4.702  34.159  0.00  0.00    -0.056 NA
ATOM     23  C   UNL     1     -14.061   6.833  33.596  0.00  0.00    +0.249 A 
ATOM     25  C   UNL     1     -14.171   4.911  32.841  0.00  0.00    +0.202 A 
BRANCH  25  26
ATOM      1 CL   UNL     1     -15.760   3.262  28.230  0.00  0.00    -0.081 Cl
ATOM      2  F   UNL     1     -14.535   0.736  29.180  0.00  0.00    -0.204 F 
ATOM     26  C   UNL     1     -14.267   3.837  31.895  0.00  0.00    +0.024 A 
ATOM     27  C   UNL     1     -14.893   4.045  30.666  0.00  0.00    +0.034 A 
ATOM     28  C   UNL     1     -13.733   2.586  32.203  0.00  0.00    +0.014 A 
ATOM     29  C   UNL     1     -14.986   3.001  29.746  0.00  0.00    +0.077 A 
ATOM     30  C   UNL     1     -13.826   1.542  31.284  0.00  0.00    +0.040 A 
ATOM     31  C   UNL     1     -14.453   1.749  30.054  0.00  0.00    +0.142 A 
ENDBRANCH  25  26
ENDBRANCH  17  23
TORSDOF 3
ENDMDL
MODEL 8
REMARK VINA RESULT:      -6.8     15.111     17.664
REMARK  Name = 26761985
REMARK  3 active torsions:
REMARK  status: ('A' for Active; 'I' for Inactive)
REMARK    1  A    between atoms: N_6  and  C_11
REMARK    2  A    between atoms: C_17  and  C_23
REMARK    3  A    between atoms: C_25  and  C_26
REMARK                            x       y       z     vdW  Elec       q    Type
REMARK                         _______ _______ _______ _____ _____    ______ ____
ROOT
ATOM      3  O   UNL     1      18.422  -5.065  27.640  0.00  0.00    -0.253 OA
ATOM      5  N   UNL     1      17.426  -3.540  29.093  0.00  0.00    -0.268 N 
ATOM      6  N   UNL     1      17.798  -3.013  26.815  0.00  0.00    -0.296 N 
ATOM      7  N   UNL     1      16.781  -0.600  31.315  0.00  0.00    -0.347 N 
ATOM      8  N   UNL     1      17.650  -1.890  32.918  0.00  0.00    -0.240 NA
ATOM     17  C   UNL     1      17.390  -4.543  30.214  0.00  0.00    +0.172 C 
ATOM     18  C   UNL     1      18.012  -3.973  31.524  0.00  0.00    +0.089 C 
ATOM     19  C   UNL     1      16.823  -2.196  29.331  0.00  0.00    +0.165 C 
ATOM     20  C   UNL     1      17.923  -3.952  27.835  0.00  0.00    +0.303 C 
ATOM     21  C   UNL     1      17.054  -1.802  30.734  0.00  0.00    +0.056 A 
ATOM     22  C   UNL     1      17.583  -2.574  31.737  0.00  0.00    +0.066 A 
ATOM     24  C   UNL     1      17.157  -0.702  32.631  0.00  0.00    +0.197 A 
ATOM     32  H   UNL     1      17.216  -2.197  26.950  0.00  0.00    +0.151 HD
ATOM     33  H   UNL     1      16.376   0.213  30.868  0.00  0.00    +0.167 HD
ENDROOT
BRANCH   6  11
ATOM     11  C   UNL     1      18.243  -3.277  25.465  0.00  0.00    +0.074 C 
ATOM     12  C   UNL     1      17.075  -3.720  24.578  0.00  0.00    +0.022 C 
ATOM     13  C   UNL     1      18.959  -2.059  24.873  0.00  0.00    +0.022 C 
ATOM     14  C   UNL     1      16.117  -2.572  24.256  0.00  0.00    +0.002 C 
ATOM     15  C   UNL     1      18.000  -0.914  24.551  0.00  0.00    +0.002 C 
ATOM     16  C   UNL     1      16.852  -1.376  23.658  0.00  0.00    +0.000 C 
ENDBRANCH   6  11
BRANCH  17  23
ATOM      4  O   UNL     1      15.594  -5.950  29.308  0.00  0.00    -0.336 OA
ATOM      9  N   UNL     1      15.118  -5.040  31.298  0.00  0.00    -0.190 NA
ATOM     10  N   UNL     1      14.307  -6.393  29.642  0.00  0.00    -0.056 NA
ATOM     23  C   UNL     1      15.998  -5.160  30.336  0.00  0.00    +0.249 A 
ATOM     25  C   UNL     1      14.098  -5.813  30.828  0.00  0.00    +0.202 A 
BRANCH  25  26
ATOM      1 CL   UNL     1      10.141  -8.850  32.102  0.00  0.00    -0.081 Cl
ATOM      2  F   UNL     1       9.384  -6.477  33.709  0.00  0.00    -0.204 F 
ATOM     26  C   UNL     1      12.882  -5.988  31.568  0.00  0.00    +0.024 A 
ATOM     27  C   UNL     1      12.183  -7.192  31.486  0.00  0.00    +0.034 A 
ATOM     28  C   UNL     1      12.400  -4.955  32.373  0.00  0.00    +0.014 A 
ATOM     29  C   UNL     1      11.000  -7.362  32.207  0.00  0.00    +0.077 A 
ATOM     30  C   UNL     1      11.219  -5.124  33.093  0.00  0.00    +0.040 A 
ATOM     31  C   UNL     1      10.518  -6.329  33.011  0.00  0.00    +0.142 A 
ENDBRANCH  25  26
ENDBRANCH  17  23
TORSDOF 3
ENDMDL
MODEL 9
REMARK VINA RESULT:      -6.8     15.525     19.719
REMARK  Name = 26761985
REMARK  3 active torsions:
REMARK  status: ('A' for Active; 'I' for Inactive)
REMARK    1  A    between atoms: N_6  and  C_11
REMARK    2  A    between atoms: C_17  and  C_23
REMARK    3  A    between atoms: C_25  and  C_26
REMARK                            x       y       z     vdW  Elec       q    Type
REMARK                         _______ _______ _______ _____ _____    ______ ____
ROOT
ATOM      3  O   UNL     1      10.201   4.530   4.394  0.00  0.00    -0.253 OA
ATOM      5  N   UNL     1      11.351   6.551   4.551  0.00  0.00    -0.268 N 
ATOM      6  N   UNL     1      11.835   4.984   2.843  0.00  0.00    -0.296 N 
ATOM      7  N   UNL     1      13.991   9.141   5.122  0.00  0.00    -0.347 N 
ATOM      8  N   UNL     1      13.202   9.178   7.211  0.00  0.00    -0.240 NA
ATOM     17  C   UNL     1      10.473   7.029   5.675  0.00  0.00    +0.172 C 
ATOM     18  C   UNL     1      11.309   7.525   6.893  0.00  0.00    +0.089 C 
ATOM     19  C   UNL     1      12.399   7.478   4.032  0.00  0.00    +0.165 C 
ATOM     20  C   UNL     1      11.069   5.296   3.963  0.00  0.00    +0.303 C 
ATOM     21  C   UNL     1      12.935   8.279   5.149  0.00  0.00    +0.056 A 
ATOM     22  C   UNL     1      12.469   8.322   6.439  0.00  0.00    +0.066 A 
ATOM     24  C   UNL     1      14.112   9.657   6.387  0.00  0.00    +0.197 A 
ATOM     32  H   UNL     1      12.393   5.701   2.399  0.00  0.00    +0.151 HD
ATOM     33  H   UNL     1      14.573   9.362   4.324  0.00  0.00    +0.167 HD
ENDROOT
BRANCH   6  11
ATOM     11  C   UNL     1      11.667   3.747   2.113  0.00  0.00    +0.074 C 
ATOM     12  C   UNL     1      10.759   3.946   0.896  0.00  0.00    +0.022 C 
ATOM     13  C   UNL     1      13.022   3.160   1.706  0.00  0.00    +0.022 C 
ATOM     14  C   UNL     1      11.437   4.747  -0.215  0.00  0.00    +0.002 C 
ATOM     15  C   UNL     1      13.697   3.962   0.594  0.00  0.00    +0.002 C 
ATOM     16  C   UNL     1      12.779   4.137  -0.612  0.00  0.00    +0.000 C 
ENDBRANCH   6  11
BRANCH  17  23
ATOM      4  O   UNL     1       9.032   8.993   5.984  0.00  0.00    -0.336 OA
ATOM      9  N   UNL     1       8.781   7.985   3.999  0.00  0.00    -0.190 NA
ATOM     10  N   UNL     1       8.057   9.726   5.295  0.00  0.00    -0.056 NA
ATOM     23  C   UNL     1       9.405   7.987   5.151  0.00  0.00    +0.249 A 
ATOM     25  C   UNL     1       7.965   9.070   4.134  0.00  0.00    +0.202 A 
BRANCH  25  26
ATOM      1 CL   UNL     1       3.441  11.126   2.790  0.00  0.00    -0.081 Cl
ATOM      2  F   UNL     1       4.503  10.631   0.068  0.00  0.00    -0.204 F 
ATOM     26  C   UNL     1       7.069   9.473   3.089  0.00  0.00    +0.024 A 
ATOM     27  C   UNL     1       5.835  10.038   3.408  0.00  0.00    +0.034 A 
ATOM     28  C   UNL     1       7.435   9.302   1.753  0.00  0.00    +0.014 A 
ATOM     29  C   UNL     1       4.964  10.430   2.391  0.00  0.00    +0.077 A 
ATOM     30  C   UNL     1       6.565   9.695   0.737  0.00  0.00    +0.040 A 
ATOM     31  C   UNL     1       5.329  10.259   1.056  0.00  0.00    +0.142 A 
ENDBRANCH  25  26
ENDBRANCH  17  23
TORSDOF 3
ENDMDL
MODEL 10
REMARK VINA RESULT:      -6.7     13.084     16.662
REMARK  Name = 26761985
REMARK  3 active torsions:
REMARK  status: ('A' for Active; 'I' for Inactive)
REMARK    1  A    between atoms: N_6  and  C_11
REMARK    2  A    between atoms: C_17  and  C_23
REMARK    3  A    between atoms: C_25  and  C_26
REMARK                            x       y       z     vdW  Elec       q    Type
REMARK                         _______ _______ _______ _____ _____    ______ ____
ROOT
ATOM      3  O   UNL     1      11.684  10.474   7.309  0.00  0.00    -0.253 OA
ATOM      5  N   UNL     1      10.367   8.591   7.690  0.00  0.00    -0.268 N 
ATOM      6  N   UNL     1      10.004  10.610   8.870  0.00  0.00    -0.296 N 
ATOM      7  N   UNL     1       8.807   5.555   9.225  0.00  0.00    -0.347 N 
ATOM      8  N   UNL     1      10.474   4.454   8.225  0.00  0.00    -0.240 NA
ATOM     17  C   UNL     1      11.030   7.829   6.575  0.00  0.00    +0.172 C 
ATOM     18  C   UNL     1      11.531   6.430   7.045  0.00  0.00    +0.089 C 
ATOM     19  C   UNL     1       9.245   7.932   8.422  0.00  0.00    +0.165 C 
ATOM     20  C   UNL     1      10.756   9.931   7.916  0.00  0.00    +0.303 C 
ATOM     21  C   UNL     1       9.514   6.485   8.522  0.00  0.00    +0.056 A 
ATOM     22  C   UNL     1      10.527   5.785   7.918  0.00  0.00    +0.066 A 
ATOM     24  C   UNL     1       9.424   4.348   9.014  0.00  0.00    +0.197 A 
ATOM     32  H   UNL     1       9.137  10.212   9.206  0.00  0.00    +0.151 HD
ATOM     33  H   UNL     1       7.984   5.719   9.791  0.00  0.00    +0.167 HD
ENDROOT
BRANCH   6  11
ATOM     11  C   UNL     1      10.259  11.992   9.214  0.00  0.00    +0.074 C 
ATOM     12  C   UNL     1       8.998  12.843   9.042  0.00  0.00    +0.022 C 
ATOM     13  C   UNL     1      10.821  12.111  10.634  0.00  0.00    +0.022 C 
ATOM     14  C   UNL     1       7.948  12.557  10.117  0.00  0.00    +0.002 C 
ATOM     15  C   UNL     1       9.770  11.826  11.706  0.00  0.00    +0.002 C 
ATOM     16  C   UNL     1       8.528  12.694  11.521  0.00  0.00    +0.000 C 
ENDBRANCH   6  11
BRANCH  17  23
ATOM      4  O   UNL     1      10.236   6.761   4.512  0.00  0.00    -0.336 OA
ATOM      9  N   UNL     1       9.341   8.779   4.893  0.00  0.00    -0.190 NA
ATOM     10  N   UNL     1       9.365   7.010   3.443  0.00  0.00    -0.056 NA
ATOM     23  C   UNL     1      10.161   7.852   5.319  0.00  0.00    +0.249 A 
ATOM     25  C   UNL     1       8.876   8.219   3.740  0.00  0.00    +0.202 A 
BRANCH  25  26
ATOM      1 CL   UNL     1       4.508  10.920   3.377  0.00  0.00    -0.081 Cl
ATOM      2  F   UNL     1       5.185  10.825   0.493  0.00  0.00    -0.204 F 
ATOM     26  C   UNL     1       7.922   8.891   2.907  0.00  0.00    +0.024 A 
ATOM     27  C   UNL     1       6.809   9.507   3.478  0.00  0.00    +0.034 A 
ATOM     28  C   UNL     1       8.109   8.931   1.525  0.00  0.00    +0.014 A 
ATOM     29  C   UNL     1       5.881  10.161   2.667  0.00  0.00    +0.077 A 
ATOM     30  C   UNL     1       7.182   9.584   0.714  0.00  0.00    +0.040 A 
ATOM     31  C   UNL     1       6.068  10.200   1.285  0.00  0.00    +0.142 A 
ENDBRANCH  25  26
ENDBRANCH  17  23
TORSDOF 3
ENDMDL
