MODEL 1
REMARK VINA RESULT:      -7.7      0.000      0.000
REMARK  Name = 75536385
REMARK  9 active torsions:
REMARK  status: ('A' for Active; 'I' for Inactive)
REMARK    1  A    between atoms: O_2  and  C_10
REMARK    2  A    between atoms: O_5  and  C_29
REMARK    3  A    between atoms: O_5  and  C_31
REMARK    4  A    between atoms: N_6  and  C_14
REMARK    5  A    between atoms: C_8  and  C_13
REMARK    6  A    between atoms: C_9  and  C_14
REMARK    7  A    between atoms: C_13  and  C_15
REMARK    8  A    between atoms: C_17  and  C_19
REMARK    9  A    between atoms: C_18  and  C_20
REMARK                            x       y       z     vdW  Elec       q    Type
REMARK                         _______ _______ _______ _____ _____    ______ ____
ROOT
ATOM      1  O   UNL     1     -16.094   1.984  25.029  0.00  0.00    -0.369 OA
ATOM      8  C   UNL     1     -17.266   2.070  25.842  0.00  0.00    +0.125 C 
ATOM      9  C   UNL     1     -15.961   3.010  24.038  0.00  0.00    +0.164 C 
ATOM     10  C   UNL     1     -17.195   3.068  23.126  0.00  0.00    +0.145 C 
ATOM     11  C   UNL     1     -18.526   2.012  24.980  0.00  0.00    +0.034 C 
ATOM     12  C   UNL     1     -18.500   3.106  23.916  0.00  0.00    +0.036 C 
ENDROOT
BRANCH  10   2
ATOM      2  O   UNL     1     -17.215   1.898  22.304  0.00  0.00    -0.389 OA
ATOM     32  H   UNL     1     -18.080   1.866  21.861  0.00  0.00    +0.210 HD
ENDBRANCH  10   2
BRANCH   8  13
ATOM     13  C   UNL     1     -17.228   0.908  26.827  0.00  0.00    +0.090 C 
BRANCH  13  15
ATOM      3  O   UNL     1     -15.088   1.015  29.726  0.00  0.00    -0.354 OA
ATOM      7  N   UNL     1     -15.608   0.381  28.603  0.00  0.00    -0.083 NA
ATOM     15  C   UNL     1     -16.465   1.259  28.075  0.00  0.00    +0.087 A 
ATOM     16  C   UNL     1     -16.527   2.453  28.814  0.00  0.00    +0.076 A 
ATOM     18  C   UNL     1     -15.644   2.248  29.840  0.00  0.00    +0.167 A 
BRANCH  18  20
ATOM     20  C   UNL     1     -15.200   3.028  30.959  0.00  0.00    +0.020 A 
ATOM     21  C   UNL     1     -13.836   3.195  31.196  0.00  0.00    +0.015 A 
ATOM     22  C   UNL     1     -16.133   3.620  31.811  0.00  0.00    +0.015 A 
ATOM     25  C   UNL     1     -13.405   3.953  32.285  0.00  0.00    +0.046 A 
ATOM     26  C   UNL     1     -15.702   4.378  32.899  0.00  0.00    +0.046 A 
ATOM     29  C   UNL     1     -14.338   4.545  33.136  0.00  0.00    +0.120 A 
BRANCH  29   5
ATOM      5  O   UNL     1     -13.917   5.283  34.199  0.00  0.00    -0.495 OA
ATOM     31  C   UNL     1     -14.279   4.817  35.498  0.00  0.00    +0.277 C 
ENDBRANCH  29   5
ENDBRANCH  18  20
ENDBRANCH  13  15
ENDBRANCH   8  13
BRANCH   9  14
ATOM     14  C   UNL     1     -15.631   4.356  24.680  0.00  0.00    +0.138 C 
BRANCH  14   6
ATOM      4  O   UNL     1     -16.283   6.447  22.824  0.00  0.00    -0.270 OA
ATOM      6  N   UNL     1     -14.712   5.098  23.872  0.00  0.00    -0.309 N 
ATOM     17  C   UNL     1     -15.118   6.103  22.994  0.00  0.00    +0.244 C 
ATOM     33  H   UNL     1     -13.742   4.805  23.899  0.00  0.00    +0.149 HD
BRANCH  17  19
ATOM     19  C   UNL     1     -14.044   6.762  22.207  0.00  0.00    +0.037 A 
ATOM     23  C   UNL     1     -13.020   5.998  21.648  0.00  0.00    +0.013 A 
ATOM     24  C   UNL     1     -14.060   8.144  22.027  0.00  0.00    +0.013 A 
ATOM     27  C   UNL     1     -12.011   6.617  20.909  0.00  0.00    +0.001 A 
ATOM     28  C   UNL     1     -13.052   8.764  21.288  0.00  0.00    +0.001 A 
ATOM     30  C   UNL     1     -12.027   7.999  20.729  0.00  0.00    +0.000 A 
ENDBRANCH  17  19
ENDBRANCH  14   6
ENDBRANCH   9  14
TORSDOF 8
ENDMDL
MODEL 2
REMARK VINA RESULT:      -7.6     28.386     31.782
REMARK  Name = 75536385
REMARK  9 active torsions:
REMARK  status: ('A' for Active; 'I' for Inactive)
REMARK    1  A    between atoms: O_2  and  C_10
REMARK    2  A    between atoms: O_5  and  C_29
REMARK    3  A    between atoms: O_5  and  C_31
REMARK    4  A    between atoms: N_6  and  C_14
REMARK    5  A    between atoms: C_8  and  C_13
REMARK    6  A    between atoms: C_9  and  C_14
REMARK    7  A    between atoms: C_13  and  C_15
REMARK    8  A    between atoms: C_17  and  C_19
REMARK    9  A    between atoms: C_18  and  C_20
REMARK                            x       y       z     vdW  Elec       q    Type
REMARK                         _______ _______ _______ _____ _____    ______ ____
ROOT
ATOM      1  O   UNL     1      13.057   8.947  19.804  0.00  0.00    -0.369 OA
ATOM      8  C   UNL     1      13.775   7.727  20.005  0.00  0.00    +0.125 C 
ATOM      9  C   UNL     1      12.167   9.314  20.865  0.00  0.00    +0.164 C 
ATOM     10  C   UNL     1      11.164   8.192  21.166  0.00  0.00    +0.145 C 
ATOM     11  C   UNL     1      12.809   6.558  20.192  0.00  0.00    +0.034 C 
ATOM     12  C   UNL     1      11.843   6.837  21.340  0.00  0.00    +0.036 C 
ENDROOT
BRANCH  10   2
ATOM      2  O   UNL     1      10.251   8.085  20.070  0.00  0.00    -0.389 OA
ATOM     32  H   UNL     1       9.458   8.600  20.298  0.00  0.00    +0.210 HD
ENDBRANCH  10   2
BRANCH   8  13
ATOM     13  C   UNL     1      14.662   7.509  18.785  0.00  0.00    +0.090 C 
BRANCH  13  15
ATOM      3  O   UNL     1      17.672   5.542  19.022  0.00  0.00    -0.354 OA
ATOM      7  N   UNL     1      16.475   5.889  18.407  0.00  0.00    -0.083 NA
ATOM     15  C   UNL     1      15.975   6.876  19.156  0.00  0.00    +0.087 A 
ATOM     16  C   UNL     1      16.805   7.191  20.246  0.00  0.00    +0.076 A 
ATOM     18  C   UNL     1      17.858   6.325  20.115  0.00  0.00    +0.167 A 
BRANCH  18  20
ATOM     20  C   UNL     1      19.061   6.082  20.857  0.00  0.00    +0.020 A 
ATOM     21  C   UNL     1      20.001   5.169  20.380  0.00  0.00    +0.015 A 
ATOM     22  C   UNL     1      19.290   6.759  22.055  0.00  0.00    +0.015 A 
ATOM     25  C   UNL     1      21.171   4.933  21.102  0.00  0.00    +0.046 A 
ATOM     26  C   UNL     1      20.460   6.523  22.776  0.00  0.00    +0.046 A 
ATOM     29  C   UNL     1      21.401   5.610  22.300  0.00  0.00    +0.120 A 
BRANCH  29   5
ATOM      5  O   UNL     1      22.542   5.378  23.005  0.00  0.00    -0.495 OA
ATOM     31  C   UNL     1      23.093   4.064  22.933  0.00  0.00    +0.277 C 
ENDBRANCH  29   5
ENDBRANCH  18  20
ENDBRANCH  13  15
ENDBRANCH   8  13
BRANCH   9  14
ATOM     14  C   UNL     1      12.942   9.768  22.101  0.00  0.00    +0.138 C 
BRANCH  14   6
ATOM      4  O   UNL     1      10.774  10.154  23.943  0.00  0.00    -0.270 OA
ATOM      6  N   UNL     1      12.446  11.019  22.587  0.00  0.00    -0.309 N 
ATOM     17  C   UNL     1      11.384  11.115  23.485  0.00  0.00    +0.244 C 
ATOM     33  H   UNL     1      12.849  11.857  22.181  0.00  0.00    +0.149 HD
BRANCH  17  19
ATOM     19  C   UNL     1      10.973  12.489  23.872  0.00  0.00    +0.037 A 
ATOM     23  C   UNL     1      10.559  13.395  22.896  0.00  0.00    +0.013 A 
ATOM     24  C   UNL     1      11.000  12.872  25.213  0.00  0.00    +0.013 A 
ATOM     27  C   UNL     1      10.172  14.684  23.260  0.00  0.00    +0.001 A 
ATOM     28  C   UNL     1      10.613  14.162  25.578  0.00  0.00    +0.001 A 
ATOM     30  C   UNL     1      10.199  15.068  24.601  0.00  0.00    +0.000 A 
ENDBRANCH  17  19
ENDBRANCH  14   6
ENDBRANCH   9  14
TORSDOF 8
ENDMDL
MODEL 3
REMARK VINA RESULT:      -7.2     32.088     37.441
REMARK  Name = 75536385
REMARK  9 active torsions:
REMARK  status: ('A' for Active; 'I' for Inactive)
REMARK    1  A    between atoms: O_2  and  C_10
REMARK    2  A    between atoms: O_5  and  C_29
REMARK    3  A    between atoms: O_5  and  C_31
REMARK    4  A    between atoms: N_6  and  C_14
REMARK    5  A    between atoms: C_8  and  C_13
REMARK    6  A    between atoms: C_9  and  C_14
REMARK    7  A    between atoms: C_13  and  C_15
REMARK    8  A    between atoms: C_17  and  C_19
REMARK    9  A    between atoms: C_18  and  C_20
REMARK                            x       y       z     vdW  Elec       q    Type
REMARK                         _______ _______ _______ _____ _____    ______ ____
ROOT
ATOM      1  O   UNL     1      15.069   4.283   0.433  0.00  0.00    -0.369 OA
ATOM      8  C   UNL     1      14.027   4.417  -0.536  0.00  0.00    +0.125 C 
ATOM      9  C   UNL     1      16.176   5.178   0.267  0.00  0.00    +0.164 C 
ATOM     10  C   UNL     1      16.785   5.057  -1.136  0.00  0.00    +0.145 C 
ATOM     11  C   UNL     1      14.569   4.186  -1.945  0.00  0.00    +0.034 C 
ATOM     12  C   UNL     1      15.730   5.133  -2.236  0.00  0.00    +0.036 C 
ENDROOT
BRANCH  10   2
ATOM      2  O   UNL     1      17.441   3.791  -1.246  0.00  0.00    -0.389 OA
ATOM     32  H   UNL     1      18.387   3.962  -1.391  0.00  0.00    +0.210 HD
ENDBRANCH  10   2
BRANCH   8  13
ATOM     13  C   UNL     1      12.949   3.395  -0.195  0.00  0.00    +0.090 C 
BRANCH  13  15
ATOM      3  O   UNL     1       9.863   4.714   1.120  0.00  0.00    -0.354 OA
ATOM      7  N   UNL     1      10.619   4.126   0.113  0.00  0.00    -0.083 NA
ATOM     15  C   UNL     1      11.846   4.002   0.628  0.00  0.00    +0.087 A 
ATOM     16  C   UNL     1      11.922   4.489   1.944  0.00  0.00    +0.076 A 
ATOM     18  C   UNL     1      10.650   4.924   2.206  0.00  0.00    +0.167 A 
BRANCH  18  20
ATOM     20  C   UNL     1      10.004   5.528   3.335  0.00  0.00    +0.020 A 
ATOM     21  C   UNL     1       9.970   4.858   4.559  0.00  0.00    +0.015 A 
ATOM     22  C   UNL     1       9.409   6.783   3.210  0.00  0.00    +0.015 A 
ATOM     25  C   UNL     1       9.342   5.446   5.657  0.00  0.00    +0.046 A 
ATOM     26  C   UNL     1       8.781   7.370   4.308  0.00  0.00    +0.046 A 
ATOM     29  C   UNL     1       8.747   6.701   5.531  0.00  0.00    +0.120 A 
BRANCH  29   5
ATOM      5  O   UNL     1       8.132   7.272   6.603  0.00  0.00    -0.495 OA
ATOM     31  C   UNL     1       8.919   7.466   7.777  0.00  0.00    +0.277 C 
ENDBRANCH  29   5
ENDBRANCH  18  20
ENDBRANCH  13  15
ENDBRANCH   8  13
BRANCH   9  14
ATOM     14  C   UNL     1      15.784   6.610   0.626  0.00  0.00    +0.138 C 
BRANCH  14   6
ATOM      4  O   UNL     1      13.372   7.672   1.765  0.00  0.00    -0.270 OA
ATOM      6  N   UNL     1      15.475   6.725   2.018  0.00  0.00    -0.309 N 
ATOM     17  C   UNL     1      14.274   7.255   2.486  0.00  0.00    +0.244 C 
ATOM     33  H   UNL     1      16.213   6.479   2.670  0.00  0.00    +0.149 HD
BRANCH  17  19
ATOM     19  C   UNL     1      14.118   7.328   3.961  0.00  0.00    +0.037 A 
ATOM     23  C   UNL     1      12.846   7.281   4.531  0.00  0.00    +0.013 A 
ATOM     24  C   UNL     1      15.243   7.444   4.776  0.00  0.00    +0.013 A 
ATOM     27  C   UNL     1      12.699   7.350   5.917  0.00  0.00    +0.001 A 
ATOM     28  C   UNL     1      15.097   7.513   6.162  0.00  0.00    +0.001 A 
ATOM     30  C   UNL     1      13.825   7.466   6.732  0.00  0.00    +0.000 A 
ENDBRANCH  17  19
ENDBRANCH  14   6
ENDBRANCH   9  14
TORSDOF 8
ENDMDL
MODEL 4
REMARK VINA RESULT:      -7.2     31.695     37.172
REMARK  Name = 75536385
REMARK  9 active torsions:
REMARK  status: ('A' for Active; 'I' for Inactive)
REMARK    1  A    between atoms: O_2  and  C_10
REMARK    2  A    between atoms: O_5  and  C_29
REMARK    3  A    between atoms: O_5  and  C_31
REMARK    4  A    between atoms: N_6  and  C_14
REMARK    5  A    between atoms: C_8  and  C_13
REMARK    6  A    between atoms: C_9  and  C_14
REMARK    7  A    between atoms: C_13  and  C_15
REMARK    8  A    between atoms: C_17  and  C_19
REMARK    9  A    between atoms: C_18  and  C_20
REMARK                            x       y       z     vdW  Elec       q    Type
REMARK                         _______ _______ _______ _____ _____    ______ ____
ROOT
ATOM      1  O   UNL     1      11.462   6.231   6.297  0.00  0.00    -0.369 OA
ATOM      8  C   UNL     1      11.070   7.604   6.232  0.00  0.00    +0.125 C 
ATOM      9  C   UNL     1      10.394   5.300   6.514  0.00  0.00    +0.164 C 
ATOM     10  C   UNL     1       9.599   5.649   7.779  0.00  0.00    +0.145 C 
ATOM     11  C   UNL     1      10.375   8.027   7.525  0.00  0.00    +0.034 C 
ATOM     12  C   UNL     1       9.186   7.117   7.820  0.00  0.00    +0.036 C 
ENDROOT
BRANCH  10   2
ATOM      2  O   UNL     1      10.418   5.394   8.923  0.00  0.00    -0.389 OA
ATOM     32  H   UNL     1      10.989   6.169   9.054  0.00  0.00    +0.210 HD
ENDBRANCH  10   2
BRANCH   8  13
ATOM     13  C   UNL     1      12.329   8.430   5.996  0.00  0.00    +0.090 C 
BRANCH  13  15
ATOM      3  O   UNL     1      14.797   7.034   3.771  0.00  0.00    -0.354 OA
ATOM      7  N   UNL     1      14.354   7.418   5.032  0.00  0.00    -0.083 NA
ATOM     15  C   UNL     1      13.127   7.909   4.832  0.00  0.00    +0.087 A 
ATOM     16  C   UNL     1      12.747   7.861   3.480  0.00  0.00    +0.076 A 
ATOM     18  C   UNL     1      13.831   7.302   2.856  0.00  0.00    +0.167 A 
BRANCH  18  20
ATOM     20  C   UNL     1      14.145   6.957   1.500  0.00  0.00    +0.020 A 
ATOM     21  C   UNL     1      15.259   6.162   1.224  0.00  0.00    +0.015 A 
ATOM     22  C   UNL     1      13.339   7.414   0.459  0.00  0.00    +0.015 A 
ATOM     25  C   UNL     1      15.564   5.826  -0.095  0.00  0.00    +0.046 A 
ATOM     26  C   UNL     1      13.645   7.078  -0.860  0.00  0.00    +0.046 A 
ATOM     29  C   UNL     1      14.757   6.284  -1.137  0.00  0.00    +0.120 A 
BRANCH  29   5
ATOM      5  O   UNL     1      15.058   5.957  -2.424  0.00  0.00    -0.495 OA
ATOM     31  C   UNL     1      14.463   4.772  -2.948  0.00  0.00    +0.277 C 
ENDBRANCH  29   5
ENDBRANCH  18  20
ENDBRANCH  13  15
ENDBRANCH   8  13
BRANCH   9  14
ATOM     14  C   UNL     1       9.514   5.173   5.272  0.00  0.00    +0.138 C 
BRANCH  14   6
ATOM      4  O   UNL     1       9.708   6.346   2.659  0.00  0.00    -0.270 OA
ATOM      6  N   UNL     1      10.262   4.667   4.162  0.00  0.00    -0.309 N 
ATOM     17  C   UNL     1      10.301   5.304   2.923  0.00  0.00    +0.244 C 
ATOM     33  H   UNL     1      10.705   3.763   4.286  0.00  0.00    +0.149 HD
BRANCH  17  19
ATOM     19  C   UNL     1      11.103   4.637   1.866  0.00  0.00    +0.037 A 
ATOM     23  C   UNL     1      12.226   3.885   2.211  0.00  0.00    +0.013 A 
ATOM     24  C   UNL     1      10.733   4.761   0.527  0.00  0.00    +0.013 A 
ATOM     27  C   UNL     1      12.979   3.258   1.219  0.00  0.00    +0.001 A 
ATOM     28  C   UNL     1      11.486   4.135  -0.467  0.00  0.00    +0.001 A 
ATOM     30  C   UNL     1      12.609   3.383  -0.120  0.00  0.00    +0.000 A 
ENDBRANCH  17  19
ENDBRANCH  14   6
ENDBRANCH   9  14
TORSDOF 8
ENDMDL
MODEL 5
REMARK VINA RESULT:      -7.1     21.151     24.363
REMARK  Name = 75536385
REMARK  9 active torsions:
REMARK  status: ('A' for Active; 'I' for Inactive)
REMARK    1  A    between atoms: O_2  and  C_10
REMARK    2  A    between atoms: O_5  and  C_29
REMARK    3  A    between atoms: O_5  and  C_31
REMARK    4  A    between atoms: N_6  and  C_14
REMARK    5  A    between atoms: C_8  and  C_13
REMARK    6  A    between atoms: C_9  and  C_14
REMARK    7  A    between atoms: C_13  and  C_15
REMARK    8  A    between atoms: C_17  and  C_19
REMARK    9  A    between atoms: C_18  and  C_20
REMARK                            x       y       z     vdW  Elec       q    Type
REMARK                         _______ _______ _______ _____ _____    ______ ____
ROOT
ATOM      1  O   UNL     1      -4.117 -12.336  15.905  0.00  0.00    -0.369 OA
ATOM      8  C   UNL     1      -3.519 -11.175  16.486  0.00  0.00    +0.125 C 
ATOM      9  C   UNL     1      -5.328 -12.778  16.531  0.00  0.00    +0.164 C 
ATOM     10  C   UNL     1      -5.122 -13.024  18.032  0.00  0.00    +0.145 C 
ATOM     11  C   UNL     1      -3.188 -11.418  17.957  0.00  0.00    +0.034 C 
ATOM     12  C   UNL     1      -4.434 -11.851  18.725  0.00  0.00    +0.036 C 
ENDROOT
BRANCH  10   2
ATOM      2  O   UNL     1      -4.293 -14.178  18.200  0.00  0.00    -0.389 OA
ATOM     32  H   UNL     1      -3.803 -14.068  19.032  0.00  0.00    +0.210 HD
ENDBRANCH  10   2
BRANCH   8  13
ATOM     13  C   UNL     1      -2.258 -10.861  15.690  0.00  0.00    +0.090 C 
BRANCH  13  15
ATOM      3  O   UNL     1      -2.186 -12.029  12.280  0.00  0.00    -0.354 OA
ATOM      7  N   UNL     1      -1.776 -12.081  13.608  0.00  0.00    -0.083 NA
ATOM     15  C   UNL     1      -2.453 -11.104  14.218  0.00  0.00    +0.087 A 
ATOM     16  C   UNL     1      -3.297 -10.409  13.335  0.00  0.00    +0.076 A 
ATOM     18  C   UNL     1      -3.092 -11.029  12.131  0.00  0.00    +0.167 A 
BRANCH  18  20
ATOM     20  C   UNL     1      -3.610 -10.852  10.806  0.00  0.00    +0.020 A 
ATOM     21  C   UNL     1      -3.867  -9.568  10.323  0.00  0.00    +0.015 A 
ATOM     22  C   UNL     1      -3.858 -11.963  10.000  0.00  0.00    +0.015 A 
ATOM     25  C   UNL     1      -4.372  -9.397   9.034  0.00  0.00    +0.046 A 
ATOM     26  C   UNL     1      -4.363 -11.791   8.711  0.00  0.00    +0.046 A 
ATOM     29  C   UNL     1      -4.620 -10.508   8.228  0.00  0.00    +0.120 A 
BRANCH  29   5
ATOM      5  O   UNL     1      -5.114 -10.340   6.971  0.00  0.00    -0.495 OA
ATOM     31  C   UNL     1      -4.920 -11.410   6.048  0.00  0.00    +0.277 C 
ENDBRANCH  29   5
ENDBRANCH  18  20
ENDBRANCH  13  15
ENDBRANCH   8  13
BRANCH   9  14
ATOM     14  C   UNL     1      -6.481 -11.820  16.237  0.00  0.00    +0.138 C 
BRANCH  14   6
ATOM      4  O   UNL     1      -6.344  -9.536  14.503  0.00  0.00    -0.270 OA
ATOM      6  N   UNL     1      -6.780 -11.791  14.838  0.00  0.00    -0.309 N 
ATOM     17  C   UNL     1      -6.685 -10.632  14.068  0.00  0.00    +0.244 C 
ATOM     33  H   UNL     1      -7.152 -12.644  14.434  0.00  0.00    +0.149 HD
BRANCH  17  19
ATOM     19  C   UNL     1      -7.056 -10.763  12.636  0.00  0.00    +0.037 A 
ATOM     23  C   UNL     1      -7.336  -9.624  11.881  0.00  0.00    +0.013 A 
ATOM     24  C   UNL     1      -7.121 -12.024  12.045  0.00  0.00    +0.013 A 
ATOM     27  C   UNL     1      -7.683  -9.747  10.536  0.00  0.00    +0.001 A 
ATOM     28  C   UNL     1      -7.468 -12.148  10.699  0.00  0.00    +0.001 A 
ATOM     30  C   UNL     1      -7.749 -11.008   9.945  0.00  0.00    +0.000 A 
ENDBRANCH  17  19
ENDBRANCH  14   6
ENDBRANCH   9  14
TORSDOF 8
ENDMDL
MODEL 6
REMARK VINA RESULT:      -7.1     28.757     32.227
REMARK  Name = 75536385
REMARK  9 active torsions:
REMARK  status: ('A' for Active; 'I' for Inactive)
REMARK    1  A    between atoms: O_2  and  C_10
REMARK    2  A    between atoms: O_5  and  C_29
REMARK    3  A    between atoms: O_5  and  C_31
REMARK    4  A    between atoms: N_6  and  C_14
REMARK    5  A    between atoms: C_8  and  C_13
REMARK    6  A    between atoms: C_9  and  C_14
REMARK    7  A    between atoms: C_13  and  C_15
REMARK    8  A    between atoms: C_17  and  C_19
REMARK    9  A    between atoms: C_18  and  C_20
REMARK                            x       y       z     vdW  Elec       q    Type
REMARK                         _______ _______ _______ _____ _____    ______ ____
ROOT
ATOM      1  O   UNL     1      13.477   8.734  19.200  0.00  0.00    -0.369 OA
ATOM      8  C   UNL     1      13.858   7.555  19.913  0.00  0.00    +0.125 C 
ATOM      9  C   UNL     1      12.517   9.565  19.863  0.00  0.00    +0.164 C 
ATOM     10  C   UNL     1      11.253   8.775  20.228  0.00  0.00    +0.145 C 
ATOM     11  C   UNL     1      12.640   6.678  20.194  0.00  0.00    +0.034 C 
ATOM     12  C   UNL     1      11.571   7.467  20.946  0.00  0.00    +0.036 C 
ENDROOT
BRANCH  10   2
ATOM      2  O   UNL     1      10.548   8.453  19.025  0.00  0.00    -0.389 OA
ATOM     32  H   UNL     1      10.125   9.268  18.707  0.00  0.00    +0.210 HD
ENDBRANCH  10   2
BRANCH   8  13
ATOM     13  C   UNL     1      14.877   6.811  19.058  0.00  0.00    +0.090 C 
BRANCH  13  15
ATOM      3  O   UNL     1      17.862   7.480  20.965  0.00  0.00    -0.354 OA
ATOM      7  N   UNL     1      16.542   7.739  20.616  0.00  0.00    -0.083 NA
ATOM     15  C   UNL     1      16.247   6.832  19.679  0.00  0.00    +0.087 A 
ATOM     16  C   UNL     1      17.332   5.983  19.400  0.00  0.00    +0.076 A 
ATOM     18  C   UNL     1      18.321   6.432  20.234  0.00  0.00    +0.167 A 
BRANCH  18  20
ATOM     20  C   UNL     1      19.678   6.044  20.488  0.00  0.00    +0.020 A 
ATOM     21  C   UNL     1      20.624   7.007  20.838  0.00  0.00    +0.015 A 
ATOM     22  C   UNL     1      20.052   4.704  20.383  0.00  0.00    +0.015 A 
ATOM     25  C   UNL     1      21.944   6.629  21.085  0.00  0.00    +0.046 A 
ATOM     26  C   UNL     1      21.372   4.327  20.630  0.00  0.00    +0.046 A 
ATOM     29  C   UNL     1      22.318   5.290  20.980  0.00  0.00    +0.120 A 
BRANCH  29   5
ATOM      5  O   UNL     1      23.607   4.923  21.219  0.00  0.00    -0.495 OA
ATOM     31  C   UNL     1      24.351   5.722  22.137  0.00  0.00    +0.277 C 
ENDBRANCH  29   5
ENDBRANCH  18  20
ENDBRANCH  13  15
ENDBRANCH   8  13
BRANCH   9  14
ATOM     14  C   UNL     1      13.140  10.278  21.062  0.00  0.00    +0.138 C 
BRANCH  14   6
ATOM      4  O   UNL     1      12.599  12.981  20.259  0.00  0.00    -0.270 OA
ATOM      6  N   UNL     1      12.207  11.178  21.666  0.00  0.00    -0.309 N 
ATOM     17  C   UNL     1      12.005  12.480  21.209  0.00  0.00    +0.244 C 
ATOM     33  H   UNL     1      11.746  10.857  22.511  0.00  0.00    +0.149 HD
BRANCH  17  19
ATOM     19  C   UNL     1      11.019  13.296  21.962  0.00  0.00    +0.037 A 
ATOM     23  C   UNL     1      10.891  13.139  23.342  0.00  0.00    +0.013 A 
ATOM     24  C   UNL     1      10.222  14.222  21.289  0.00  0.00    +0.013 A 
ATOM     27  C   UNL     1       9.964  13.906  24.049  0.00  0.00    +0.001 A 
ATOM     28  C   UNL     1       9.295  14.989  21.995  0.00  0.00    +0.001 A 
ATOM     30  C   UNL     1       9.167  14.831  23.376  0.00  0.00    +0.000 A 
ENDBRANCH  17  19
ENDBRANCH  14   6
ENDBRANCH   9  14
TORSDOF 8
ENDMDL
MODEL 7
REMARK VINA RESULT:      -7.1      5.611     10.456
REMARK  Name = 75536385
REMARK  9 active torsions:
REMARK  status: ('A' for Active; 'I' for Inactive)
REMARK    1  A    between atoms: O_2  and  C_10
REMARK    2  A    between atoms: O_5  and  C_29
REMARK    3  A    between atoms: O_5  and  C_31
REMARK    4  A    between atoms: N_6  and  C_14
REMARK    5  A    between atoms: C_8  and  C_13
REMARK    6  A    between atoms: C_9  and  C_14
REMARK    7  A    between atoms: C_13  and  C_15
REMARK    8  A    between atoms: C_17  and  C_19
REMARK    9  A    between atoms: C_18  and  C_20
REMARK                            x       y       z     vdW  Elec       q    Type
REMARK                         _______ _______ _______ _____ _____    ______ ____
ROOT
ATOM      1  O   UNL     1     -15.056   4.911  21.509  0.00  0.00    -0.369 OA
ATOM      8  C   UNL     1     -14.173   5.463  22.488  0.00  0.00    +0.125 C 
ATOM      9  C   UNL     1     -16.427   4.805  21.915  0.00  0.00    +0.164 C 
ATOM     10  C   UNL     1     -16.562   4.001  23.215  0.00  0.00    +0.145 C 
ATOM     11  C   UNL     1     -14.188   4.622  23.763  0.00  0.00    +0.034 C 
ATOM     12  C   UNL     1     -15.610   4.489  24.302  0.00  0.00    +0.036 C 
ENDROOT
BRANCH  10   2
ATOM      2  O   UNL     1     -16.252   2.631  22.945  0.00  0.00    -0.389 OA
ATOM     32  H   UNL     1     -15.550   2.363  23.560  0.00  0.00    +0.210 HD
ENDBRANCH  10   2
BRANCH   8  13
ATOM     13  C   UNL     1     -12.777   5.498  21.877  0.00  0.00    +0.090 C 
BRANCH  13  15
ATOM      3  O   UNL     1     -12.756   8.867  20.595  0.00  0.00    -0.354 OA
ATOM      7  N   UNL     1     -13.244   7.874  21.436  0.00  0.00    -0.083 NA
ATOM     15  C   UNL     1     -12.520   6.789  21.148  0.00  0.00    +0.087 A 
ATOM     16  C   UNL     1     -11.568   7.035  20.143  0.00  0.00    +0.076 A 
ATOM     18  C   UNL     1     -11.757   8.355  19.831  0.00  0.00    +0.167 A 
BRANCH  18  20
ATOM     20  C   UNL     1     -11.150   9.269  18.908  0.00  0.00    +0.020 A 
ATOM     21  C   UNL     1     -11.099  10.631  19.207  0.00  0.00    +0.015 A 
ATOM     22  C   UNL     1     -10.610   8.797  17.711  0.00  0.00    +0.015 A 
ATOM     25  C   UNL     1     -10.507  11.519  18.309  0.00  0.00    +0.046 A 
ATOM     26  C   UNL     1     -10.019   9.686  16.814  0.00  0.00    +0.046 A 
ATOM     29  C   UNL     1      -9.968  11.047  17.112  0.00  0.00    +0.120 A 
BRANCH  29   5
ATOM      5  O   UNL     1      -9.393  11.915  16.235  0.00  0.00    -0.495 OA
ATOM     31  C   UNL     1     -10.239  12.907  15.655  0.00  0.00    +0.277 C 
ENDBRANCH  29   5
ENDBRANCH  18  20
ENDBRANCH  13  15
ENDBRANCH   8  13
BRANCH   9  14
ATOM     14  C   UNL     1     -17.086   6.180  21.992  0.00  0.00    +0.138 C 
BRANCH  14   6
ATOM      4  O   UNL     1     -17.732   6.816  19.268  0.00  0.00    -0.270 OA
ATOM      6  N   UNL     1     -16.411   7.121  21.151  0.00  0.00    -0.309 N 
ATOM     17  C   UNL     1     -16.794   7.370  19.834  0.00  0.00    +0.244 C 
ATOM     33  H   UNL     1     -15.573   7.550  21.529  0.00  0.00    +0.149 HD
BRANCH  17  19
ATOM     19  C   UNL     1     -15.975   8.358  19.087  0.00  0.00    +0.037 A 
ATOM     23  C   UNL     1     -15.200   7.944  18.003  0.00  0.00    +0.013 A 
ATOM     24  C   UNL     1     -15.981   9.699  19.467  0.00  0.00    +0.013 A 
ATOM     27  C   UNL     1     -14.431   8.872  17.301  0.00  0.00    +0.001 A 
ATOM     28  C   UNL     1     -15.211  10.628  18.765  0.00  0.00    +0.001 A 
ATOM     30  C   UNL     1     -14.437  10.213  17.681  0.00  0.00    +0.000 A 
ENDBRANCH  17  19
ENDBRANCH  14   6
ENDBRANCH   9  14
TORSDOF 8
ENDMDL
MODEL 8
REMARK VINA RESULT:      -7.0     17.063     19.407
REMARK  Name = 75536385
REMARK  9 active torsions:
REMARK  status: ('A' for Active; 'I' for Inactive)
REMARK    1  A    between atoms: O_2  and  C_10
REMARK    2  A    between atoms: O_5  and  C_29
REMARK    3  A    between atoms: O_5  and  C_31
REMARK    4  A    between atoms: N_6  and  C_14
REMARK    5  A    between atoms: C_8  and  C_13
REMARK    6  A    between atoms: C_9  and  C_14
REMARK    7  A    between atoms: C_13  and  C_15
REMARK    8  A    between atoms: C_17  and  C_19
REMARK    9  A    between atoms: C_18  and  C_20
REMARK                            x       y       z     vdW  Elec       q    Type
REMARK                         _______ _______ _______ _____ _____    ______ ____
ROOT
ATOM      1  O   UNL     1      -5.262 -10.672  16.744  0.00  0.00    -0.369 OA
ATOM      8  C   UNL     1      -5.338 -12.098  16.820  0.00  0.00    +0.125 C 
ATOM      9  C   UNL     1      -5.030 -10.143  15.433  0.00  0.00    +0.164 C 
ATOM     10  C   UNL     1      -3.764 -10.741  14.805  0.00  0.00    +0.145 C 
ATOM     11  C   UNL     1      -4.045 -12.734  16.313  0.00  0.00    +0.034 C 
ATOM     12  C   UNL     1      -3.735 -12.264  14.894  0.00  0.00    +0.036 C 
ENDROOT
BRANCH  10   2
ATOM      2  O   UNL     1      -2.622 -10.241  15.506  0.00  0.00    -0.389 OA
ATOM     32  H   UNL     1      -2.942  -9.796  16.308  0.00  0.00    +0.210 HD
ENDBRANCH  10   2
BRANCH   8  13
ATOM     13  C   UNL     1      -5.590 -12.467  18.277  0.00  0.00    +0.090 C 
BRANCH  13  15
ATOM      3  O   UNL     1      -8.268 -10.828  20.048  0.00  0.00    -0.354 OA
ATOM      7  N   UNL     1      -6.929 -11.163  19.878  0.00  0.00    -0.083 NA
ATOM     15  C   UNL     1      -6.898 -11.915  18.774  0.00  0.00    +0.087 A 
ATOM     16  C   UNL     1      -8.174 -12.087  18.210  0.00  0.00    +0.076 A 
ATOM     18  C   UNL     1      -8.999 -11.385  19.049  0.00  0.00    +0.167 A 
BRANCH  18  20
ATOM     20  C   UNL     1     -10.408 -11.124  19.090  0.00  0.00    +0.020 A 
ATOM     21  C   UNL     1     -10.918 -10.187  19.989  0.00  0.00    +0.015 A 
ATOM     22  C   UNL     1     -11.269 -11.806  18.231  0.00  0.00    +0.015 A 
ATOM     25  C   UNL     1     -12.289  -9.934  20.029  0.00  0.00    +0.046 A 
ATOM     26  C   UNL     1     -12.640 -11.553  18.271  0.00  0.00    +0.046 A 
ATOM     29  C   UNL     1     -13.150 -10.616  19.170  0.00  0.00    +0.120 A 
BRANCH  29   5
ATOM      5  O   UNL     1     -14.488 -10.370  19.211  0.00  0.00    -0.495 OA
ATOM     31  C   UNL     1     -15.105 -10.349  20.497  0.00  0.00    +0.277 C 
ENDBRANCH  29   5
ENDBRANCH  18  20
ENDBRANCH  13  15
ENDBRANCH   8  13
BRANCH   9  14
ATOM     14  C   UNL     1      -6.265 -10.301  14.549  0.00  0.00    +0.138 C 
BRANCH  14   6
ATOM      4  O   UNL     1      -8.950 -11.308  14.681  0.00  0.00    -0.270 OA
ATOM      6  N   UNL     1      -7.397  -9.642  15.125  0.00  0.00    -0.309 N 
ATOM     17  C   UNL     1      -8.671 -10.207  15.148  0.00  0.00    +0.244 C 
ATOM     33  H   UNL     1      -7.254  -8.692  15.451  0.00  0.00    +0.149 HD
BRANCH  17  19
ATOM     19  C   UNL     1      -9.745  -9.384  15.760  0.00  0.00    +0.037 A 
ATOM     23  C   UNL     1      -9.426  -8.420  16.716  0.00  0.00    +0.013 A 
ATOM     24  C   UNL     1     -11.073  -9.575  15.379  0.00  0.00    +0.013 A 
ATOM     27  C   UNL     1     -10.435  -7.646  17.291  0.00  0.00    +0.001 A 
ATOM     28  C   UNL     1     -12.082  -8.802  15.954  0.00  0.00    +0.001 A 
ATOM     30  C   UNL     1     -11.762  -7.837  16.910  0.00  0.00    +0.000 A 
ENDBRANCH  17  19
ENDBRANCH  14   6
ENDBRANCH   9  14
TORSDOF 8
ENDMDL
MODEL 9
REMARK VINA RESULT:      -7.0     18.321     21.103
REMARK  Name = 75536385
REMARK  9 active torsions:
REMARK  status: ('A' for Active; 'I' for Inactive)
REMARK    1  A    between atoms: O_2  and  C_10
REMARK    2  A    between atoms: O_5  and  C_29
REMARK    3  A    between atoms: O_5  and  C_31
REMARK    4  A    between atoms: N_6  and  C_14
REMARK    5  A    between atoms: C_8  and  C_13
REMARK    6  A    between atoms: C_9  and  C_14
REMARK    7  A    between atoms: C_13  and  C_15
REMARK    8  A    between atoms: C_17  and  C_19
REMARK    9  A    between atoms: C_18  and  C_20
REMARK                            x       y       z     vdW  Elec       q    Type
REMARK                         _______ _______ _______ _____ _____    ______ ____
ROOT
ATOM      1  O   UNL     1      -9.836  -8.022  15.036  0.00  0.00    -0.369 OA
ATOM      8  C   UNL     1     -10.867  -8.945  14.676  0.00  0.00    +0.125 C 
ATOM      9  C   UNL     1     -10.051  -7.315  16.263  0.00  0.00    +0.164 C 
ATOM     10  C   UNL     1     -11.396  -6.576  16.253  0.00  0.00    +0.145 C 
ATOM     11  C   UNL     1     -12.209  -8.227  14.540  0.00  0.00    +0.034 C 
ATOM     12  C   UNL     1     -12.550  -7.477  15.824  0.00  0.00    +0.036 C 
ENDROOT
BRANCH  10   2
ATOM      2  O   UNL     1     -11.319  -5.491  15.324  0.00  0.00    -0.389 OA
ATOM     32  H   UNL     1     -11.182  -5.872  14.440  0.00  0.00    +0.210 HD
ENDBRANCH  10   2
BRANCH   8  13
ATOM     13  C   UNL     1     -10.462  -9.595  13.359  0.00  0.00    +0.090 C 
BRANCH  13  15
ATOM      3  O   UNL     1      -8.069 -12.258  13.778  0.00  0.00    -0.354 OA
ATOM      7  N   UNL     1      -9.369 -11.780  13.662  0.00  0.00    -0.083 NA
ATOM     15  C   UNL     1      -9.239 -10.458  13.516  0.00  0.00    +0.087 A 
ATOM     16  C   UNL     1      -7.895 -10.049  13.532  0.00  0.00    +0.076 A 
ATOM     18  C   UNL     1      -7.200 -11.218  13.699  0.00  0.00    +0.167 A 
BRANCH  18  20
ATOM     20  C   UNL     1      -5.811 -11.559  13.803  0.00  0.00    +0.020 A 
ATOM     21  C   UNL     1      -5.435 -12.814  14.282  0.00  0.00    +0.015 A 
ATOM     22  C   UNL     1      -4.837 -10.636  13.425  0.00  0.00    +0.015 A 
ATOM     25  C   UNL     1      -4.084 -13.145  14.382  0.00  0.00    +0.046 A 
ATOM     26  C   UNL     1      -3.485 -10.967  13.526  0.00  0.00    +0.046 A 
ATOM     29  C   UNL     1      -3.109 -12.222  14.004  0.00  0.00    +0.120 A 
BRANCH  29   5
ATOM      5  O   UNL     1      -1.791 -12.545  14.105  0.00  0.00    -0.495 OA
ATOM     31  C   UNL     1      -1.393 -13.817  13.596  0.00  0.00    +0.277 C 
ENDBRANCH  29   5
ENDBRANCH  18  20
ENDBRANCH  13  15
ENDBRANCH   8  13
BRANCH   9  14
ATOM     14  C   UNL     1      -9.887  -8.239  17.468  0.00  0.00    +0.138 C 
BRANCH  14   6
ATOM      4  O   UNL     1      -9.167 -10.979  17.001  0.00  0.00    -0.270 OA
ATOM      6  N   UNL     1      -8.570  -8.796  17.513  0.00  0.00    -0.309 N 
ATOM     17  C   UNL     1      -8.309 -10.144  17.271  0.00  0.00    +0.244 C 
ATOM     33  H   UNL     1      -7.824  -8.178  17.816  0.00  0.00    +0.149 HD
BRANCH  17  19
ATOM     19  C   UNL     1      -6.890 -10.569  17.381  0.00  0.00    +0.037 A 
ATOM     23  C   UNL     1      -5.874  -9.738  16.910  0.00  0.00    +0.013 A 
ATOM     24  C   UNL     1      -6.574 -11.799  17.957  0.00  0.00    +0.013 A 
ATOM     27  C   UNL     1      -4.541 -10.138  17.014  0.00  0.00    +0.001 A 
ATOM     28  C   UNL     1      -5.242 -12.200  18.061  0.00  0.00    +0.001 A 
ATOM     30  C   UNL     1      -4.225 -11.368  17.590  0.00  0.00    +0.000 A 
ENDBRANCH  17  19
ENDBRANCH  14   6
ENDBRANCH   9  14
TORSDOF 8
ENDMDL
MODEL 10
REMARK VINA RESULT:      -6.8     19.868     22.966
REMARK  Name = 75536385
REMARK  9 active torsions:
REMARK  status: ('A' for Active; 'I' for Inactive)
REMARK    1  A    between atoms: O_2  and  C_10
REMARK    2  A    between atoms: O_5  and  C_29
REMARK    3  A    between atoms: O_5  and  C_31
REMARK    4  A    between atoms: N_6  and  C_14
REMARK    5  A    between atoms: C_8  and  C_13
REMARK    6  A    between atoms: C_9  and  C_14
REMARK    7  A    between atoms: C_13  and  C_15
REMARK    8  A    between atoms: C_17  and  C_19
REMARK    9  A    between atoms: C_18  and  C_20
REMARK                            x       y       z     vdW  Elec       q    Type
REMARK                         _______ _______ _______ _____ _____    ______ ____
ROOT
ATOM      1  O   UNL     1      -6.802 -10.824  17.233  0.00  0.00    -0.369 OA
ATOM      8  C   UNL     1      -7.654 -11.966  17.345  0.00  0.00    +0.125 C 
ATOM      9  C   UNL     1      -5.635 -10.848  18.064  0.00  0.00    +0.164 C 
ATOM     10  C   UNL     1      -6.006 -11.048  19.540  0.00  0.00    +0.145 C 
ATOM     11  C   UNL     1      -8.143 -12.134  18.782  0.00  0.00    +0.034 C 
ATOM     12  C   UNL     1      -6.963 -12.218  19.746  0.00  0.00    +0.036 C 
ENDROOT
BRANCH  10   2
ATOM      2  O   UNL     1      -6.654  -9.865  20.016  0.00  0.00    -0.389 OA
ATOM     32  H   UNL     1      -7.321 -10.138  20.667  0.00  0.00    +0.210 HD
ENDBRANCH  10   2
BRANCH   8  13
ATOM     13  C   UNL     1      -8.826 -11.760  16.393  0.00  0.00    +0.090 C 
BRANCH  13  15
ATOM      3  O   UNL     1      -8.303  -9.372  13.744  0.00  0.00    -0.354 OA
ATOM      7  N   UNL     1      -8.865  -9.765  14.953  0.00  0.00    -0.083 NA
ATOM     15  C   UNL     1      -8.415 -11.006  15.158  0.00  0.00    +0.087 A 
ATOM     16  C   UNL     1      -7.572 -11.444  14.122  0.00  0.00    +0.076 A 
ATOM     18  C   UNL     1      -7.535 -10.381  13.259  0.00  0.00    +0.167 A 
BRANCH  18  20
ATOM     20  C   UNL     1      -6.883 -10.120  12.009  0.00  0.00    +0.020 A 
ATOM     21  C   UNL     1      -7.046 -11.004  10.941  0.00  0.00    +0.015 A 
ATOM     22  C   UNL     1      -6.088  -8.985  11.860  0.00  0.00    +0.015 A 
ATOM     25  C   UNL     1      -6.412 -10.750   9.725  0.00  0.00    +0.046 A 
ATOM     26  C   UNL     1      -5.454  -8.732  10.643  0.00  0.00    +0.046 A 
ATOM     29  C   UNL     1      -5.616  -9.614   9.576  0.00  0.00    +0.120 A 
BRANCH  29   5
ATOM      5  O   UNL     1      -4.996  -9.369   8.389  0.00  0.00    -0.495 OA
ATOM     31  C   UNL     1      -4.967 -10.433   7.440  0.00  0.00    +0.277 C 
ENDBRANCH  29   5
ENDBRANCH  18  20
ENDBRANCH  13  15
ENDBRANCH   8  13
BRANCH   9  14
ATOM     14  C   UNL     1      -4.622 -11.873  17.561  0.00  0.00    +0.138 C 
BRANCH  14   6
ATOM      4  O   UNL     1      -4.734 -13.634  15.296  0.00  0.00    -0.270 OA
ATOM      6  N   UNL     1      -4.209 -11.573  16.224  0.00  0.00    -0.309 N 
ATOM     17  C   UNL     1      -4.300 -12.492  15.179  0.00  0.00    +0.244 C 
ATOM     33  H   UNL     1      -3.759 -10.676  16.077  0.00  0.00    +0.149 HD
BRANCH  17  19
ATOM     19  C   UNL     1      -3.805 -12.034  13.856  0.00  0.00    +0.037 A 
ATOM     23  C   UNL     1      -4.030 -12.811  12.720  0.00  0.00    +0.013 A 
ATOM     24  C   UNL     1      -3.117 -10.826  13.749  0.00  0.00    +0.013 A 
ATOM     27  C   UNL     1      -3.565 -12.381  11.477  0.00  0.00    +0.001 A 
ATOM     28  C   UNL     1      -2.651 -10.395  12.506  0.00  0.00    +0.001 A 
ATOM     30  C   UNL     1      -2.877 -11.173  11.370  0.00  0.00    +0.000 A 
ENDBRANCH  17  19
ENDBRANCH  14   6
ENDBRANCH   9  14
TORSDOF 8
ENDMDL
