MODEL 1
REMARK VINA RESULT:      -6.7      0.000      0.000
REMARK  Name = 45783567
REMARK  11 active torsions:
REMARK  status: ('A' for Active; 'I' for Inactive)
REMARK    1  A    between atoms: O_2  and  C_28
REMARK    2  A    between atoms: O_2  and  C_30
REMARK    3  A    between atoms: O_4  and  C_31
REMARK    4  A    between atoms: O_4  and  C_32
REMARK    5  A    between atoms: N_5  and  C_14
REMARK    6  A    between atoms: N_8  and  C_22
REMARK    7  A    between atoms: C_10  and  C_15
REMARK    8  A    between atoms: C_14  and  C_16
REMARK    9  A    between atoms: C_19  and  C_23
REMARK   10  A    between atoms: C_27  and  C_29
REMARK   11  A    between atoms: C_30  and  C_31
REMARK                            x       y       z     vdW  Elec       q    Type
REMARK                         _______ _______ _______ _____ _____    ______ ____
ROOT
ATOM      5  N   UNL     1      -2.912 -10.433  13.780  0.00  0.00    -0.287 NA
ATOM     10  C   UNL     1      -3.273 -11.280  14.935  0.00  0.00    +0.146 C 
ATOM     11  C   UNL     1      -2.291 -10.863  16.046  0.00  0.00    +0.030 C 
ATOM     12  C   UNL     1      -1.382  -9.824  15.406  0.00  0.00    +0.017 C 
ATOM     13  C   UNL     1      -1.490 -10.122  13.924  0.00  0.00    +0.085 C 
ENDROOT
BRANCH  10  15
ATOM      1  O   UNL     1      -5.353 -12.239  15.783  0.00  0.00    -0.336 OA
ATOM      6  N   UNL     1      -5.473 -10.048  15.336  0.00  0.00    -0.190 NA
ATOM      7  N   UNL     1      -6.662 -11.849  16.096  0.00  0.00    -0.056 NA
ATOM     15  C   UNL     1      -4.722 -11.120  15.343  0.00  0.00    +0.245 A 
ATOM     19  C   UNL     1      -6.654 -10.545  15.806  0.00  0.00    +0.204 A 
BRANCH  19  23
ATOM      9  N   UNL     1      -9.764  -8.670  15.007  0.00  0.00    -0.221 NA
ATOM     23  C   UNL     1      -7.808  -9.710  15.975  0.00  0.00    +0.041 A 
ATOM     24  C   UNL     1      -8.104  -9.138  17.207  0.00  0.00    +0.018 A 
ATOM     25  C   UNL     1      -8.662  -9.447  14.916  0.00  0.00    +0.126 A 
ATOM     26  C   UNL     1      -9.229  -8.332  17.341  0.00  0.00    +0.068 A 
ATOM     28  C   UNL     1     -10.020  -8.131  16.221  0.00  0.00    +0.215 A 
BRANCH  28   2
ATOM      2  O   UNL     1     -11.134  -7.340  16.327  0.00  0.00    -0.474 OA
BRANCH   2  30
ATOM     30  C   UNL     1     -11.080  -6.070  15.687  0.00  0.00    +0.258 C 
BRANCH  30  31
ATOM     31  C   UNL     1     -12.318  -5.897  14.828  0.00  0.00    +0.200 C 
BRANCH  31   4
ATOM      4  O   UNL     1     -12.068  -4.895  13.850  0.00  0.00    -0.380 OA
ATOM     32  C   UNL     1     -13.275  -4.436  13.255  0.00  0.00    +0.194 C 
ENDBRANCH  31   4
ENDBRANCH  30  31
ENDBRANCH   2  30
ENDBRANCH  28   2
ENDBRANCH  19  23
ENDBRANCH  10  15
BRANCH   5  14
ATOM     14  C   UNL     1      -3.209 -11.057  12.496  0.00  0.00    +0.120 C 
BRANCH  14  16
ATOM     16  C   UNL     1      -4.002 -10.143  11.600  0.00  0.00    -0.033 A 
ATOM     17  C   UNL     1      -5.277  -9.725  11.984  0.00  0.00    +0.007 A 
ATOM     18  C   UNL     1      -3.465  -9.714  10.386  0.00  0.00    +0.007 A 
ATOM     20  C   UNL     1      -6.013  -8.879  11.154  0.00  0.00    +0.023 A 
ATOM     21  C   UNL     1      -4.200  -8.869   9.557  0.00  0.00    +0.023 A 
ATOM     22  C   UNL     1      -5.475  -8.451   9.941  0.00  0.00    +0.033 A 
BRANCH  22   8
ATOM      3  O   UNL     1      -8.138  -8.860   8.597  0.00  0.00    -0.276 OA
ATOM      8  N   UNL     1      -6.211  -7.604   9.111  0.00  0.00    -0.286 N 
ATOM     27  C   UNL     1      -7.452  -7.849   8.508  0.00  0.00    +0.214 C 
ATOM     29  C   UNL     1      -7.912  -6.673   7.682  0.00  0.00    +0.109 C 
ATOM     33  H   UNL     1      -5.783  -6.700   8.926  0.00  0.00    +0.155 HD
ENDBRANCH  22   8
ENDBRANCH  14  16
ENDBRANCH   5  14
TORSDOF 9
ENDMDL
MODEL 2
REMARK VINA RESULT:      -6.6     18.499     20.012
REMARK  Name = 45783567
REMARK  11 active torsions:
REMARK  status: ('A' for Active; 'I' for Inactive)
REMARK    1  A    between atoms: O_2  and  C_28
REMARK    2  A    between atoms: O_2  and  C_30
REMARK    3  A    between atoms: O_4  and  C_31
REMARK    4  A    between atoms: O_4  and  C_32
REMARK    5  A    between atoms: N_5  and  C_14
REMARK    6  A    between atoms: N_8  and  C_22
REMARK    7  A    between atoms: C_10  and  C_15
REMARK    8  A    between atoms: C_14  and  C_16
REMARK    9  A    between atoms: C_19  and  C_23
REMARK   10  A    between atoms: C_27  and  C_29
REMARK   11  A    between atoms: C_30  and  C_31
REMARK                            x       y       z     vdW  Elec       q    Type
REMARK                         _______ _______ _______ _____ _____    ______ ____
ROOT
ATOM      5  N   UNL     1     -14.923   5.878  21.364  0.00  0.00    -0.287 NA
ATOM     10  C   UNL     1     -16.198   5.821  22.107  0.00  0.00    +0.146 C 
ATOM     11  C   UNL     1     -17.287   5.909  21.022  0.00  0.00    +0.030 C 
ATOM     12  C   UNL     1     -16.531   6.074  19.711  0.00  0.00    +0.017 C 
ATOM     13  C   UNL     1     -15.191   6.635  20.141  0.00  0.00    +0.085 C 
ENDROOT
BRANCH  10  15
ATOM      1  O   UNL     1     -16.574   3.414  22.298  0.00  0.00    -0.336 OA
ATOM      6  N   UNL     1     -16.219   4.442  24.256  0.00  0.00    -0.190 NA
ATOM      7  N   UNL     1     -16.645   2.418  23.280  0.00  0.00    -0.056 NA
ATOM     15  C   UNL     1     -16.320   4.575  22.958  0.00  0.00    +0.245 A 
ATOM     19  C   UNL     1     -16.425   3.101  24.407  0.00  0.00    +0.204 A 
BRANCH  19  23
ATOM      9  N   UNL     1     -16.727   0.487  27.034  0.00  0.00    -0.221 NA
ATOM     23  C   UNL     1     -16.404   2.476  25.697  0.00  0.00    +0.041 A 
ATOM     24  C   UNL     1     -16.062   3.195  26.837  0.00  0.00    +0.018 A 
ATOM     25  C   UNL     1     -16.726   1.137  25.848  0.00  0.00    +0.126 A 
ATOM     26  C   UNL     1     -16.052   2.563  28.075  0.00  0.00    +0.068 A 
ATOM     28  C   UNL     1     -16.388   1.219  28.120  0.00  0.00    +0.215 A 
BRANCH  28   2
ATOM      2  O   UNL     1     -16.386   0.574  29.328  0.00  0.00    -0.474 OA
BRANCH   2  30
ATOM     30  C   UNL     1     -15.129   0.097  29.796  0.00  0.00    +0.258 C 
BRANCH  30  31
ATOM     31  C   UNL     1     -15.003   0.406  31.276  0.00  0.00    +0.200 C 
BRANCH  31   4
ATOM      4  O   UNL     1     -15.176   1.804  31.474  0.00  0.00    -0.380 OA
ATOM     32  C   UNL     1     -13.935   2.453  31.716  0.00  0.00    +0.194 C 
ENDBRANCH  31   4
ENDBRANCH  30  31
ENDBRANCH   2  30
ENDBRANCH  28   2
ENDBRANCH  19  23
ENDBRANCH  10  15
BRANCH   5  14
ATOM     14  C   UNL     1     -13.832   6.456  22.139  0.00  0.00    +0.120 C 
BRANCH  14  16
ATOM     16  C   UNL     1     -13.017   7.423  21.322  0.00  0.00    -0.033 A 
ATOM     17  C   UNL     1     -13.293   8.789  21.379  0.00  0.00    +0.007 A 
ATOM     18  C   UNL     1     -11.987   6.954  20.506  0.00  0.00    +0.007 A 
ATOM     20  C   UNL     1     -12.539   9.686  20.622  0.00  0.00    +0.023 A 
ATOM     21  C   UNL     1     -11.233   7.849  19.749  0.00  0.00    +0.023 A 
ATOM     22  C   UNL     1     -11.510   9.216  19.807  0.00  0.00    +0.033 A 
BRANCH  22   8
ATOM      3  O   UNL     1     -11.399   9.649  16.829  0.00  0.00    -0.276 OA
ATOM      8  N   UNL     1     -10.755  10.112  19.049  0.00  0.00    -0.286 N 
ATOM     27  C   UNL     1     -10.742  10.271  17.656  0.00  0.00    +0.214 C 
ATOM     29  C   UNL     1      -9.784  11.354  17.227  0.00  0.00    +0.109 C 
ATOM     33  H   UNL     1     -10.140  10.722  19.584  0.00  0.00    +0.155 HD
ENDBRANCH  22   8
ENDBRANCH  14  16
ENDBRANCH   5  14
TORSDOF 9
ENDMDL
MODEL 3
REMARK VINA RESULT:      -6.5      3.503      8.399
REMARK  Name = 45783567
REMARK  11 active torsions:
REMARK  status: ('A' for Active; 'I' for Inactive)
REMARK    1  A    between atoms: O_2  and  C_28
REMARK    2  A    between atoms: O_2  and  C_30
REMARK    3  A    between atoms: O_4  and  C_31
REMARK    4  A    between atoms: O_4  and  C_32
REMARK    5  A    between atoms: N_5  and  C_14
REMARK    6  A    between atoms: N_8  and  C_22
REMARK    7  A    between atoms: C_10  and  C_15
REMARK    8  A    between atoms: C_14  and  C_16
REMARK    9  A    between atoms: C_19  and  C_23
REMARK   10  A    between atoms: C_27  and  C_29
REMARK   11  A    between atoms: C_30  and  C_31
REMARK                            x       y       z     vdW  Elec       q    Type
REMARK                         _______ _______ _______ _____ _____    ______ ____
ROOT
ATOM      5  N   UNL     1     -11.347 -10.419  17.421  0.00  0.00    -0.287 NA
ATOM     10  C   UNL     1     -10.781 -11.378  18.392  0.00  0.00    +0.146 C 
ATOM     11  C   UNL     1     -11.148 -12.764  17.831  0.00  0.00    +0.030 C 
ATOM     12  C   UNL     1     -11.968 -12.483  16.579  0.00  0.00    +0.017 C 
ATOM     13  C   UNL     1     -12.498 -11.082  16.809  0.00  0.00    +0.085 C 
ENDROOT
BRANCH  10  15
ATOM      1  O   UNL     1      -8.867 -10.970  19.855  0.00  0.00    -0.336 OA
ATOM      6  N   UNL     1      -8.329 -11.232  17.696  0.00  0.00    -0.190 NA
ATOM      7  N   UNL     1      -7.474 -10.839  19.782  0.00  0.00    -0.056 NA
ATOM     15  C   UNL     1      -9.290 -11.200  18.584  0.00  0.00    +0.245 A 
ATOM     19  C   UNL     1      -7.233 -11.007  18.478  0.00  0.00    +0.204 A 
BRANCH  19  23
ATOM      9  N   UNL     1      -4.449 -10.260  16.129  0.00  0.00    -0.221 NA
ATOM     23  C   UNL     1      -5.911 -10.955  17.925  0.00  0.00    +0.041 A 
ATOM     24  C   UNL     1      -4.831 -11.520  18.595  0.00  0.00    +0.018 A 
ATOM     25  C   UNL     1      -5.668 -10.342  16.706  0.00  0.00    +0.126 A 
ATOM     26  C   UNL     1      -3.561 -11.456  18.034  0.00  0.00    +0.068 A 
ATOM     28  C   UNL     1      -3.423 -10.820  16.811  0.00  0.00    +0.215 A 
BRANCH  28   2
ATOM      2  O   UNL     1      -2.182 -10.744  16.237  0.00  0.00    -0.474 OA
BRANCH   2  30
ATOM     30  C   UNL     1      -2.130 -10.787  14.815  0.00  0.00    +0.258 C 
BRANCH  30  31
ATOM     31  C   UNL     1      -1.784 -12.197  14.375  0.00  0.00    +0.200 C 
BRANCH  31   4
ATOM      4  O   UNL     1      -1.883 -12.278  12.958  0.00  0.00    -0.380 OA
ATOM     32  C   UNL     1      -2.012 -10.990  12.371  0.00  0.00    +0.194 C 
ENDBRANCH  31   4
ENDBRANCH  30  31
ENDBRANCH   2  30
ENDBRANCH  28   2
ENDBRANCH  19  23
ENDBRANCH  10  15
BRANCH   5  14
ATOM     14  C   UNL     1     -11.707  -9.140  18.021  0.00  0.00    +0.120 C 
BRANCH  14  16
ATOM     16  C   UNL     1     -11.749  -8.035  16.998  0.00  0.00    -0.033 A 
ATOM     17  C   UNL     1     -10.571  -7.396  16.613  0.00  0.00    +0.007 A 
ATOM     18  C   UNL     1     -12.967  -7.649  16.437  0.00  0.00    +0.007 A 
ATOM     20  C   UNL     1     -10.609  -6.372  15.666  0.00  0.00    +0.023 A 
ATOM     21  C   UNL     1     -13.006  -6.626  15.491  0.00  0.00    +0.023 A 
ATOM     22  C   UNL     1     -11.827  -5.987  15.106  0.00  0.00    +0.033 A 
BRANCH  22   8
ATOM      3  O   UNL     1     -12.678  -6.026  12.218  0.00  0.00    -0.276 OA
ATOM      8  N   UNL     1     -11.866  -4.963  14.159  0.00  0.00    -0.286 N 
ATOM     27  C   UNL     1     -12.273  -5.038  12.820  0.00  0.00    +0.214 C 
ATOM     29  C   UNL     1     -12.168  -3.701  12.128  0.00  0.00    +0.109 C 
ATOM     33  H   UNL     1     -11.560  -4.051  14.492  0.00  0.00    +0.155 HD
ENDBRANCH  22   8
ENDBRANCH  14  16
ENDBRANCH   5  14
TORSDOF 9
ENDMDL
MODEL 4
REMARK VINA RESULT:      -6.5     20.709     25.088
REMARK  Name = 45783567
REMARK  11 active torsions:
REMARK  status: ('A' for Active; 'I' for Inactive)
REMARK    1  A    between atoms: O_2  and  C_28
REMARK    2  A    between atoms: O_2  and  C_30
REMARK    3  A    between atoms: O_4  and  C_31
REMARK    4  A    between atoms: O_4  and  C_32
REMARK    5  A    between atoms: N_5  and  C_14
REMARK    6  A    between atoms: N_8  and  C_22
REMARK    7  A    between atoms: C_10  and  C_15
REMARK    8  A    between atoms: C_14  and  C_16
REMARK    9  A    between atoms: C_19  and  C_23
REMARK   10  A    between atoms: C_27  and  C_29
REMARK   11  A    between atoms: C_30  and  C_31
REMARK                            x       y       z     vdW  Elec       q    Type
REMARK                         _______ _______ _______ _____ _____    ______ ____
ROOT
ATOM      5  N   UNL     1     -13.892   6.756  33.310  0.00  0.00    -0.287 NA
ATOM     10  C   UNL     1     -13.855   8.233  33.326  0.00  0.00    +0.146 C 
ATOM     11  C   UNL     1     -13.272   8.594  34.705  0.00  0.00    +0.030 C 
ATOM     12  C   UNL     1     -13.071   7.262  35.414  0.00  0.00    +0.017 C 
ATOM     13  C   UNL     1     -14.033   6.332  34.703  0.00  0.00    +0.085 C 
ENDROOT
BRANCH  10  15
ATOM      1  O   UNL     1     -11.700   8.640  32.249  0.00  0.00    -0.336 OA
ATOM      6  N   UNL     1     -13.454   9.452  31.118  0.00  0.00    -0.190 NA
ATOM      7  N   UNL     1     -11.176   9.246  31.100  0.00  0.00    -0.056 NA
ATOM     15  C   UNL     1     -13.047   8.806  32.181  0.00  0.00    +0.245 A 
ATOM     19  C   UNL     1     -12.272   9.700  30.484  0.00  0.00    +0.204 A 
BRANCH  19  23
ATOM      9  N   UNL     1     -13.078  12.169  27.823  0.00  0.00    -0.221 NA
ATOM     23  C   UNL     1     -12.219  10.405  29.236  0.00  0.00    +0.041 A 
ATOM     24  C   UNL     1     -11.310  10.046  28.248  0.00  0.00    +0.018 A 
ATOM     25  C   UNL     1     -13.074  11.465  28.976  0.00  0.00    +0.126 A 
ATOM     26  C   UNL     1     -11.283  10.746  27.047  0.00  0.00    +0.068 A 
ATOM     28  C   UNL     1     -12.179  11.791  26.886  0.00  0.00    +0.215 A 
BRANCH  28   2
ATOM      2  O   UNL     1     -12.172  12.497  25.711  0.00  0.00    -0.474 OA
BRANCH   2  30
ATOM     30  C   UNL     1     -12.313  11.743  24.512  0.00  0.00    +0.258 C 
BRANCH  30  31
ATOM     31  C   UNL     1     -13.768  11.350  24.342  0.00  0.00    +0.200 C 
BRANCH  31   4
ATOM      4  O   UNL     1     -13.834  10.027  23.825  0.00  0.00    -0.380 OA
ATOM     32  C   UNL     1     -13.206   9.934  22.553  0.00  0.00    +0.194 C 
ENDBRANCH  31   4
ENDBRANCH  30  31
ENDBRANCH   2  30
ENDBRANCH  28   2
ENDBRANCH  19  23
ENDBRANCH  10  15
BRANCH   5  14
ATOM     14  C   UNL     1     -14.950   6.218  32.463  0.00  0.00    +0.120 C 
BRANCH  14  16
ATOM     16  C   UNL     1     -14.537   4.929  31.804  0.00  0.00    -0.033 A 
ATOM     17  C   UNL     1     -13.417   4.237  32.267  0.00  0.00    +0.007 A 
ATOM     18  C   UNL     1     -15.272   4.426  30.730  0.00  0.00    +0.007 A 
ATOM     20  C   UNL     1     -13.034   3.043  31.656  0.00  0.00    +0.023 A 
ATOM     21  C   UNL     1     -14.888   3.233  30.119  0.00  0.00    +0.023 A 
ATOM     22  C   UNL     1     -13.768   2.541  30.582  0.00  0.00    +0.033 A 
BRANCH  22   8
ATOM      3  O   UNL     1     -14.726  -0.279  31.028  0.00  0.00    -0.276 OA
ATOM      8  N   UNL     1     -13.385   1.347  29.971  0.00  0.00    -0.286 N 
ATOM     27  C   UNL     1     -13.866   0.054  30.220  0.00  0.00    +0.214 C 
ATOM     29  C   UNL     1     -13.193  -0.971  29.342  0.00  0.00    +0.109 C 
ATOM     33  H   UNL     1     -12.666   1.437  29.256  0.00  0.00    +0.155 HD
ENDBRANCH  22   8
ENDBRANCH  14  16
ENDBRANCH   5  14
TORSDOF 9
ENDMDL
MODEL 5
REMARK VINA RESULT:      -6.5      3.072      3.713
REMARK  Name = 45783567
REMARK  11 active torsions:
REMARK  status: ('A' for Active; 'I' for Inactive)
REMARK    1  A    between atoms: O_2  and  C_28
REMARK    2  A    between atoms: O_2  and  C_30
REMARK    3  A    between atoms: O_4  and  C_31
REMARK    4  A    between atoms: O_4  and  C_32
REMARK    5  A    between atoms: N_5  and  C_14
REMARK    6  A    between atoms: N_8  and  C_22
REMARK    7  A    between atoms: C_10  and  C_15
REMARK    8  A    between atoms: C_14  and  C_16
REMARK    9  A    between atoms: C_19  and  C_23
REMARK   10  A    between atoms: C_27  and  C_29
REMARK   11  A    between atoms: C_30  and  C_31
REMARK                            x       y       z     vdW  Elec       q    Type
REMARK                         _______ _______ _______ _____ _____    ______ ____
ROOT
ATOM      5  N   UNL     1      -2.704 -10.653  13.805  0.00  0.00    -0.287 NA
ATOM     10  C   UNL     1      -2.515 -11.617  14.908  0.00  0.00    +0.146 C 
ATOM     11  C   UNL     1      -1.477 -10.954  15.832  0.00  0.00    +0.030 C 
ATOM     12  C   UNL     1      -1.098  -9.653  15.138  0.00  0.00    +0.017 C 
ATOM     13  C   UNL     1      -1.450  -9.910  13.686  0.00  0.00    +0.085 C 
ENDROOT
BRANCH  10  15
ATOM      1  O   UNL     1      -4.343 -13.169  15.374  0.00  0.00    -0.336 OA
ATOM      6  N   UNL     1      -4.505 -11.215  16.456  0.00  0.00    -0.190 NA
ATOM      7  N   UNL     1      -5.518 -13.241  16.133  0.00  0.00    -0.056 NA
ATOM     15  C   UNL     1      -3.809 -11.945  15.622  0.00  0.00    +0.245 A 
ATOM     19  C   UNL     1      -5.544 -12.052  16.743  0.00  0.00    +0.204 A 
BRANCH  19  23
ATOM      9  N   UNL     1      -7.712 -11.988  19.763  0.00  0.00    -0.221 NA
ATOM     23  C   UNL     1      -6.593 -11.670  17.644  0.00  0.00    +0.041 A 
ATOM     24  C   UNL     1      -7.489 -10.660  17.314  0.00  0.00    +0.018 A 
ATOM     25  C   UNL     1      -6.747 -12.298  18.870  0.00  0.00    +0.126 A 
ATOM     26  C   UNL     1      -8.497 -10.312  18.206  0.00  0.00    +0.068 A 
ATOM     28  C   UNL     1      -8.565 -11.000  19.407  0.00  0.00    +0.215 A 
BRANCH  28   2
ATOM      2  O   UNL     1      -9.549 -10.676  20.304  0.00  0.00    -0.474 OA
BRANCH   2  30
ATOM     30  C   UNL     1     -10.832 -11.249  20.079  0.00  0.00    +0.258 C 
BRANCH  30  31
ATOM     31  C   UNL     1     -11.796 -10.156  19.657  0.00  0.00    +0.200 C 
BRANCH  31   4
ATOM      4  O   UNL     1     -12.734  -9.936  20.702  0.00  0.00    -0.380 OA
ATOM     32  C   UNL     1     -13.252 -11.161  21.203  0.00  0.00    +0.194 C 
ENDBRANCH  31   4
ENDBRANCH  30  31
ENDBRANCH   2  30
ENDBRANCH  28   2
ENDBRANCH  19  23
ENDBRANCH  10  15
BRANCH   5  14
ATOM     14  C   UNL     1      -3.087 -11.286  12.549  0.00  0.00    +0.120 C 
BRANCH  14  16
ATOM     16  C   UNL     1      -3.872 -10.350  11.668  0.00  0.00    -0.033 A 
ATOM     17  C   UNL     1      -3.373  -9.987  10.417  0.00  0.00    +0.007 A 
ATOM     18  C   UNL     1      -5.097  -9.844  12.103  0.00  0.00    +0.007 A 
ATOM     20  C   UNL     1      -4.099  -9.120   9.601  0.00  0.00    +0.023 A 
ATOM     21  C   UNL     1      -5.823  -8.976  11.288  0.00  0.00    +0.023 A 
ATOM     22  C   UNL     1      -5.323  -8.614  10.036  0.00  0.00    +0.033 A 
BRANCH  22   8
ATOM      3  O   UNL     1      -8.142  -8.809   8.996  0.00  0.00    -0.276 OA
ATOM      8  N   UNL     1      -6.051  -7.746   9.220  0.00  0.00    -0.286 N 
ATOM     27  C   UNL     1      -7.368  -7.889   8.763  0.00  0.00    +0.214 C 
ATOM     29  C   UNL     1      -7.788  -6.725   7.899  0.00  0.00    +0.109 C 
ATOM     33  H   UNL     1      -5.553  -6.909   8.926  0.00  0.00    +0.155 HD
ENDBRANCH  22   8
ENDBRANCH  14  16
ENDBRANCH   5  14
TORSDOF 9
ENDMDL
MODEL 6
REMARK VINA RESULT:      -6.4     18.670     21.422
REMARK  Name = 45783567
REMARK  11 active torsions:
REMARK  status: ('A' for Active; 'I' for Inactive)
REMARK    1  A    between atoms: O_2  and  C_28
REMARK    2  A    between atoms: O_2  and  C_30
REMARK    3  A    between atoms: O_4  and  C_31
REMARK    4  A    between atoms: O_4  and  C_32
REMARK    5  A    between atoms: N_5  and  C_14
REMARK    6  A    between atoms: N_8  and  C_22
REMARK    7  A    between atoms: C_10  and  C_15
REMARK    8  A    between atoms: C_14  and  C_16
REMARK    9  A    between atoms: C_19  and  C_23
REMARK   10  A    between atoms: C_27  and  C_29
REMARK   11  A    between atoms: C_30  and  C_31
REMARK                            x       y       z     vdW  Elec       q    Type
REMARK                         _______ _______ _______ _____ _____    ______ ____
ROOT
ATOM      5  N   UNL     1     -11.957   9.887  20.536  0.00  0.00    -0.287 NA
ATOM     10  C   UNL     1     -12.536   8.779  19.749  0.00  0.00    +0.146 C 
ATOM     11  C   UNL     1     -11.485   8.480  18.664  0.00  0.00    +0.030 C 
ATOM     12  C   UNL     1     -10.383   9.507  18.883  0.00  0.00    +0.017 C 
ATOM     13  C   UNL     1     -11.083  10.627  19.626  0.00  0.00    +0.085 C 
ENDROOT
BRANCH  10  15
ATOM      1  O   UNL     1     -11.821   6.743  20.896  0.00  0.00    -0.336 OA
ATOM      6  N   UNL     1     -14.006   7.187  21.100  0.00  0.00    -0.190 NA
ATOM      7  N   UNL     1     -12.356   5.711  21.677  0.00  0.00    -0.056 NA
ATOM     15  C   UNL     1     -12.859   7.568  20.599  0.00  0.00    +0.245 A 
ATOM     19  C   UNL     1     -13.648   6.044  21.753  0.00  0.00    +0.204 A 
BRANCH  19  23
ATOM      9  N   UNL     1     -15.142   3.929  24.422  0.00  0.00    -0.221 NA
ATOM     23  C   UNL     1     -14.606   5.256  22.473  0.00  0.00    +0.041 A 
ATOM     24  C   UNL     1     -15.883   5.042  21.968  0.00  0.00    +0.018 A 
ATOM     25  C   UNL     1     -14.288   4.682  23.694  0.00  0.00    +0.126 A 
ATOM     26  C   UNL     1     -16.791   4.272  22.687  0.00  0.00    +0.068 A 
ATOM     28  C   UNL     1     -16.375   3.744  23.899  0.00  0.00    +0.215 A 
BRANCH  28   2
ATOM      2  O   UNL     1     -17.251   2.982  24.626  0.00  0.00    -0.474 OA
BRANCH   2  30
ATOM     30  C   UNL     1     -16.797   2.521  25.894  0.00  0.00    +0.258 C 
BRANCH  30  31
ATOM     31  C   UNL     1     -16.823   1.004  25.908  0.00  0.00    +0.200 C 
BRANCH  31   4
ATOM      4  O   UNL     1     -16.762   0.551  27.255  0.00  0.00    -0.380 OA
ATOM     32  C   UNL     1     -16.385   1.598  28.139  0.00  0.00    +0.194 C 
ENDBRANCH  31   4
ENDBRANCH  30  31
ENDBRANCH   2  30
ENDBRANCH  28   2
ENDBRANCH  19  23
ENDBRANCH  10  15
BRANCH   5  14
ATOM     14  C   UNL     1     -12.965  10.745  21.147  0.00  0.00    +0.120 C 
BRANCH  14  16
ATOM     16  C   UNL     1     -12.881  10.724  22.650  0.00  0.00    -0.033 A 
ATOM     17  C   UNL     1     -13.868  10.080  23.395  0.00  0.00    +0.007 A 
ATOM     18  C   UNL     1     -11.817  11.352  23.299  0.00  0.00    +0.007 A 
ATOM     20  C   UNL     1     -13.791  10.061  24.787  0.00  0.00    +0.023 A 
ATOM     21  C   UNL     1     -11.740  11.334  24.690  0.00  0.00    +0.023 A 
ATOM     22  C   UNL     1     -12.728  10.688  25.435  0.00  0.00    +0.033 A 
BRANCH  22   8
ATOM      3  O   UNL     1     -10.710   9.403  27.264  0.00  0.00    -0.276 OA
ATOM      8  N   UNL     1     -12.650  10.670  26.829  0.00  0.00    -0.286 N 
ATOM     27  C   UNL     1     -11.684  10.051  27.633  0.00  0.00    +0.214 C 
ATOM     29  C   UNL     1     -11.957  10.268  29.101  0.00  0.00    +0.109 C 
ATOM     33  H   UNL     1     -13.392  11.172  27.311  0.00  0.00    +0.155 HD
ENDBRANCH  22   8
ENDBRANCH  14  16
ENDBRANCH   5  14
TORSDOF 9
ENDMDL
MODEL 7
REMARK VINA RESULT:      -6.3      3.239      6.661
REMARK  Name = 45783567
REMARK  11 active torsions:
REMARK  status: ('A' for Active; 'I' for Inactive)
REMARK    1  A    between atoms: O_2  and  C_28
REMARK    2  A    between atoms: O_2  and  C_30
REMARK    3  A    between atoms: O_4  and  C_31
REMARK    4  A    between atoms: O_4  and  C_32
REMARK    5  A    between atoms: N_5  and  C_14
REMARK    6  A    between atoms: N_8  and  C_22
REMARK    7  A    between atoms: C_10  and  C_15
REMARK    8  A    between atoms: C_14  and  C_16
REMARK    9  A    between atoms: C_19  and  C_23
REMARK   10  A    between atoms: C_27  and  C_29
REMARK   11  A    between atoms: C_30  and  C_31
REMARK                            x       y       z     vdW  Elec       q    Type
REMARK                         _______ _______ _______ _____ _____    ______ ____
ROOT
ATOM      5  N   UNL     1      -6.068  -9.418   8.691  0.00  0.00    -0.287 NA
ATOM     10  C   UNL     1      -6.855  -8.524   9.564  0.00  0.00    +0.146 C 
ATOM     11  C   UNL     1      -8.200  -8.352   8.835  0.00  0.00    +0.030 C 
ATOM     12  C   UNL     1      -8.054  -9.134   7.537  0.00  0.00    +0.017 C 
ATOM     13  C   UNL     1      -6.554  -9.198   7.329  0.00  0.00    +0.085 C 
ENDROOT
BRANCH  10  15
ATOM      1  O   UNL     1      -8.209  -9.654  11.255  0.00  0.00    -0.336 OA
ATOM      6  N   UNL     1      -6.165  -9.073  11.960  0.00  0.00    -0.190 NA
ATOM      7  N   UNL     1      -8.122 -10.077  12.587  0.00  0.00    -0.056 NA
ATOM     15  C   UNL     1      -7.015  -9.074  10.965  0.00  0.00    +0.245 A 
ATOM     19  C   UNL     1      -6.888  -9.700  12.933  0.00  0.00    +0.204 A 
BRANCH  19  23
ATOM      9  N   UNL     1      -6.683  -9.985  16.635  0.00  0.00    -0.221 NA
ATOM     23  C   UNL     1      -6.348  -9.934  14.241  0.00  0.00    +0.041 A 
ATOM     24  C   UNL     1      -5.023 -10.320  14.411  0.00  0.00    +0.018 A 
ATOM     25  C   UNL     1      -7.129  -9.782  15.375  0.00  0.00    +0.126 A 
ATOM     26  C   UNL     1      -4.527 -10.539  15.691  0.00  0.00    +0.068 A 
ATOM     28  C   UNL     1      -5.389 -10.360  16.760  0.00  0.00    +0.215 A 
BRANCH  28   2
ATOM      2  O   UNL     1      -4.924 -10.569  18.031  0.00  0.00    -0.474 OA
BRANCH   2  30
ATOM     30  C   UNL     1      -5.379 -11.743  18.694  0.00  0.00    +0.258 C 
BRANCH  30  31
ATOM     31  C   UNL     1      -5.874 -11.370  20.079  0.00  0.00    +0.200 C 
BRANCH  31   4
ATOM      4  O   UNL     1      -7.169 -10.792  19.968  0.00  0.00    -0.380 OA
ATOM     32  C   UNL     1      -8.106 -11.715  19.429  0.00  0.00    +0.194 C 
ENDBRANCH  31   4
ENDBRANCH  30  31
ENDBRANCH   2  30
ENDBRANCH  28   2
ENDBRANCH  19  23
ENDBRANCH  10  15
BRANCH   5  14
ATOM     14  C   UNL     1      -4.629  -9.207   8.800  0.00  0.00    +0.120 C 
BRANCH  14  16
ATOM     16  C   UNL     1      -3.987 -10.198   9.733  0.00  0.00    -0.033 A 
ATOM     17  C   UNL     1      -4.349 -11.544   9.676  0.00  0.00    +0.007 A 
ATOM     18  C   UNL     1      -3.033  -9.772  10.657  0.00  0.00    +0.007 A 
ATOM     20  C   UNL     1      -3.755 -12.464  10.541  0.00  0.00    +0.023 A 
ATOM     21  C   UNL     1      -2.440 -10.690  11.522  0.00  0.00    +0.023 A 
ATOM     22  C   UNL     1      -2.801 -12.037  11.464  0.00  0.00    +0.033 A 
BRANCH  22   8
ATOM      3  O   UNL     1      -3.984 -13.652  13.713  0.00  0.00    -0.276 OA
ATOM      8  N   UNL     1      -2.207 -12.956  12.330  0.00  0.00    -0.286 N 
ATOM     27  C   UNL     1      -2.809 -13.682  13.366  0.00  0.00    +0.214 C 
ATOM     29  C   UNL     1      -1.818 -14.576  14.070  0.00  0.00    +0.109 C 
ATOM     33  H   UNL     1      -1.212 -13.111  12.181  0.00  0.00    +0.155 HD
ENDBRANCH  22   8
ENDBRANCH  14  16
ENDBRANCH   5  14
TORSDOF 9
ENDMDL
MODEL 8
REMARK VINA RESULT:      -6.2     25.165     28.139
REMARK  Name = 45783567
REMARK  11 active torsions:
REMARK  status: ('A' for Active; 'I' for Inactive)
REMARK    1  A    between atoms: O_2  and  C_28
REMARK    2  A    between atoms: O_2  and  C_30
REMARK    3  A    between atoms: O_4  and  C_31
REMARK    4  A    between atoms: O_4  and  C_32
REMARK    5  A    between atoms: N_5  and  C_14
REMARK    6  A    between atoms: N_8  and  C_22
REMARK    7  A    between atoms: C_10  and  C_15
REMARK    8  A    between atoms: C_14  and  C_16
REMARK    9  A    between atoms: C_19  and  C_23
REMARK   10  A    between atoms: C_27  and  C_29
REMARK   11  A    between atoms: C_30  and  C_31
REMARK                            x       y       z     vdW  Elec       q    Type
REMARK                         _______ _______ _______ _____ _____    ______ ____
ROOT
ATOM      5  N   UNL     1      10.139   5.411   6.279  0.00  0.00    -0.287 NA
ATOM     10  C   UNL     1       9.893   6.529   7.212  0.00  0.00    +0.146 C 
ATOM     11  C   UNL     1       9.776   5.865   8.596  0.00  0.00    +0.030 C 
ATOM     12  C   UNL     1       9.908   4.371   8.333  0.00  0.00    +0.017 C 
ATOM     13  C   UNL     1       9.516   4.230   6.876  0.00  0.00    +0.085 C 
ENDROOT
BRANCH  10  15
ATOM      1  O   UNL     1      10.642   8.824   7.592  0.00  0.00    -0.336 OA
ATOM      6  N   UNL     1      12.219   7.476   6.749  0.00  0.00    -0.190 NA
ATOM      7  N   UNL     1      11.791   9.612   7.448  0.00  0.00    -0.056 NA
ATOM     15  C   UNL     1      10.981   7.582   7.158  0.00  0.00    +0.245 A 
ATOM     19  C   UNL     1      12.677   8.746   6.946  0.00  0.00    +0.204 A 
BRANCH  19  23
ATOM      9  N   UNL     1      16.248   8.450   5.951  0.00  0.00    -0.221 NA
ATOM     23  C   UNL     1      14.026   9.118   6.632  0.00  0.00    +0.041 A 
ATOM     24  C   UNL     1      14.436  10.445   6.693  0.00  0.00    +0.018 A 
ATOM     25  C   UNL     1      14.962   8.167   6.259  0.00  0.00    +0.126 A 
ATOM     26  C   UNL     1      15.751  10.776   6.384  0.00  0.00    +0.068 A 
ATOM     28  C   UNL     1      16.609   9.751   6.022  0.00  0.00    +0.215 A 
BRANCH  28   2
ATOM      2  O   UNL     1      17.910  10.052   5.713  0.00  0.00    -0.474 OA
BRANCH   2  30
ATOM     30  C   UNL     1      18.631   9.079   4.964  0.00  0.00    +0.258 C 
BRANCH  30  31
ATOM     31  C   UNL     1      20.103   9.443   4.969  0.00  0.00    +0.200 C 
BRANCH  31   4
ATOM      4  O   UNL     1      20.841   8.383   5.564  0.00  0.00    -0.380 OA
ATOM     32  C   UNL     1      20.699   8.380   6.978  0.00  0.00    +0.194 C 
ENDBRANCH  31   4
ENDBRANCH  30  31
ENDBRANCH   2  30
ENDBRANCH  28   2
ENDBRANCH  19  23
ENDBRANCH  10  15
BRANCH   5  14
ATOM     14  C   UNL     1       9.646   5.669   4.931  0.00  0.00    +0.120 C 
BRANCH  14  16
ATOM     16  C   UNL     1      10.712   5.441   3.892  0.00  0.00    -0.033 A 
ATOM     17  C   UNL     1      10.826   4.197   3.272  0.00  0.00    +0.007 A 
ATOM     18  C   UNL     1      11.587   6.473   3.551  0.00  0.00    +0.007 A 
ATOM     20  C   UNL     1      11.813   3.984   2.310  0.00  0.00    +0.023 A 
ATOM     21  C   UNL     1      12.574   6.261   2.590  0.00  0.00    +0.023 A 
ATOM     22  C   UNL     1      12.688   5.016   1.969  0.00  0.00    +0.033 A 
BRANCH  22   8
ATOM      3  O   UNL     1      15.047   3.145   1.968  0.00  0.00    -0.276 OA
ATOM      8  N   UNL     1      13.676   4.804   1.007  0.00  0.00    -0.286 N 
ATOM     27  C   UNL     1      14.759   3.916   1.060  0.00  0.00    +0.214 C 
ATOM     29  C   UNL     1      15.602   3.988  -0.189  0.00  0.00    +0.109 C 
ATOM     33  H   UNL     1      13.591   5.371   0.166  0.00  0.00    +0.155 HD
ENDBRANCH  22   8
ENDBRANCH  14  16
ENDBRANCH   5  14
TORSDOF 9
ENDMDL
MODEL 9
REMARK VINA RESULT:      -6.1      3.576      4.466
REMARK  Name = 45783567
REMARK  11 active torsions:
REMARK  status: ('A' for Active; 'I' for Inactive)
REMARK    1  A    between atoms: O_2  and  C_28
REMARK    2  A    between atoms: O_2  and  C_30
REMARK    3  A    between atoms: O_4  and  C_31
REMARK    4  A    between atoms: O_4  and  C_32
REMARK    5  A    between atoms: N_5  and  C_14
REMARK    6  A    between atoms: N_8  and  C_22
REMARK    7  A    between atoms: C_10  and  C_15
REMARK    8  A    between atoms: C_14  and  C_16
REMARK    9  A    between atoms: C_19  and  C_23
REMARK   10  A    between atoms: C_27  and  C_29
REMARK   11  A    between atoms: C_30  and  C_31
REMARK                            x       y       z     vdW  Elec       q    Type
REMARK                         _______ _______ _______ _____ _____    ______ ____
ROOT
ATOM      5  N   UNL     1      -3.676  -9.913  11.592  0.00  0.00    -0.287 NA
ATOM     10  C   UNL     1      -2.753 -10.742  12.394  0.00  0.00    +0.146 C 
ATOM     11  C   UNL     1      -1.350 -10.209  12.048  0.00  0.00    +0.030 C 
ATOM     12  C   UNL     1      -1.581  -9.127  11.002  0.00  0.00    +0.017 C 
ATOM     13  C   UNL     1      -2.928  -9.488  10.409  0.00  0.00    +0.085 C 
ENDROOT
BRANCH  10  15
ATOM      1  O   UNL     1      -1.991 -10.480  14.701  0.00  0.00    -0.336 OA
ATOM      6  N   UNL     1      -4.200 -10.791  14.497  0.00  0.00    -0.190 NA
ATOM      7  N   UNL     1      -2.509 -10.461  16.002  0.00  0.00    -0.056 NA
ATOM     15  C   UNL     1      -3.053 -10.679  13.876  0.00  0.00    +0.245 A 
ATOM     19  C   UNL     1      -3.816 -10.650  15.799  0.00  0.00    +0.204 A 
BRANCH  19  23
ATOM      9  N   UNL     1      -6.949 -10.124  17.731  0.00  0.00    -0.221 NA
ATOM     23  C   UNL     1      -4.764 -10.703  16.874  0.00  0.00    +0.041 A 
ATOM     24  C   UNL     1      -4.458 -11.348  18.068  0.00  0.00    +0.018 A 
ATOM     25  C   UNL     1      -6.012 -10.112  16.758  0.00  0.00    +0.126 A 
ATOM     26  C   UNL     1      -5.396 -11.382  19.093  0.00  0.00    +0.068 A 
ATOM     28  C   UNL     1      -6.616 -10.761  18.877  0.00  0.00    +0.215 A 
BRANCH  28   2
ATOM      2  O   UNL     1      -7.557 -10.780  19.873  0.00  0.00    -0.474 OA
BRANCH   2  30
ATOM     30  C   UNL     1      -8.690 -11.616  19.666  0.00  0.00    +0.258 C 
BRANCH  30  31
ATOM     31  C   UNL     1      -9.952 -10.806  19.897  0.00  0.00    +0.200 C 
BRANCH  31   4
ATOM      4  O   UNL     1     -10.971 -11.665  20.391  0.00  0.00    -0.380 OA
ATOM     32  C   UNL     1     -12.098 -11.688  19.524  0.00  0.00    +0.194 C 
ENDBRANCH  31   4
ENDBRANCH  30  31
ENDBRANCH   2  30
ENDBRANCH  28   2
ENDBRANCH  19  23
ENDBRANCH  10  15
BRANCH   5  14
ATOM     14  C   UNL     1      -4.910 -10.604  11.241  0.00  0.00    +0.120 C 
BRANCH  14  16
ATOM     16  C   UNL     1      -5.585  -9.975  10.051  0.00  0.00    -0.033 A 
ATOM     17  C   UNL     1      -5.562 -10.620   8.815  0.00  0.00    +0.007 A 
ATOM     18  C   UNL     1      -6.231  -8.745  10.184  0.00  0.00    +0.007 A 
ATOM     20  C   UNL     1      -6.186 -10.037   7.711  0.00  0.00    +0.023 A 
ATOM     21  C   UNL     1      -6.854  -8.162   9.081  0.00  0.00    +0.023 A 
ATOM     22  C   UNL     1      -6.831  -8.808   7.845  0.00  0.00    +0.033 A 
BRANCH  22   8
ATOM      3  O   UNL     1      -9.740  -8.704   7.072  0.00  0.00    -0.276 OA
ATOM      8  N   UNL     1      -7.456  -8.223   6.742  0.00  0.00    -0.286 N 
ATOM     27  C   UNL     1      -8.822  -8.207   6.429  0.00  0.00    +0.214 C 
ATOM     29  C   UNL     1      -9.091  -7.466   5.143  0.00  0.00    +0.109 C 
ATOM     33  H   UNL     1      -6.832  -7.754   6.089  0.00  0.00    +0.155 HD
ENDBRANCH  22   8
ENDBRANCH  14  16
ENDBRANCH   5  14
TORSDOF 9
ENDMDL
MODEL 10
REMARK VINA RESULT:      -6.0      2.890      8.144
REMARK  Name = 45783567
REMARK  11 active torsions:
REMARK  status: ('A' for Active; 'I' for Inactive)
REMARK    1  A    between atoms: O_2  and  C_28
REMARK    2  A    between atoms: O_2  and  C_30
REMARK    3  A    between atoms: O_4  and  C_31
REMARK    4  A    between atoms: O_4  and  C_32
REMARK    5  A    between atoms: N_5  and  C_14
REMARK    6  A    between atoms: N_8  and  C_22
REMARK    7  A    between atoms: C_10  and  C_15
REMARK    8  A    between atoms: C_14  and  C_16
REMARK    9  A    between atoms: C_19  and  C_23
REMARK   10  A    between atoms: C_27  and  C_29
REMARK   11  A    between atoms: C_30  and  C_31
REMARK                            x       y       z     vdW  Elec       q    Type
REMARK                         _______ _______ _______ _____ _____    ______ ____
ROOT
ATOM      5  N   UNL     1     -10.224 -11.367  18.785  0.00  0.00    -0.287 NA
ATOM     10  C   UNL     1      -9.124 -11.919  19.600  0.00  0.00    +0.146 C 
ATOM     11  C   UNL     1      -9.319 -13.446  19.535  0.00  0.00    +0.030 C 
ATOM     12  C   UNL     1     -10.584 -13.652  18.714  0.00  0.00    +0.017 C 
ATOM     13  C   UNL     1     -11.319 -12.334  18.858  0.00  0.00    +0.085 C 
ENDROOT
BRANCH  10  15
ATOM      1  O   UNL     1      -6.938 -10.916  20.031  0.00  0.00    -0.336 OA
ATOM      6  N   UNL     1      -7.243 -11.566  17.910  0.00  0.00    -0.190 NA
ATOM      7  N   UNL     1      -5.755 -10.598  19.352  0.00  0.00    -0.056 NA
ATOM     15  C   UNL     1      -7.760 -11.482  19.109  0.00  0.00    +0.245 A 
ATOM     19  C   UNL     1      -6.012 -11.012  18.108  0.00  0.00    +0.204 A 
BRANCH  19  23
ATOM      9  N   UNL     1      -2.755 -10.910  16.318  0.00  0.00    -0.221 NA
ATOM     23  C   UNL     1      -5.061 -10.886  17.042  0.00  0.00    +0.041 A 
ATOM     24  C   UNL     1      -5.475 -10.627  15.740  0.00  0.00    +0.018 A 
ATOM     25  C   UNL     1      -3.702 -11.017  17.276  0.00  0.00    +0.126 A 
ATOM     26  C   UNL     1      -4.530 -10.509  14.726  0.00  0.00    +0.068 A 
ATOM     28  C   UNL     1      -3.195 -10.658  15.064  0.00  0.00    +0.215 A 
BRANCH  28   2
ATOM      2  O   UNL     1      -2.245 -10.546  14.083  0.00  0.00    -0.474 OA
BRANCH   2  30
ATOM     30  C   UNL     1      -2.407 -11.375  12.938  0.00  0.00    +0.258 C 
BRANCH  30  31
ATOM     31  C   UNL     1      -2.236 -10.532  11.688  0.00  0.00    +0.200 C 
BRANCH  31   4
ATOM      4  O   UNL     1      -3.506 -10.036  11.285  0.00  0.00    -0.380 OA
ATOM     32  C   UNL     1      -3.401  -9.217  10.128  0.00  0.00    +0.194 C 
ENDBRANCH  31   4
ENDBRANCH  30  31
ENDBRANCH   2  30
ENDBRANCH  28   2
ENDBRANCH  19  23
ENDBRANCH  10  15
BRANCH   5  14
ATOM     14  C   UNL     1     -10.641 -10.035  19.209  0.00  0.00    +0.120 C 
BRANCH  14  16
ATOM     16  C   UNL     1     -10.824  -9.107  18.038  0.00  0.00    -0.033 A 
ATOM     17  C   UNL     1     -12.079  -8.974  17.444  0.00  0.00    +0.007 A 
ATOM     18  C   UNL     1      -9.740  -8.380  17.546  0.00  0.00    +0.007 A 
ATOM     20  C   UNL     1     -12.250  -8.115  16.358  0.00  0.00    +0.023 A 
ATOM     21  C   UNL     1      -9.910  -7.522  16.460  0.00  0.00    +0.023 A 
ATOM     22  C   UNL     1     -11.166  -7.390  15.866  0.00  0.00    +0.033 A 
BRANCH  22   8
ATOM      3  O   UNL     1     -13.558  -5.776  15.006  0.00  0.00    -0.276 OA
ATOM      8  N   UNL     1     -11.336  -6.530  14.780  0.00  0.00    -0.286 N 
ATOM     27  C   UNL     1     -12.479  -5.801  14.425  0.00  0.00    +0.214 C 
ATOM     29  C   UNL     1     -12.254  -4.984  13.177  0.00  0.00    +0.109 C 
ATOM     33  H   UNL     1     -10.522  -6.426  14.178  0.00  0.00    +0.155 HD
ENDBRANCH  22   8
ENDBRANCH  14  16
ENDBRANCH   5  14
TORSDOF 9
ENDMDL
