MODEL 1
REMARK VINA RESULT:      -6.4      0.000      0.000
REMARK  Name = 75536927
REMARK  4 active torsions:
REMARK  status: ('A' for Active; 'I' for Inactive)
REMARK    1  A    between atoms: O_3  and  C_8
REMARK    2  A    between atoms: O_3  and  C_16
REMARK    3  A    between atoms: N_4  and  C_11
REMARK    4  A    between atoms: C_11  and  C_13
REMARK                            x       y       z     vdW  Elec       q    Type
REMARK                         _______ _______ _______ _____ _____    ______ ____
ROOT
ATOM      2  O   UNL     1      11.515   6.885  22.187  0.00  0.00    -0.375 OA
ATOM      4  N   UNL     1      13.405   8.125  20.403  0.00  0.00    -0.292 NA
ATOM      7  C   UNL     1      12.463   9.232  20.565  0.00  0.00    +0.131 C 
ATOM      8  C   UNL     1      11.946   9.307  22.008  0.00  0.00    +0.215 C 
ATOM      9  C   UNL     1      12.778   6.834  20.097  0.00  0.00    +0.113 C 
ATOM     10  C   UNL     1      10.995   8.188  22.424  0.00  0.00    +0.205 C 
ATOM     12  C   UNL     1      11.464   6.526  20.812  0.00  0.00    +0.175 C 
ENDROOT
BRANCH   8   3
ATOM      3  O   UNL     1      11.273  10.556  22.169  0.00  0.00    -0.468 OA
BRANCH   3  16
ATOM      5  N   UNL     1      10.583  11.510  24.174  0.00  0.00    -0.219 NA
ATOM      6  N   UNL     1      13.194  12.444  24.594  0.00  0.00    -0.256 NA
ATOM     16  C   UNL     1      11.576  11.274  23.293  0.00  0.00    +0.234 A 
ATOM     20  C   UNL     1      12.858  11.732  23.499  0.00  0.00    +0.177 A 
ATOM     21  C   UNL     1      10.920  12.221  25.269  0.00  0.00    +0.134 A 
ATOM     22  C   UNL     1      12.202  12.679  25.475  0.00  0.00    +0.130 A 
ENDBRANCH   3  16
ENDBRANCH   8   3
BRANCH   4  11
ATOM     11  C   UNL     1      14.429   8.434  19.405  0.00  0.00    +0.119 C 
BRANCH  11  13
ATOM      1 CL   UNL     1      18.851   8.426  22.164  0.00  0.00    -0.084 Cl
ATOM     13  C   UNL     1      15.743   7.777  19.730  0.00  0.00    -0.032 A 
ATOM     14  C   UNL     1      16.590   8.340  20.685  0.00  0.00    +0.025 A 
ATOM     15  C   UNL     1      16.115   6.602  19.076  0.00  0.00    +0.005 A 
ATOM     17  C   UNL     1      17.807   7.729  20.986  0.00  0.00    +0.041 A 
ATOM     18  C   UNL     1      17.332   5.991  19.377  0.00  0.00    +0.002 A 
ATOM     19  C   UNL     1      18.178   6.555  20.331  0.00  0.00    +0.020 A 
ENDBRANCH  11  13
ENDBRANCH   4  11
TORSDOF 4
ENDMDL
MODEL 2
REMARK VINA RESULT:      -6.2      3.648      7.409
REMARK  Name = 75536927
REMARK  4 active torsions:
REMARK  status: ('A' for Active; 'I' for Inactive)
REMARK    1  A    between atoms: O_3  and  C_8
REMARK    2  A    between atoms: O_3  and  C_16
REMARK    3  A    between atoms: N_4  and  C_11
REMARK    4  A    between atoms: C_11  and  C_13
REMARK                            x       y       z     vdW  Elec       q    Type
REMARK                         _______ _______ _______ _____ _____    ______ ____
ROOT
ATOM      2  O   UNL     1      10.559   7.886  20.450  0.00  0.00    -0.375 OA
ATOM      4  N   UNL     1      11.897   9.875  22.045  0.00  0.00    -0.292 NA
ATOM      7  C   UNL     1      13.052   9.301  21.357  0.00  0.00    +0.131 C 
ATOM      8  C   UNL     1      12.710   8.960  19.900  0.00  0.00    +0.215 C 
ATOM      9  C   UNL     1      10.989   8.887  22.637  0.00  0.00    +0.113 C 
ATOM     10  C   UNL     1      11.767   7.777  19.706  0.00  0.00    +0.205 C 
ATOM     12  C   UNL     1      10.751   7.611  21.832  0.00  0.00    +0.175 C 
ENDROOT
BRANCH   8   3
ATOM      3  O   UNL     1      13.932   8.682  19.215  0.00  0.00    -0.468 OA
BRANCH   3  16
ATOM      5  N   UNL     1      14.256  10.440  17.729  0.00  0.00    -0.219 NA
ATOM      6  N   UNL     1      13.971   8.647  15.591  0.00  0.00    -0.256 NA
ATOM     16  C   UNL     1      14.025   9.127  17.925  0.00  0.00    +0.234 A 
ATOM     20  C   UNL     1      13.885   8.246  16.875  0.00  0.00    +0.177 A 
ATOM     21  C   UNL     1      14.341  10.841  16.445  0.00  0.00    +0.134 A 
ATOM     22  C   UNL     1      14.201   9.960  15.395  0.00  0.00    +0.130 A 
ENDBRANCH   3  16
ENDBRANCH   8   3
BRANCH   4  11
ATOM     11  C   UNL     1      12.306  10.849  23.058  0.00  0.00    +0.119 C 
BRANCH  11  13
ATOM      1 CL   UNL     1      10.370  14.845  20.328  0.00  0.00    -0.084 Cl
ATOM     13  C   UNL     1      11.454  12.089  23.018  0.00  0.00    -0.032 A 
ATOM     14  C   UNL     1      11.322  12.809  21.830  0.00  0.00    +0.025 A 
ATOM     15  C   UNL     1      10.795  12.520  24.170  0.00  0.00    +0.005 A 
ATOM     17  C   UNL     1      10.531  13.957  21.794  0.00  0.00    +0.041 A 
ATOM     18  C   UNL     1      10.005  13.668  24.134  0.00  0.00    +0.002 A 
ATOM     19  C   UNL     1       9.873  14.387  22.946  0.00  0.00    +0.020 A 
ENDBRANCH  11  13
ENDBRANCH   4  11
TORSDOF 4
ENDMDL
MODEL 3
REMARK VINA RESULT:      -5.9     26.889     28.529
REMARK  Name = 75536927
REMARK  4 active torsions:
REMARK  status: ('A' for Active; 'I' for Inactive)
REMARK    1  A    between atoms: O_3  and  C_8
REMARK    2  A    between atoms: O_3  and  C_16
REMARK    3  A    between atoms: N_4  and  C_11
REMARK    4  A    between atoms: C_11  and  C_13
REMARK                            x       y       z     vdW  Elec       q    Type
REMARK                         _______ _______ _______ _____ _____    ______ ____
ROOT
ATOM      2  O   UNL     1      -2.970 -13.218  12.436  0.00  0.00    -0.375 OA
ATOM      4  N   UNL     1      -2.786 -11.332  14.603  0.00  0.00    -0.292 NA
ATOM      7  C   UNL     1      -2.479 -10.443  13.484  0.00  0.00    +0.131 C 
ATOM      8  C   UNL     1      -3.339 -10.786  12.259  0.00  0.00    +0.215 C 
ATOM      9  C   UNL     1      -2.033 -12.591  14.603  0.00  0.00    +0.113 C 
ATOM     10  C   UNL     1      -2.993 -12.098  11.560  0.00  0.00    +0.205 C 
ATOM     12  C   UNL     1      -1.800 -13.247  13.244  0.00  0.00    +0.175 C 
ENDROOT
BRANCH   8   3
ATOM      3  O   UNL     1      -3.204  -9.722  11.316  0.00  0.00    -0.468 OA
BRANCH   3  16
ATOM      5  N   UNL     1      -4.138  -9.617   9.190  0.00  0.00    -0.219 NA
ATOM      6  N   UNL     1      -6.573  -8.818  10.330  0.00  0.00    -0.256 NA
ATOM     16  C   UNL     1      -4.288  -9.469  10.521  0.00  0.00    +0.234 A 
ATOM     20  C   UNL     1      -5.484  -9.077  11.081  0.00  0.00    +0.177 A 
ATOM     21  C   UNL     1      -5.227  -9.358   8.438  0.00  0.00    +0.134 A 
ATOM     22  C   UNL     1      -6.423  -8.966   8.999  0.00  0.00    +0.130 A 
ENDBRANCH   3  16
ENDBRANCH   8   3
BRANCH   4  11
ATOM     11  C   UNL     1      -2.622 -10.651  15.888  0.00  0.00    +0.119 C 
BRANCH  11  13
ATOM      1 CL   UNL     1      -7.589  -9.249  16.616  0.00  0.00    -0.084 Cl
ATOM     13  C   UNL     1      -3.871 -10.724  16.724  0.00  0.00    -0.032 A 
ATOM     14  C   UNL     1      -5.018 -10.033  16.329  0.00  0.00    +0.025 A 
ATOM     15  C   UNL     1      -3.884 -11.484  17.894  0.00  0.00    +0.005 A 
ATOM     17  C   UNL     1      -6.176 -10.103  17.103  0.00  0.00    +0.041 A 
ATOM     18  C   UNL     1      -5.042 -11.553  18.668  0.00  0.00    +0.002 A 
ATOM     19  C   UNL     1      -6.187 -10.862  18.273  0.00  0.00    +0.020 A 
ENDBRANCH  11  13
ENDBRANCH   4  11
TORSDOF 4
ENDMDL
MODEL 4
REMARK VINA RESULT:      -5.4     15.428     18.151
REMARK  Name = 75536927
REMARK  4 active torsions:
REMARK  status: ('A' for Active; 'I' for Inactive)
REMARK    1  A    between atoms: O_3  and  C_8
REMARK    2  A    between atoms: O_3  and  C_16
REMARK    3  A    between atoms: N_4  and  C_11
REMARK    4  A    between atoms: C_11  and  C_13
REMARK                            x       y       z     vdW  Elec       q    Type
REMARK                         _______ _______ _______ _____ _____    ______ ____
ROOT
ATOM      2  O   UNL     1      14.857   8.521   6.061  0.00  0.00    -0.375 OA
ATOM      4  N   UNL     1      12.024   8.024   6.197  0.00  0.00    -0.292 NA
ATOM      7  C   UNL     1      12.188   8.090   4.746  0.00  0.00    +0.131 C 
ATOM      8  C   UNL     1      13.504   7.431   4.311  0.00  0.00    +0.215 C 
ATOM      9  C   UNL     1      12.657   9.126   6.931  0.00  0.00    +0.113 C 
ATOM     10  C   UNL     1      14.774   8.192   4.679  0.00  0.00    +0.205 C 
ATOM     12  C   UNL     1      14.008   9.607   6.409  0.00  0.00    +0.175 C 
ENDROOT
BRANCH   8   3
ATOM      3  O   UNL     1      13.467   7.272   2.892  0.00  0.00    -0.468 OA
BRANCH   3  16
ATOM      5  N   UNL     1      12.270   5.339   2.408  0.00  0.00    -0.219 NA
ATOM      6  N   UNL     1      14.636   4.133   1.506  0.00  0.00    -0.256 NA
ATOM     16  C   UNL     1      13.451   5.988   2.420  0.00  0.00    +0.234 A 
ATOM     20  C   UNL     1      14.613   5.396   1.977  0.00  0.00    +0.177 A 
ATOM     21  C   UNL     1      12.292   4.076   1.937  0.00  0.00    +0.134 A 
ATOM     22  C   UNL     1      13.455   3.484   1.494  0.00  0.00    +0.130 A 
ENDBRANCH   3  16
ENDBRANCH   8   3
BRANCH   4  11
ATOM     11  C   UNL     1      10.614   7.915   6.573  0.00  0.00    +0.119 C 
BRANCH  11  13
ATOM      1 CL   UNL     1       9.339   4.589  10.378  0.00  0.00    -0.084 Cl
ATOM     13  C   UNL     1      10.253   6.516   6.993  0.00  0.00    -0.032 A 
ATOM     14  C   UNL     1       9.994   6.234   8.334  0.00  0.00    +0.025 A 
ATOM     15  C   UNL     1      10.176   5.501   6.040  0.00  0.00    +0.005 A 
ATOM     17  C   UNL     1       9.657   4.937   8.722  0.00  0.00    +0.041 A 
ATOM     18  C   UNL     1       9.840   4.204   6.428  0.00  0.00    +0.002 A 
ATOM     19  C   UNL     1       9.581   3.922   7.769  0.00  0.00    +0.020 A 
ENDBRANCH  11  13
ENDBRANCH   4  11
TORSDOF 4
ENDMDL
MODEL 5
REMARK VINA RESULT:      -5.4     26.941     28.435
REMARK  Name = 75536927
REMARK  4 active torsions:
REMARK  status: ('A' for Active; 'I' for Inactive)
REMARK    1  A    between atoms: O_3  and  C_8
REMARK    2  A    between atoms: O_3  and  C_16
REMARK    3  A    between atoms: N_4  and  C_11
REMARK    4  A    between atoms: C_11  and  C_13
REMARK                            x       y       z     vdW  Elec       q    Type
REMARK                         _______ _______ _______ _____ _____    ______ ____
ROOT
ATOM      2  O   UNL     1      -1.985 -10.405  15.726  0.00  0.00    -0.375 OA
ATOM      4  N   UNL     1      -3.374 -11.411  13.414  0.00  0.00    -0.292 NA
ATOM      7  C   UNL     1      -4.133 -12.088  14.464  0.00  0.00    +0.131 C 
ATOM      8  C   UNL     1      -4.329 -11.170  15.678  0.00  0.00    +0.215 C 
ATOM      9  C   UNL     1      -1.917 -11.517  13.553  0.00  0.00    +0.113 C 
ATOM     10  C   UNL     1      -3.075 -10.891  16.501  0.00  0.00    +0.205 C 
ATOM     12  C   UNL     1      -1.359 -11.435  14.971  0.00  0.00    +0.175 C 
ENDROOT
BRANCH   8   3
ATOM      3  O   UNL     1      -5.305 -11.771  16.530  0.00  0.00    -0.468 OA
BRANCH   3  16
ATOM      5  N   UNL     1      -7.005 -11.271  18.035  0.00  0.00    -0.219 NA
ATOM      6  N   UNL     1      -7.842  -9.188  16.353  0.00  0.00    -0.256 NA
ATOM     16  C   UNL     1      -6.378 -10.995  16.874  0.00  0.00    +0.234 A 
ATOM     20  C   UNL     1      -6.788  -9.972  16.048  0.00  0.00    +0.177 A 
ATOM     21  C   UNL     1      -8.058 -10.486  18.340  0.00  0.00    +0.134 A 
ATOM     22  C   UNL     1      -8.469  -9.463  17.513  0.00  0.00    +0.130 A 
ENDBRANCH   3  16
ENDBRANCH   8   3
BRANCH   4  11
ATOM     11  C   UNL     1      -3.784 -11.859  12.082  0.00  0.00    +0.119 C 
BRANCH  11  13
ATOM      1 CL   UNL     1      -7.655  -8.826  10.358  0.00  0.00    -0.084 Cl
ATOM     13  C   UNL     1      -4.234 -10.712  11.219  0.00  0.00    -0.032 A 
ATOM     14  C   UNL     1      -5.579 -10.343  11.191  0.00  0.00    +0.025 A 
ATOM     15  C   UNL     1      -3.305 -10.015  10.447  0.00  0.00    +0.005 A 
ATOM     17  C   UNL     1      -5.995  -9.278  10.393  0.00  0.00    +0.041 A 
ATOM     18  C   UNL     1      -3.721  -8.950   9.647  0.00  0.00    +0.002 A 
ATOM     19  C   UNL     1      -5.066  -8.583   9.620  0.00  0.00    +0.020 A 
ENDBRANCH  11  13
ENDBRANCH   4  11
TORSDOF 4
ENDMDL
MODEL 6
REMARK VINA RESULT:      -5.3     26.952     29.289
REMARK  Name = 75536927
REMARK  4 active torsions:
REMARK  status: ('A' for Active; 'I' for Inactive)
REMARK    1  A    between atoms: O_3  and  C_8
REMARK    2  A    between atoms: O_3  and  C_16
REMARK    3  A    between atoms: N_4  and  C_11
REMARK    4  A    between atoms: C_11  and  C_13
REMARK                            x       y       z     vdW  Elec       q    Type
REMARK                         _______ _______ _______ _____ _____    ______ ____
ROOT
ATOM      2  O   UNL     1      -5.777 -13.386  16.474  0.00  0.00    -0.375 OA
ATOM      4  N   UNL     1      -6.726 -10.744  17.117  0.00  0.00    -0.292 NA
ATOM      7  C   UNL     1      -5.322 -10.437  16.850  0.00  0.00    +0.131 C 
ATOM      8  C   UNL     1      -4.792 -11.270  15.675  0.00  0.00    +0.215 C 
ATOM      9  C   UNL     1      -6.939 -11.887  18.013  0.00  0.00    +0.113 C 
ATOM     10  C   UNL     1      -4.610 -12.759  15.954  0.00  0.00    +0.205 C 
ATOM     12  C   UNL     1      -5.992 -13.072  17.845  0.00  0.00    +0.175 C 
ENDROOT
BRANCH   8   3
ATOM      3  O   UNL     1      -3.531 -10.726  15.285  0.00  0.00    -0.468 OA
BRANCH   3  16
ATOM      5  N   UNL     1      -4.386 -10.609  13.126  0.00  0.00    -0.219 NA
ATOM      6  N   UNL     1      -1.778 -10.302  12.140  0.00  0.00    -0.256 NA
ATOM     16  C   UNL     1      -3.313 -10.589  13.941  0.00  0.00    +0.234 A 
ATOM     20  C   UNL     1      -2.032 -10.438  13.458  0.00  0.00    +0.177 A 
ATOM     21  C   UNL     1      -4.132 -10.472  11.809  0.00  0.00    +0.134 A 
ATOM     22  C   UNL     1      -2.850 -10.321  11.325  0.00  0.00    +0.130 A 
ENDBRANCH   3  16
ENDBRANCH   8   3
BRANCH   4  11
ATOM     11  C   UNL     1      -7.445  -9.573  17.620  0.00  0.00    +0.119 C 
BRANCH  11  13
ATOM      1 CL   UNL     1     -11.261  -6.217  16.460  0.00  0.00    -0.084 Cl
ATOM     13  C   UNL     1      -8.510  -9.115  16.660  0.00  0.00    -0.032 A 
ATOM     14  C   UNL     1      -9.300  -8.008  16.968  0.00  0.00    +0.025 A 
ATOM     15  C   UNL     1      -8.707  -9.799  15.460  0.00  0.00    +0.005 A 
ATOM     17  C   UNL     1     -10.286  -7.583  16.078  0.00  0.00    +0.041 A 
ATOM     18  C   UNL     1      -9.693  -9.375  14.569  0.00  0.00    +0.002 A 
ATOM     19  C   UNL     1     -10.483  -8.268  14.879  0.00  0.00    +0.020 A 
ENDBRANCH  11  13
ENDBRANCH   4  11
TORSDOF 4
ENDMDL
MODEL 7
REMARK VINA RESULT:      -5.3     26.132     29.334
REMARK  Name = 75536927
REMARK  4 active torsions:
REMARK  status: ('A' for Active; 'I' for Inactive)
REMARK    1  A    between atoms: O_3  and  C_8
REMARK    2  A    between atoms: O_3  and  C_16
REMARK    3  A    between atoms: N_4  and  C_11
REMARK    4  A    between atoms: C_11  and  C_13
REMARK                            x       y       z     vdW  Elec       q    Type
REMARK                         _______ _______ _______ _____ _____    ______ ____
ROOT
ATOM      2  O   UNL     1      -7.022 -13.393  17.313  0.00  0.00    -0.375 OA
ATOM      4  N   UNL     1      -7.402 -10.558  17.644  0.00  0.00    -0.292 NA
ATOM      7  C   UNL     1      -5.987 -10.654  17.999  0.00  0.00    +0.131 C 
ATOM      8  C   UNL     1      -5.265 -11.674  17.107  0.00  0.00    +0.215 C 
ATOM      9  C   UNL     1      -8.264 -11.541  18.310  0.00  0.00    +0.113 C 
ATOM     10  C   UNL     1      -5.623 -13.136  17.357  0.00  0.00    +0.205 C 
ATOM     12  C   UNL     1      -7.690 -12.944  18.486  0.00  0.00    +0.175 C 
ENDROOT
BRANCH   8   3
ATOM      3  O   UNL     1      -3.860 -11.512  17.304  0.00  0.00    -0.468 OA
BRANCH   3  16
ATOM      5  N   UNL     1      -1.838 -10.779  16.423  0.00  0.00    -0.219 NA
ATOM      6  N   UNL     1      -3.061 -10.509  13.913  0.00  0.00    -0.256 NA
ATOM     16  C   UNL     1      -3.138 -11.072  16.228  0.00  0.00    +0.234 A 
ATOM     20  C   UNL     1      -3.739 -10.940  14.996  0.00  0.00    +0.177 A 
ATOM     21  C   UNL     1      -1.159 -10.348  15.340  0.00  0.00    +0.134 A 
ATOM     22  C   UNL     1      -1.760 -10.216  14.108  0.00  0.00    +0.130 A 
ENDBRANCH   3  16
ENDBRANCH   8   3
BRANCH   4  11
ATOM     11  C   UNL     1      -7.919  -9.207  17.865  0.00  0.00    +0.119 C 
BRANCH  11  13
ATOM      1 CL   UNL     1      -9.773  -9.728  13.022  0.00  0.00    -0.084 Cl
ATOM     13  C   UNL     1      -8.939  -8.821  16.828  0.00  0.00    -0.032 A 
ATOM     14  C   UNL     1      -8.889  -9.387  15.554  0.00  0.00    +0.025 A 
ATOM     15  C   UNL     1      -9.937  -7.898  17.142  0.00  0.00    +0.005 A 
ATOM     17  C   UNL     1      -9.836  -9.030  14.595  0.00  0.00    +0.041 A 
ATOM     18  C   UNL     1     -10.883  -7.540  16.182  0.00  0.00    +0.002 A 
ATOM     19  C   UNL     1     -10.833  -8.106  14.908  0.00  0.00    +0.020 A 
ENDBRANCH  11  13
ENDBRANCH   4  11
TORSDOF 4
ENDMDL
MODEL 8
REMARK VINA RESULT:      -5.2     26.392     29.378
REMARK  Name = 75536927
REMARK  4 active torsions:
REMARK  status: ('A' for Active; 'I' for Inactive)
REMARK    1  A    between atoms: O_3  and  C_8
REMARK    2  A    between atoms: O_3  and  C_16
REMARK    3  A    between atoms: N_4  and  C_11
REMARK    4  A    between atoms: C_11  and  C_13
REMARK                            x       y       z     vdW  Elec       q    Type
REMARK                         _______ _______ _______ _____ _____    ______ ____
ROOT
ATOM      2  O   UNL     1      -6.788 -13.695  16.888  0.00  0.00    -0.375 OA
ATOM      4  N   UNL     1      -7.657 -11.068  17.686  0.00  0.00    -0.292 NA
ATOM      7  C   UNL     1      -6.239 -10.967  18.028  0.00  0.00    +0.131 C 
ATOM      8  C   UNL     1      -5.370 -11.679  16.982  0.00  0.00    +0.215 C 
ATOM      9  C   UNL     1      -8.315 -12.286  18.173  0.00  0.00    +0.113 C 
ATOM     10  C   UNL     1      -5.457 -13.203  16.982  0.00  0.00    +0.205 C 
ATOM     12  C   UNL     1      -7.496 -13.573  18.116  0.00  0.00    +0.175 C 
ENDROOT
BRANCH   8   3
ATOM      3  O   UNL     1      -4.012 -11.303  17.210  0.00  0.00    -0.468 OA
BRANCH   3  16
ATOM      5  N   UNL     1      -3.920 -10.882  14.926  0.00  0.00    -0.219 NA
ATOM      6  N   UNL     1      -1.173 -10.369  15.159  0.00  0.00    -0.256 NA
ATOM     16  C   UNL     1      -3.278 -10.961  16.108  0.00  0.00    +0.234 A 
ATOM     20  C   UNL     1      -1.928 -10.708  16.223  0.00  0.00    +0.177 A 
ATOM     21  C   UNL     1      -3.164 -10.542  13.862  0.00  0.00    +0.134 A 
ATOM     22  C   UNL     1      -1.815 -10.290  13.977  0.00  0.00    +0.130 A 
ENDBRANCH   3  16
ENDBRANCH   8   3
BRANCH   4  11
ATOM     11  C   UNL     1      -8.400  -9.887  18.126  0.00  0.00    +0.119 C 
BRANCH  11  13
ATOM      1 CL   UNL     1     -11.327  -5.935  16.399  0.00  0.00    -0.084 Cl
ATOM     13  C   UNL     1      -9.118  -9.219  16.985  0.00  0.00    -0.032 A 
ATOM     14  C   UNL     1      -9.809  -8.026  17.195  0.00  0.00    +0.025 A 
ATOM     15  C   UNL     1      -9.093  -9.794  15.713  0.00  0.00    +0.005 A 
ATOM     17  C   UNL     1     -10.473  -7.407  16.137  0.00  0.00    +0.041 A 
ATOM     18  C   UNL     1      -9.757  -9.176  14.655  0.00  0.00    +0.002 A 
ATOM     19  C   UNL     1     -10.448  -7.983  14.866  0.00  0.00    +0.020 A 
ENDBRANCH  11  13
ENDBRANCH   4  11
TORSDOF 4
ENDMDL
MODEL 9
REMARK VINA RESULT:      -5.1     28.116     29.187
REMARK  Name = 75536927
REMARK  4 active torsions:
REMARK  status: ('A' for Active; 'I' for Inactive)
REMARK    1  A    between atoms: O_3  and  C_8
REMARK    2  A    between atoms: O_3  and  C_16
REMARK    3  A    between atoms: N_4  and  C_11
REMARK    4  A    between atoms: C_11  and  C_13
REMARK                            x       y       z     vdW  Elec       q    Type
REMARK                         _______ _______ _______ _____ _____    ______ ____
ROOT
ATOM      2  O   UNL     1      -5.724 -14.191  13.629  0.00  0.00    -0.375 OA
ATOM      4  N   UNL     1      -4.386 -12.348  15.390  0.00  0.00    -0.292 NA
ATOM      7  C   UNL     1      -3.596 -12.139  14.178  0.00  0.00    +0.131 C 
ATOM      8  C   UNL     1      -4.487 -12.175  12.929  0.00  0.00    +0.215 C 
ATOM      9  C   UNL     1      -4.590 -13.756  15.748  0.00  0.00    +0.113 C 
ATOM     10  C   UNL     1      -5.044 -13.547  12.558  0.00  0.00    +0.205 C 
ATOM     12  C   UNL     1      -4.826 -14.726  14.593  0.00  0.00    +0.175 C 
ENDROOT
BRANCH   8   3
ATOM      3  O   UNL     1      -3.720 -11.686  11.828  0.00  0.00    -0.468 OA
BRANCH   3  16
ATOM      5  N   UNL     1      -5.185  -9.881  11.830  0.00  0.00    -0.219 NA
ATOM      6  N   UNL     1      -3.931  -8.897   9.522  0.00  0.00    -0.256 NA
ATOM     16  C   UNL     1      -4.151 -10.522  11.252  0.00  0.00    +0.234 A 
ATOM     20  C   UNL     1      -3.534 -10.039  10.119  0.00  0.00    +0.177 A 
ATOM     21  C   UNL     1      -5.582  -8.738  11.234  0.00  0.00    +0.134 A 
ATOM     22  C   UNL     1      -4.966  -8.255  10.100  0.00  0.00    +0.130 A 
ENDBRANCH   3  16
ENDBRANCH   8   3
BRANCH   4  11
ATOM     11  C   UNL     1      -3.825 -11.618  16.528  0.00  0.00    +0.119 C 
BRANCH  11  13
ATOM      1 CL   UNL     1      -8.326  -9.188  17.529  0.00  0.00    -0.084 Cl
ATOM     13  C   UNL     1      -4.886 -11.230  17.523  0.00  0.00    -0.032 A 
ATOM     14  C   UNL     1      -5.986 -10.477  17.113  0.00  0.00    +0.025 A 
ATOM     15  C   UNL     1      -4.769 -11.625  18.856  0.00  0.00    +0.005 A 
ATOM     17  C   UNL     1      -6.970 -10.119  18.035  0.00  0.00    +0.041 A 
ATOM     18  C   UNL     1      -5.752 -11.267  19.778  0.00  0.00    +0.002 A 
ATOM     19  C   UNL     1      -6.852 -10.514  19.368  0.00  0.00    +0.020 A 
ENDBRANCH  11  13
ENDBRANCH   4  11
TORSDOF 4
ENDMDL
MODEL 10
REMARK VINA RESULT:      -5.1     27.300     29.352
REMARK  Name = 75536927
REMARK  4 active torsions:
REMARK  status: ('A' for Active; 'I' for Inactive)
REMARK    1  A    between atoms: O_3  and  C_8
REMARK    2  A    between atoms: O_3  and  C_16
REMARK    3  A    between atoms: N_4  and  C_11
REMARK    4  A    between atoms: C_11  and  C_13
REMARK                            x       y       z     vdW  Elec       q    Type
REMARK                         _______ _______ _______ _____ _____    ______ ____
ROOT
ATOM      2  O   UNL     1      -5.201 -13.851  15.419  0.00  0.00    -0.375 OA
ATOM      4  N   UNL     1      -5.561 -11.688  17.285  0.00  0.00    -0.292 NA
ATOM      7  C   UNL     1      -4.274 -11.299  16.710  0.00  0.00    +0.131 C 
ATOM      8  C   UNL     1      -4.234 -11.592  15.204  0.00  0.00    +0.215 C 
ATOM      9  C   UNL     1      -5.641 -13.093  17.698  0.00  0.00    +0.113 C 
ATOM     10  C   UNL     1      -4.173 -13.069  14.823  0.00  0.00    +0.205 C 
ATOM     12  C   UNL     1      -4.952 -14.112  16.794  0.00  0.00    +0.175 C 
ENDROOT
BRANCH   8   3
ATOM      3  O   UNL     1      -3.089 -10.936  14.659  0.00  0.00    -0.468 OA
BRANCH   3  16
ATOM      5  N   UNL     1      -4.396 -10.266  12.857  0.00  0.00    -0.219 NA
ATOM      6  N   UNL     1      -2.079 -10.055  11.291  0.00  0.00    -0.256 NA
ATOM     16  C   UNL     1      -3.173 -10.543  13.351  0.00  0.00    +0.234 A 
ATOM     20  C   UNL     1      -2.035 -10.439  12.583  0.00  0.00    +0.177 A 
ATOM     21  C   UNL     1      -4.440  -9.882  11.565  0.00  0.00    +0.134 A 
ATOM     22  C   UNL     1      -3.301  -9.779  10.797  0.00  0.00    +0.130 A 
ENDBRANCH   3  16
ENDBRANCH   8   3
BRANCH   4  11
ATOM     11  C   UNL     1      -5.936 -10.816  18.398  0.00  0.00    +0.119 C 
BRANCH  11  13
ATOM      1 CL   UNL     1     -10.852 -11.159  20.096  0.00  0.00    -0.084 Cl
ATOM     13  C   UNL     1      -7.368 -10.364  18.297  0.00  0.00    -0.032 A 
ATOM     14  C   UNL     1      -8.334 -10.907  19.144  0.00  0.00    +0.025 A 
ATOM     15  C   UNL     1      -7.730  -9.400  17.356  0.00  0.00    +0.005 A 
ATOM     17  C   UNL     1      -9.661 -10.486  19.051  0.00  0.00    +0.041 A 
ATOM     18  C   UNL     1      -9.056  -8.980  17.262  0.00  0.00    +0.002 A 
ATOM     19  C   UNL     1     -10.022  -9.523  18.109  0.00  0.00    +0.020 A 
ENDBRANCH  11  13
ENDBRANCH   4  11
TORSDOF 4
ENDMDL
