MODEL 1
REMARK VINA RESULT:      -7.6      0.000      0.000
REMARK  Name = 25338959
REMARK  7 active torsions:
REMARK  status: ('A' for Active; 'I' for Inactive)
REMARK    1  A    between atoms: O_1  and  C_14
REMARK    2  A    between atoms: O_1  and  C_23
REMARK    3  A    between atoms: N_5  and  C_13
REMARK    4  A    between atoms: C_8  and  C_14
REMARK    5  A    between atoms: C_13  and  C_17
REMARK    6  A    between atoms: C_16  and  C_18
REMARK    7  A    between atoms: C_28  and  C_30
REMARK                            x       y       z     vdW  Elec       q    Type
REMARK                         _______ _______ _______ _____ _____    ______ ____
ROOT
ATOM      3  O   UNL     1      15.937   5.973  19.300  0.00  0.00    -0.270 OA
ATOM      4  N   UNL     1      14.337   7.491  20.100  0.00  0.00    -0.278 N 
ATOM      5  N   UNL     1      12.038   9.543  22.229  0.00  0.00    -0.328 N 
ATOM      6  N   UNL     1      10.492   8.040  21.643  0.00  0.00    -0.240 NA
ATOM      8  C   UNL     1      13.239   6.871  19.313  0.00  0.00    +0.191 C 
ATOM      9  C   UNL     1      11.933   6.644  20.102  0.00  0.00    +0.091 C 
ATOM     10  C   UNL     1      12.648   8.678  21.370  0.00  0.00    +0.059 A 
ATOM     11  C   UNL     1      14.045   8.719  20.896  0.00  0.00    +0.164 C 
ATOM     12  C   UNL     1      11.680   7.770  21.023  0.00  0.00    +0.066 A 
ATOM     15  C   UNL     1      10.741   9.117  22.363  0.00  0.00    +0.200 A 
ATOM     16  C   UNL     1      15.636   6.978  19.943  0.00  0.00    +0.248 C 
ENDROOT
BRANCH  16  18
ATOM     18  C   UNL     1      16.746   7.690  20.591  0.00  0.00    +0.037 A 
ATOM     21  C   UNL     1      17.748   6.972  21.243  0.00  0.00    +0.014 A 
ATOM     22  C   UNL     1      16.796   9.083  20.554  0.00  0.00    +0.014 A 
ATOM     26  C   UNL     1      18.802   7.649  21.858  0.00  0.00    +0.019 A 
ATOM     27  C   UNL     1      17.850   9.760  21.169  0.00  0.00    +0.019 A 
ATOM     28  C   UNL     1      18.853   9.043  21.821  0.00  0.00    +0.052 A 
BRANCH  28  30
ATOM      7  N   UNL     1      20.808  10.298  22.963  0.00  0.00    -0.191 NA
ATOM     30  C   UNL     1      19.932   9.736  22.451  0.00  0.00    +0.099 C 
ENDBRANCH  28  30
ENDBRANCH  16  18
BRANCH   8  14
ATOM      2  O   UNL     1      13.833   8.610  17.753  0.00  0.00    -0.249 OA
ATOM     14  C   UNL     1      13.033   7.760  18.120  0.00  0.00    +0.328 C 
BRANCH  14   1
ATOM      1  O   UNL     1      11.836   7.468  17.535  0.00  0.00    -0.467 OA
ATOM     23  C   UNL     1      11.094   8.594  17.058  0.00  0.00    +0.280 C 
ENDBRANCH  14   1
ENDBRANCH   8  14
BRANCH   5  13
ATOM     13  C   UNL     1      12.624  10.691  22.876  0.00  0.00    +0.158 C 
BRANCH  13  17
ATOM     17  C   UNL     1      11.673  11.854  23.005  0.00  0.00    -0.028 A 
ATOM     19  C   UNL     1      11.330  12.602  21.879  0.00  0.00    +0.005 A 
ATOM     20  C   UNL     1      11.136  12.183  24.250  0.00  0.00    +0.005 A 
ATOM     24  C   UNL     1      10.451  13.679  21.997  0.00  0.00    +0.000 A 
ATOM     25  C   UNL     1      10.257  13.259  24.368  0.00  0.00    +0.000 A 
ATOM     29  C   UNL     1       9.914  14.007  23.242  0.00  0.00    +0.000 A 
ENDBRANCH  13  17
ENDBRANCH   5  13
TORSDOF 6
ENDMDL
MODEL 2
REMARK VINA RESULT:      -6.8      2.903      4.593
REMARK  Name = 25338959
REMARK  7 active torsions:
REMARK  status: ('A' for Active; 'I' for Inactive)
REMARK    1  A    between atoms: O_1  and  C_14
REMARK    2  A    between atoms: O_1  and  C_23
REMARK    3  A    between atoms: N_5  and  C_13
REMARK    4  A    between atoms: C_8  and  C_14
REMARK    5  A    between atoms: C_13  and  C_17
REMARK    6  A    between atoms: C_16  and  C_18
REMARK    7  A    between atoms: C_28  and  C_30
REMARK                            x       y       z     vdW  Elec       q    Type
REMARK                         _______ _______ _______ _____ _____    ______ ____
ROOT
ATOM      3  O   UNL     1      13.700   6.196  20.502  0.00  0.00    -0.270 OA
ATOM      4  N   UNL     1      14.053   8.361  19.672  0.00  0.00    -0.278 N 
ATOM      5  N   UNL     1      14.993  11.958  19.221  0.00  0.00    -0.328 N 
ATOM      6  N   UNL     1      12.847  12.362  19.694  0.00  0.00    -0.240 NA
ATOM      8  C   UNL     1      12.604   8.591  19.434  0.00  0.00    +0.191 C 
ATOM      9  C   UNL     1      12.084   9.960  19.920  0.00  0.00    +0.091 C 
ATOM     10  C   UNL     1      14.398  10.742  19.381  0.00  0.00    +0.059 A 
ATOM     11  C   UNL     1      15.026   9.413  19.254  0.00  0.00    +0.164 C 
ATOM     12  C   UNL     1      13.085  11.016  19.666  0.00  0.00    +0.066 A 
ATOM     15  C   UNL     1      14.018  12.903  19.420  0.00  0.00    +0.200 A 
ATOM     16  C   UNL     1      14.453   7.100  20.145  0.00  0.00    +0.248 C 
ENDROOT
BRANCH  16  18
ATOM     18  C   UNL     1      15.893   6.814  20.225  0.00  0.00    +0.037 A 
ATOM     21  C   UNL     1      16.521   6.107  19.201  0.00  0.00    +0.014 A 
ATOM     22  C   UNL     1      16.629   7.249  21.327  0.00  0.00    +0.014 A 
ATOM     26  C   UNL     1      17.888   5.836  19.278  0.00  0.00    +0.019 A 
ATOM     27  C   UNL     1      17.995   6.978  21.405  0.00  0.00    +0.019 A 
ATOM     28  C   UNL     1      18.625   6.272  20.380  0.00  0.00    +0.052 A 
BRANCH  28  30
ATOM      7  N   UNL     1      21.161   5.769  20.523  0.00  0.00    -0.191 NA
ATOM     30  C   UNL     1      20.024   5.994  20.459  0.00  0.00    +0.099 C 
ENDBRANCH  28  30
ENDBRANCH  16  18
BRANCH   8  14
ATOM      2  O   UNL     1      13.295   8.231  17.153  0.00  0.00    -0.249 OA
ATOM     14  C   UNL     1      12.391   8.396  17.960  0.00  0.00    +0.328 C 
BRANCH  14   1
ATOM      1  O   UNL     1      11.056   8.435  17.683  0.00  0.00    -0.467 OA
ATOM     23  C   UNL     1      10.717   8.799  16.341  0.00  0.00    +0.280 C 
ENDBRANCH  14   1
ENDBRANCH   8  14
BRANCH   5  13
ATOM     13  C   UNL     1      16.374  12.221  18.900  0.00  0.00    +0.158 C 
BRANCH  13  17
ATOM     17  C   UNL     1      17.281  12.208  20.105  0.00  0.00    -0.028 A 
ATOM     19  C   UNL     1      18.020  11.065  20.410  0.00  0.00    +0.005 A 
ATOM     20  C   UNL     1      17.380  13.339  20.915  0.00  0.00    +0.005 A 
ATOM     24  C   UNL     1      18.858  11.053  21.526  0.00  0.00    +0.000 A 
ATOM     25  C   UNL     1      18.219  13.327  22.030  0.00  0.00    +0.000 A 
ATOM     29  C   UNL     1      18.957  12.184  22.335  0.00  0.00    +0.000 A 
ENDBRANCH  13  17
ENDBRANCH   5  13
TORSDOF 6
ENDMDL
MODEL 3
REMARK VINA RESULT:      -6.8     26.174     29.143
REMARK  Name = 25338959
REMARK  7 active torsions:
REMARK  status: ('A' for Active; 'I' for Inactive)
REMARK    1  A    between atoms: O_1  and  C_14
REMARK    2  A    between atoms: O_1  and  C_23
REMARK    3  A    between atoms: N_5  and  C_13
REMARK    4  A    between atoms: C_8  and  C_14
REMARK    5  A    between atoms: C_13  and  C_17
REMARK    6  A    between atoms: C_16  and  C_18
REMARK    7  A    between atoms: C_28  and  C_30
REMARK                            x       y       z     vdW  Elec       q    Type
REMARK                         _______ _______ _______ _____ _____    ______ ____
ROOT
ATOM      3  O   UNL     1      -8.227  -9.496  15.114  0.00  0.00    -0.270 OA
ATOM      4  N   UNL     1      -6.739 -10.299  13.488  0.00  0.00    -0.278 N 
ATOM      5  N   UNL     1      -3.780 -10.919  11.278  0.00  0.00    -0.328 N 
ATOM      6  N   UNL     1      -4.864  -9.625   9.815  0.00  0.00    -0.240 NA
ATOM      8  C   UNL     1      -7.645  -9.939  12.367  0.00  0.00    +0.191 C 
ATOM      9  C   UNL     1      -6.953  -9.227  11.187  0.00  0.00    +0.091 C 
ATOM     10  C   UNL     1      -4.969 -10.595  11.859  0.00  0.00    +0.059 A 
ATOM     11  C   UNL     1      -5.467 -11.017  13.182  0.00  0.00    +0.164 C 
ATOM     12  C   UNL     1      -5.616  -9.805  10.942  0.00  0.00    +0.066 A 
ATOM     15  C   UNL     1      -3.762 -10.312  10.048  0.00  0.00    +0.200 A 
ATOM     16  C   UNL     1      -7.190 -10.078  14.801  0.00  0.00    +0.248 C 
ENDROOT
BRANCH  16  18
ATOM     18  C   UNL     1      -6.369 -10.582  15.911  0.00  0.00    +0.037 A 
ATOM     21  C   UNL     1      -5.319  -9.811  16.407  0.00  0.00    +0.014 A 
ATOM     22  C   UNL     1      -6.641 -11.832  16.467  0.00  0.00    +0.014 A 
ATOM     26  C   UNL     1      -4.540 -10.290  17.461  0.00  0.00    +0.019 A 
ATOM     27  C   UNL     1      -5.862 -12.311  17.521  0.00  0.00    +0.019 A 
ATOM     28  C   UNL     1      -4.812 -11.540  18.018  0.00  0.00    +0.052 A 
BRANCH  28  30
ATOM      7  N   UNL     1      -3.366 -12.428  19.974  0.00  0.00    -0.191 NA
ATOM     30  C   UNL     1      -4.014 -12.030  19.097  0.00  0.00    +0.099 C 
ENDBRANCH  28  30
ENDBRANCH  16  18
BRANCH   8  14
ATOM      2  O   UNL     1      -8.092 -11.786  10.883  0.00  0.00    -0.249 OA
ATOM     14  C   UNL     1      -8.309 -11.219  11.945  0.00  0.00    +0.328 C 
BRANCH  14   1
ATOM      1  O   UNL     1      -9.170 -11.629  12.920  0.00  0.00    -0.467 OA
ATOM     23  C   UNL     1      -9.068 -13.007  13.292  0.00  0.00    +0.280 C 
ENDBRANCH  14   1
ENDBRANCH   8  14
BRANCH   5  13
ATOM     13  C   UNL     1      -2.733 -11.744  11.830  0.00  0.00    +0.158 C 
BRANCH  13  17
ATOM     17  C   UNL     1      -2.222 -11.251  13.160  0.00  0.00    -0.028 A 
ATOM     19  C   UNL     1      -1.631  -9.991  13.256  0.00  0.00    +0.005 A 
ATOM     20  C   UNL     1      -2.339 -12.053  14.295  0.00  0.00    +0.005 A 
ATOM     24  C   UNL     1      -1.157  -9.534  14.486  0.00  0.00    +0.000 A 
ATOM     25  C   UNL     1      -1.866 -11.596  15.525  0.00  0.00    +0.000 A 
ATOM     29  C   UNL     1      -1.275 -10.337  15.620  0.00  0.00    +0.000 A 
ENDBRANCH  13  17
ENDBRANCH   5  13
TORSDOF 6
ENDMDL
MODEL 4
REMARK VINA RESULT:      -6.7      2.678      6.360
REMARK  Name = 25338959
REMARK  7 active torsions:
REMARK  status: ('A' for Active; 'I' for Inactive)
REMARK    1  A    between atoms: O_1  and  C_14
REMARK    2  A    between atoms: O_1  and  C_23
REMARK    3  A    between atoms: N_5  and  C_13
REMARK    4  A    between atoms: C_8  and  C_14
REMARK    5  A    between atoms: C_13  and  C_17
REMARK    6  A    between atoms: C_16  and  C_18
REMARK    7  A    between atoms: C_28  and  C_30
REMARK                            x       y       z     vdW  Elec       q    Type
REMARK                         _______ _______ _______ _____ _____    ______ ____
ROOT
ATOM      3  O   UNL     1      12.769  12.404  20.922  0.00  0.00    -0.270 OA
ATOM      4  N   UNL     1      13.581  10.213  20.710  0.00  0.00    -0.278 N 
ATOM      5  N   UNL     1      15.706   7.173  20.196  0.00  0.00    -0.328 N 
ATOM      6  N   UNL     1      14.860   7.185  18.129  0.00  0.00    -0.240 NA
ATOM      8  C   UNL     1      12.653   9.894  19.593  0.00  0.00    +0.191 C 
ATOM      9  C   UNL     1      13.311   9.168  18.402  0.00  0.00    +0.091 C 
ATOM     10  C   UNL     1      14.820   8.207  20.150  0.00  0.00    +0.059 A 
ATOM     11  C   UNL     1      14.465   9.134  21.241  0.00  0.00    +0.164 C 
ATOM     12  C   UNL     1      14.313   8.192  18.876  0.00  0.00    +0.066 A 
ATOM     15  C   UNL     1      15.696   6.588  18.956  0.00  0.00    +0.200 A 
ATOM     16  C   UNL     1      13.479  11.479  21.313  0.00  0.00    +0.248 C 
ENDROOT
BRANCH  16  18
ATOM     18  C   UNL     1      14.278  11.739  22.519  0.00  0.00    +0.037 A 
ATOM     21  C   UNL     1      15.578  12.226  22.402  0.00  0.00    +0.014 A 
ATOM     22  C   UNL     1      13.734  11.497  23.781  0.00  0.00    +0.014 A 
ATOM     26  C   UNL     1      16.336  12.473  23.547  0.00  0.00    +0.019 A 
ATOM     27  C   UNL     1      14.491  11.743  24.926  0.00  0.00    +0.019 A 
ATOM     28  C   UNL     1      15.792  12.232  24.809  0.00  0.00    +0.052 A 
BRANCH  28  30
ATOM      7  N   UNL     1      17.199  12.690  26.935  0.00  0.00    -0.191 NA
ATOM     30  C   UNL     1      16.569  12.484  25.982  0.00  0.00    +0.099 C 
ENDBRANCH  28  30
ENDBRANCH  16  18
BRANCH   8  14
ATOM      2  O   UNL     1      11.049   8.096  19.681  0.00  0.00    -0.249 OA
ATOM     14  C   UNL     1      11.538   9.090  20.200  0.00  0.00    +0.328 C 
BRANCH  14   1
ATOM      1  O   UNL     1      11.175   9.643  21.393  0.00  0.00    -0.467 OA
ATOM     23  C   UNL     1      10.673   8.725  22.369  0.00  0.00    +0.280 C 
ENDBRANCH  14   1
ENDBRANCH   8  14
BRANCH   5  13
ATOM     13  C   UNL     1      16.505   6.755  21.323  0.00  0.00    +0.158 C 
BRANCH  13  17
ATOM     17  C   UNL     1      17.935   7.229  21.250  0.00  0.00    -0.028 A 
ATOM     19  C   UNL     1      18.940   6.353  20.840  0.00  0.00    +0.005 A 
ATOM     20  C   UNL     1      18.253   8.543  21.594  0.00  0.00    +0.005 A 
ATOM     24  C   UNL     1      20.263   6.791  20.774  0.00  0.00    +0.000 A 
ATOM     25  C   UNL     1      19.576   8.980  21.527  0.00  0.00    +0.000 A 
ATOM     29  C   UNL     1      20.580   8.104  21.117  0.00  0.00    +0.000 A 
ENDBRANCH  13  17
ENDBRANCH   5  13
TORSDOF 6
ENDMDL
MODEL 5
REMARK VINA RESULT:      -6.6     14.530     19.030
REMARK  Name = 25338959
REMARK  7 active torsions:
REMARK  status: ('A' for Active; 'I' for Inactive)
REMARK    1  A    between atoms: O_1  and  C_14
REMARK    2  A    between atoms: O_1  and  C_23
REMARK    3  A    between atoms: N_5  and  C_13
REMARK    4  A    between atoms: C_8  and  C_14
REMARK    5  A    between atoms: C_13  and  C_17
REMARK    6  A    between atoms: C_16  and  C_18
REMARK    7  A    between atoms: C_28  and  C_30
REMARK                            x       y       z     vdW  Elec       q    Type
REMARK                         _______ _______ _______ _____ _____    ______ ____
ROOT
ATOM      3  O   UNL     1       9.956   4.817   5.520  0.00  0.00    -0.270 OA
ATOM      4  N   UNL     1      11.671   6.396   5.253  0.00  0.00    -0.278 N 
ATOM      5  N   UNL     1      14.865   8.168   4.429  0.00  0.00    -0.328 N 
ATOM      6  N   UNL     1      15.383   7.793   6.569  0.00  0.00    -0.240 NA
ATOM      8  C   UNL     1      11.776   6.645   6.714  0.00  0.00    +0.191 C 
ATOM      9  C   UNL     1      13.220   6.674   7.257  0.00  0.00    +0.091 C 
ATOM     10  C   UNL     1      13.784   7.551   4.983  0.00  0.00    +0.059 A 
ATOM     11  C   UNL     1      12.510   7.207   4.323  0.00  0.00    +0.164 C 
ATOM     12  C   UNL     1      14.124   7.336   6.294  0.00  0.00    +0.066 A 
ATOM     15  C   UNL     1      15.803   8.291   5.423  0.00  0.00    +0.200 A 
ATOM     16  C   UNL     1      10.677   5.509   4.803  0.00  0.00    +0.248 C 
ENDROOT
BRANCH  16  18
ATOM     18  C   UNL     1      10.462   5.385   3.355  0.00  0.00    +0.037 A 
ATOM     21  C   UNL     1      10.820   4.211   2.694  0.00  0.00    +0.014 A 
ATOM     22  C   UNL     1       9.900   6.444   2.641  0.00  0.00    +0.014 A 
ATOM     26  C   UNL     1      10.615   4.094   1.319  0.00  0.00    +0.019 A 
ATOM     27  C   UNL     1       9.695   6.328   1.266  0.00  0.00    +0.019 A 
ATOM     28  C   UNL     1      10.053   5.153   0.605  0.00  0.00    +0.052 A 
BRANCH  28  30
ATOM      7  N   UNL     1       9.674   4.936  -1.947  0.00  0.00    -0.191 NA
ATOM     30  C   UNL     1       9.844   5.033  -0.804  0.00  0.00    +0.099 C 
ENDBRANCH  28  30
ENDBRANCH  16  18
BRANCH   8  14
ATOM      2  O   UNL     1      11.603   8.987   7.261  0.00  0.00    -0.249 OA
ATOM     14  C   UNL     1      11.050   7.936   6.966  0.00  0.00    +0.328 C 
BRANCH  14   1
ATOM      1  O   UNL     1       9.709   7.742   6.815  0.00  0.00    -0.467 OA
ATOM     23  C   UNL     1       9.022   7.265   7.976  0.00  0.00    +0.280 C 
ENDBRANCH  14   1
ENDBRANCH   8  14
BRANCH   5  13
ATOM     13  C   UNL     1      15.012   8.616   3.065  0.00  0.00    +0.158 C 
BRANCH  13  17
ATOM     17  C   UNL     1      14.558   7.598   2.049  0.00  0.00    -0.028 A 
ATOM     19  C   UNL     1      13.634   7.957   1.067  0.00  0.00    +0.005 A 
ATOM     20  C   UNL     1      15.060   6.298   2.091  0.00  0.00    +0.005 A 
ATOM     24  C   UNL     1      13.213   7.015   0.128  0.00  0.00    +0.000 A 
ATOM     25  C   UNL     1      14.639   5.357   1.152  0.00  0.00    +0.000 A 
ATOM     29  C   UNL     1      13.716   5.715   0.171  0.00  0.00    +0.000 A 
ENDBRANCH  13  17
ENDBRANCH   5  13
TORSDOF 6
ENDMDL
MODEL 6
REMARK VINA RESULT:      -6.6      3.811      6.328
REMARK  Name = 25338959
REMARK  7 active torsions:
REMARK  status: ('A' for Active; 'I' for Inactive)
REMARK    1  A    between atoms: O_1  and  C_14
REMARK    2  A    between atoms: O_1  and  C_23
REMARK    3  A    between atoms: N_5  and  C_13
REMARK    4  A    between atoms: C_8  and  C_14
REMARK    5  A    between atoms: C_13  and  C_17
REMARK    6  A    between atoms: C_16  and  C_18
REMARK    7  A    between atoms: C_28  and  C_30
REMARK                            x       y       z     vdW  Elec       q    Type
REMARK                         _______ _______ _______ _____ _____    ______ ____
ROOT
ATOM      3  O   UNL     1      13.077  13.945  21.452  0.00  0.00    -0.270 OA
ATOM      4  N   UNL     1      12.877  11.616  21.658  0.00  0.00    -0.278 N 
ATOM      5  N   UNL     1      12.041   7.997  21.182  0.00  0.00    -0.328 N 
ATOM      6  N   UNL     1      10.432   8.386  22.682  0.00  0.00    -0.240 NA
ATOM      8  C   UNL     1      12.220  11.711  22.988  0.00  0.00    +0.191 C 
ATOM      9  C   UNL     1      10.978  10.812  23.154  0.00  0.00    +0.091 C 
ATOM     10  C   UNL     1      12.180   9.297  21.566  0.00  0.00    +0.059 A 
ATOM     11  C   UNL     1      13.194  10.266  21.108  0.00  0.00    +0.164 C 
ATOM     12  C   UNL     1      11.185   9.510  22.487  0.00  0.00    +0.066 A 
ATOM     15  C   UNL     1      10.974   7.490  21.881  0.00  0.00    +0.200 A 
ATOM     16  C   UNL     1      13.306  12.807  21.045  0.00  0.00    +0.248 C 
ENDROOT
BRANCH  16  18
ATOM     18  C   UNL     1      14.100  12.706  19.813  0.00  0.00    +0.037 A 
ATOM     21  C   UNL     1      15.492  12.673  19.881  0.00  0.00    +0.014 A 
ATOM     22  C   UNL     1      13.459  12.644  18.575  0.00  0.00    +0.014 A 
ATOM     26  C   UNL     1      16.244  12.577  18.710  0.00  0.00    +0.019 A 
ATOM     27  C   UNL     1      14.212  12.548  17.404  0.00  0.00    +0.019 A 
ATOM     28  C   UNL     1      15.604  12.514  17.472  0.00  0.00    +0.052 A 
BRANCH  28  30
ATOM      7  N   UNL     1      17.002  12.337  15.299  0.00  0.00    -0.191 NA
ATOM     30  C   UNL     1      16.376  12.416  16.273  0.00  0.00    +0.099 C 
ENDBRANCH  28  30
ENDBRANCH  16  18
BRANCH   8  14
ATOM      2  O   UNL     1      14.424  11.057  23.711  0.00  0.00    -0.249 OA
ATOM     14  C   UNL     1      13.285  11.398  23.999  0.00  0.00    +0.328 C 
BRANCH  14   1
ATOM      1  O   UNL     1      12.780  11.553  25.256  0.00  0.00    -0.467 OA
ATOM     23  C   UNL     1      12.655  12.906  25.706  0.00  0.00    +0.280 C 
ENDBRANCH  14   1
ENDBRANCH   8  14
BRANCH   5  13
ATOM     13  C   UNL     1      12.851   7.275  20.232  0.00  0.00    +0.158 C 
BRANCH  13  17
ATOM     17  C   UNL     1      12.922   7.940  18.880  0.00  0.00    -0.028 A 
ATOM     19  C   UNL     1      11.748   8.294  18.214  0.00  0.00    +0.005 A 
ATOM     20  C   UNL     1      14.160   8.201  18.294  0.00  0.00    +0.005 A 
ATOM     24  C   UNL     1      11.813   8.908  16.963  0.00  0.00    +0.000 A 
ATOM     25  C   UNL     1      14.226   8.815  17.044  0.00  0.00    +0.000 A 
ATOM     29  C   UNL     1      13.052   9.169  16.379  0.00  0.00    +0.000 A 
ENDBRANCH  13  17
ENDBRANCH   5  13
TORSDOF 6
ENDMDL
MODEL 7
REMARK VINA RESULT:      -6.5     26.692     28.966
REMARK  Name = 25338959
REMARK  7 active torsions:
REMARK  status: ('A' for Active; 'I' for Inactive)
REMARK    1  A    between atoms: O_1  and  C_14
REMARK    2  A    between atoms: O_1  and  C_23
REMARK    3  A    between atoms: N_5  and  C_13
REMARK    4  A    between atoms: C_8  and  C_14
REMARK    5  A    between atoms: C_13  and  C_17
REMARK    6  A    between atoms: C_16  and  C_18
REMARK    7  A    between atoms: C_28  and  C_30
REMARK                            x       y       z     vdW  Elec       q    Type
REMARK                         _______ _______ _______ _____ _____    ______ ____
ROOT
ATOM      3  O   UNL     1      -1.463 -10.383  11.652  0.00  0.00    -0.270 OA
ATOM      4  N   UNL     1      -3.150 -10.747  13.241  0.00  0.00    -0.278 N 
ATOM      5  N   UNL     1      -5.998 -10.388  15.646  0.00  0.00    -0.328 N 
ATOM      6  N   UNL     1      -4.398 -10.264  17.200  0.00  0.00    -0.240 NA
ATOM      8  C   UNL     1      -2.186 -11.210  14.274  0.00  0.00    +0.191 C 
ATOM      9  C   UNL     1      -2.407 -10.602  15.674  0.00  0.00    +0.091 C 
ATOM     10  C   UNL     1      -4.814 -10.555  14.992  0.00  0.00    +0.059 A 
ATOM     11  C   UNL     1      -4.609 -10.788  13.550  0.00  0.00    +0.164 C 
ATOM     12  C   UNL     1      -3.850 -10.478  15.966  0.00  0.00    +0.066 A 
ATOM     15  C   UNL     1      -5.696 -10.216  16.973  0.00  0.00    +0.200 A 
ATOM     16  C   UNL     1      -2.651 -10.432  11.966  0.00  0.00    +0.248 C 
ENDROOT
BRANCH  16  18
ATOM     18  C   UNL     1      -3.616 -10.133  10.898  0.00  0.00    +0.037 A 
ATOM     21  C   UNL     1      -4.033  -8.821  10.683  0.00  0.00    +0.014 A 
ATOM     22  C   UNL     1      -4.114 -11.164  10.101  0.00  0.00    +0.014 A 
ATOM     26  C   UNL     1      -4.949  -8.538   9.669  0.00  0.00    +0.019 A 
ATOM     27  C   UNL     1      -5.030 -10.882   9.087  0.00  0.00    +0.019 A 
ATOM     28  C   UNL     1      -5.447  -9.569   8.871  0.00  0.00    +0.052 A 
BRANCH  28  30
ATOM      7  N   UNL     1      -7.147  -9.045   6.989  0.00  0.00    -0.191 NA
ATOM     30  C   UNL     1      -6.385  -9.279   7.832  0.00  0.00    +0.099 C 
ENDBRANCH  28  30
ENDBRANCH  16  18
BRANCH   8  14
ATOM      2  O   UNL     1      -3.139 -13.336  14.893  0.00  0.00    -0.249 OA
ATOM     14  C   UNL     1      -2.281 -12.709  14.286  0.00  0.00    +0.328 C 
BRANCH  14   1
ATOM      1  O   UNL     1      -1.277 -13.236  13.529  0.00  0.00    -0.467 OA
ATOM     23  C   UNL     1      -1.265 -14.663  13.430  0.00  0.00    +0.280 C 
ENDBRANCH  14   1
ENDBRANCH   8  14
BRANCH   5  13
ATOM     13  C   UNL     1      -7.322 -10.394  15.072  0.00  0.00    +0.158 C 
BRANCH  13  17
ATOM     17  C   UNL     1      -8.406 -10.069  16.068  0.00  0.00    -0.028 A 
ATOM     19  C   UNL     1      -9.092 -11.098  16.713  0.00  0.00    +0.005 A 
ATOM     20  C   UNL     1      -8.724  -8.739  16.345  0.00  0.00    +0.005 A 
ATOM     24  C   UNL     1     -10.096 -10.797  17.634  0.00  0.00    +0.000 A 
ATOM     25  C   UNL     1      -9.727  -8.439  17.266  0.00  0.00    +0.000 A 
ATOM     29  C   UNL     1     -10.413  -9.468  17.910  0.00  0.00    +0.000 A 
ENDBRANCH  13  17
ENDBRANCH   5  13
TORSDOF 6
ENDMDL
MODEL 8
REMARK VINA RESULT:      -6.3     22.902     26.109
REMARK  Name = 25338959
REMARK  7 active torsions:
REMARK  status: ('A' for Active; 'I' for Inactive)
REMARK    1  A    between atoms: O_1  and  C_14
REMARK    2  A    between atoms: O_1  and  C_23
REMARK    3  A    between atoms: N_5  and  C_13
REMARK    4  A    between atoms: C_8  and  C_14
REMARK    5  A    between atoms: C_13  and  C_17
REMARK    6  A    between atoms: C_16  and  C_18
REMARK    7  A    between atoms: C_28  and  C_30
REMARK                            x       y       z     vdW  Elec       q    Type
REMARK                         _______ _______ _______ _____ _____    ______ ____
ROOT
ATOM      3  O   UNL     1      -1.830  10.635   6.021  0.00  0.00    -0.270 OA
ATOM      4  N   UNL     1      -1.457  10.620   3.705  0.00  0.00    -0.278 N 
ATOM      5  N   UNL     1      -0.626   9.680   0.177  0.00  0.00    -0.328 N 
ATOM      6  N   UNL     1       1.348  10.631   0.608  0.00  0.00    -0.240 NA
ATOM      8  C   UNL     1      -0.423  11.685   3.786  0.00  0.00    +0.191 C 
ATOM      9  C   UNL     1       0.853  11.402   2.967  0.00  0.00    +0.091 C 
ATOM     10  C   UNL     1      -0.705  10.170   1.446  0.00  0.00    +0.059 A 
ATOM     11  C   UNL     1      -1.859  10.109   2.362  0.00  0.00    +0.164 C 
ATOM     12  C   UNL     1       0.515  10.751   1.685  0.00  0.00    +0.066 A 
ATOM     15  C   UNL     1       0.629   9.981  -0.286  0.00  0.00    +0.200 A 
ATOM     16  C   UNL     1      -2.115  10.247   4.890  0.00  0.00    +0.248 C 
ENDROOT
BRANCH  16  18
ATOM     18  C   UNL     1      -3.248   9.316   4.790  0.00  0.00    +0.037 A 
ATOM     21  C   UNL     1      -4.484   9.768   4.331  0.00  0.00    +0.014 A 
ATOM     22  C   UNL     1      -3.085   7.979   5.156  0.00  0.00    +0.014 A 
ATOM     26  C   UNL     1      -5.559   8.883   4.236  0.00  0.00    +0.019 A 
ATOM     27  C   UNL     1      -4.160   7.095   5.061  0.00  0.00    +0.019 A 
ATOM     28  C   UNL     1      -5.396   7.546   4.602  0.00  0.00    +0.052 A 
BRANCH  28  30
ATOM      7  N   UNL     1      -7.392   5.905   4.425  0.00  0.00    -0.191 NA
ATOM     30  C   UNL     1      -6.497   6.640   4.505  0.00  0.00    +0.099 C 
ENDBRANCH  28  30
ENDBRANCH  16  18
BRANCH   8  14
ATOM      2  O   UNL     1      -2.265  13.232   3.617  0.00  0.00    -0.249 OA
ATOM     14  C   UNL     1      -1.103  12.954   3.355  0.00  0.00    +0.328 C 
BRANCH  14   1
ATOM      1  O   UNL     1      -0.228  13.720   2.641  0.00  0.00    -0.467 OA
ATOM     23  C   UNL     1      -0.764  14.327   1.462  0.00  0.00    +0.280 C 
ENDBRANCH  14   1
ENDBRANCH   8  14
BRANCH   5  13
ATOM     13  C   UNL     1      -1.655   8.981  -0.556  0.00  0.00    +0.158 C 
BRANCH  13  17
ATOM     17  C   UNL     1      -2.172   9.755  -1.742  0.00  0.00    -0.028 A 
ATOM     19  C   UNL     1      -1.282  10.241  -2.700  0.00  0.00    +0.005 A 
ATOM     20  C   UNL     1      -3.540   9.985  -1.883  0.00  0.00    +0.005 A 
ATOM     24  C   UNL     1      -1.759  10.957  -3.798  0.00  0.00    +0.000 A 
ATOM     25  C   UNL     1      -4.018  10.700  -2.981  0.00  0.00    +0.000 A 
ATOM     29  C   UNL     1      -3.128  11.186  -3.938  0.00  0.00    +0.000 A 
ENDBRANCH  13  17
ENDBRANCH   5  13
TORSDOF 6
ENDMDL
MODEL 9
REMARK VINA RESULT:      -6.3     23.502     25.928
REMARK  Name = 25338959
REMARK  7 active torsions:
REMARK  status: ('A' for Active; 'I' for Inactive)
REMARK    1  A    between atoms: O_1  and  C_14
REMARK    2  A    between atoms: O_1  and  C_23
REMARK    3  A    between atoms: N_5  and  C_13
REMARK    4  A    between atoms: C_8  and  C_14
REMARK    5  A    between atoms: C_13  and  C_17
REMARK    6  A    between atoms: C_16  and  C_18
REMARK    7  A    between atoms: C_28  and  C_30
REMARK                            x       y       z     vdW  Elec       q    Type
REMARK                         _______ _______ _______ _____ _____    ______ ____
ROOT
ATOM      3  O   UNL     1       4.532 -13.021  36.404  0.00  0.00    -0.270 OA
ATOM      4  N   UNL     1       5.054 -10.837  35.724  0.00  0.00    -0.278 N 
ATOM      5  N   UNL     1       6.690  -7.776  34.317  0.00  0.00    -0.328 N 
ATOM      6  N   UNL     1       7.317  -7.395  36.427  0.00  0.00    -0.240 NA
ATOM      8  C   UNL     1       4.992 -10.306  37.111  0.00  0.00    +0.191 C 
ATOM      9  C   UNL     1       6.163  -9.378  37.494  0.00  0.00    +0.091 C 
ATOM     10  C   UNL     1       6.144  -8.775  35.067  0.00  0.00    +0.059 A 
ATOM     11  C   UNL     1       5.292  -9.885  34.600  0.00  0.00    +0.164 C 
ATOM     12  C   UNL     1       6.539  -8.517  36.355  0.00  0.00    +0.066 A 
ATOM     15  C   UNL     1       7.388  -6.970  35.181  0.00  0.00    +0.200 A 
ATOM     16  C   UNL     1       4.738 -12.191  35.519  0.00  0.00    +0.248 C 
ENDROOT
BRANCH  16  18
ATOM     18  C   UNL     1       4.639 -12.679  34.137  0.00  0.00    +0.037 A 
ATOM     21  C   UNL     1       3.402 -13.063  33.620  0.00  0.00    +0.014 A 
ATOM     22  C   UNL     1       5.782 -12.759  33.342  0.00  0.00    +0.014 A 
ATOM     26  C   UNL     1       3.309 -13.526  32.307  0.00  0.00    +0.019 A 
ATOM     27  C   UNL     1       5.689 -13.222  32.029  0.00  0.00    +0.019 A 
ATOM     28  C   UNL     1       4.452 -13.606  31.512  0.00  0.00    +0.052 A 
BRANCH  28  30
ATOM      7  N   UNL     1       4.277 -14.465  29.075  0.00  0.00    -0.191 NA
ATOM     30  C   UNL     1       4.356 -14.080  30.167  0.00  0.00    +0.099 C 
ENDBRANCH  28  30
ENDBRANCH  16  18
BRANCH   8  14
ATOM      2  O   UNL     1       3.525  -8.434  37.504  0.00  0.00    -0.249 OA
ATOM     14  C   UNL     1       3.662  -9.618  37.230  0.00  0.00    +0.328 C 
BRANCH  14   1
ATOM      1  O   UNL     1       2.662 -10.514  36.990  0.00  0.00    -0.467 OA
ATOM     23  C   UNL     1       1.546 -10.007  36.252  0.00  0.00    +0.280 C 
ENDBRANCH  14   1
ENDBRANCH   8  14
BRANCH   5  13
ATOM     13  C   UNL     1       6.564  -7.583  32.893  0.00  0.00    +0.158 C 
BRANCH  13  17
ATOM     17  C   UNL     1       7.092  -8.742  32.085  0.00  0.00    -0.028 A 
ATOM     19  C   UNL     1       6.393  -9.185  30.961  0.00  0.00    +0.005 A 
ATOM     20  C   UNL     1       8.278  -9.373  32.460  0.00  0.00    +0.005 A 
ATOM     24  C   UNL     1       6.880 -10.257  30.214  0.00  0.00    +0.000 A 
ATOM     25  C   UNL     1       8.765 -10.444  31.712  0.00  0.00    +0.000 A 
ATOM     29  C   UNL     1       8.066 -10.887  30.590  0.00  0.00    +0.000 A 
ENDBRANCH  13  17
ENDBRANCH   5  13
TORSDOF 6
ENDMDL
MODEL 10
REMARK VINA RESULT:      -6.3     15.186     18.795
REMARK  Name = 25338959
REMARK  7 active torsions:
REMARK  status: ('A' for Active; 'I' for Inactive)
REMARK    1  A    between atoms: O_1  and  C_14
REMARK    2  A    between atoms: O_1  and  C_23
REMARK    3  A    between atoms: N_5  and  C_13
REMARK    4  A    between atoms: C_8  and  C_14
REMARK    5  A    between atoms: C_13  and  C_17
REMARK    6  A    between atoms: C_16  and  C_18
REMARK    7  A    between atoms: C_28  and  C_30
REMARK                            x       y       z     vdW  Elec       q    Type
REMARK                         _______ _______ _______ _____ _____    ______ ____
ROOT
ATOM      3  O   UNL     1       9.876   5.346   1.474  0.00  0.00    -0.270 OA
ATOM      4  N   UNL     1      12.149   5.727   1.916  0.00  0.00    -0.278 N 
ATOM      5  N   UNL     1      15.455   7.213   2.857  0.00  0.00    -0.328 N 
ATOM      6  N   UNL     1      15.711   7.513   0.658  0.00  0.00    -0.240 NA
ATOM      8  C   UNL     1      12.552   5.428   0.517  0.00  0.00    +0.191 C 
ATOM      9  C   UNL     1      13.547   6.437  -0.092  0.00  0.00    +0.091 C 
ATOM     10  C   UNL     1      14.350   6.677   2.265  0.00  0.00    +0.059 A 
ATOM     11  C   UNL     1      13.211   6.013   2.924  0.00  0.00    +0.164 C 
ATOM     12  C   UNL     1      14.533   6.871   0.919  0.00  0.00    +0.066 A 
ATOM     15  C   UNL     1      16.245   7.704   1.849  0.00  0.00    +0.200 A 
ATOM     16  C   UNL     1      10.793   5.581   2.259  0.00  0.00    +0.248 C 
ENDROOT
BRANCH  16  18
ATOM     18  C   UNL     1      10.418   5.716   3.674  0.00  0.00    +0.037 A 
ATOM     21  C   UNL     1      10.249   4.578   4.461  0.00  0.00    +0.014 A 
ATOM     22  C   UNL     1      10.229   6.982   4.227  0.00  0.00    +0.014 A 
ATOM     26  C   UNL     1       9.893   4.707   5.804  0.00  0.00    +0.019 A 
ATOM     27  C   UNL     1       9.872   7.111   5.570  0.00  0.00    +0.019 A 
ATOM     28  C   UNL     1       9.704   5.973   6.358  0.00  0.00    +0.052 A 
BRANCH  28  30
ATOM      7  N   UNL     1       9.043   6.211   8.850  0.00  0.00    -0.191 NA
ATOM     30  C   UNL     1       9.339   6.104   7.734  0.00  0.00    +0.099 C 
ENDBRANCH  28  30
ENDBRANCH  16  18
BRANCH   8  14
ATOM      2  O   UNL     1      13.053   3.287   1.505  0.00  0.00    -0.249 OA
ATOM     14  C   UNL     1      13.102   4.031   0.535  0.00  0.00    +0.328 C 
BRANCH  14   1
ATOM      1  O   UNL     1      13.652   3.742  -0.679  0.00  0.00    -0.467 OA
ATOM     23  C   UNL     1      12.767   3.138  -1.627  0.00  0.00    +0.280 C 
ENDBRANCH  14   1
ENDBRANCH   8  14
BRANCH   5  13
ATOM     13  C   UNL     1      15.756   7.257   4.267  0.00  0.00    +0.158 C 
BRANCH  13  17
ATOM     17  C   UNL     1      14.697   7.956   5.082  0.00  0.00    -0.028 A 
ATOM     19  C   UNL     1      14.150   7.328   6.201  0.00  0.00    +0.005 A 
ATOM     20  C   UNL     1      14.262   9.230   4.717  0.00  0.00    +0.005 A 
ATOM     24  C   UNL     1      13.169   7.974   6.955  0.00  0.00    +0.000 A 
ATOM     25  C   UNL     1      13.282   9.876   5.470  0.00  0.00    +0.000 A 
ATOM     29  C   UNL     1      12.736   9.248   6.589  0.00  0.00    +0.000 A 
ENDBRANCH  13  17
ENDBRANCH   5  13
TORSDOF 6
ENDMDL
