MODEL 1
REMARK VINA RESULT:      -7.1      0.000      0.000
REMARK  Name = 75537109
REMARK  5 active torsions:
REMARK  status: ('A' for Active; 'I' for Inactive)
REMARK    1  A    between atoms: N_4  and  C_13
REMARK    2  A    between atoms: N_5  and  C_14
REMARK    3  A    between atoms: N_6  and  C_20
REMARK    4  A    between atoms: C_13  and  C_15
REMARK    5  A    between atoms: C_21  and  C_22
REMARK                            x       y       z     vdW  Elec       q    Type
REMARK                         _______ _______ _______ _____ _____    ______ ____
ROOT
ATOM     13  C   UNL     1      17.147   8.118  21.037  0.00  0.00    +0.119 C 
ENDROOT
BRANCH  13   4
ATOM      1  O   UNL     1      10.848   8.094  20.015  0.00  0.00    -0.252 OA
ATOM      3  N   UNL     1      13.137   7.577  19.924  0.00  0.00    -0.278 N 
ATOM      4  N   UNL     1      15.854   7.552  20.653  0.00  0.00    -0.295 NA
ATOM      5  N   UNL     1      12.098   8.143  18.016  0.00  0.00    -0.287 N 
ATOM      7  C   UNL     1      14.138   7.387  18.896  0.00  0.00    +0.109 C 
ATOM      8  C   UNL     1      15.459   8.033  19.314  0.00  0.00    +0.109 C 
ATOM      9  C   UNL     1      13.495   7.990  17.649  0.00  0.00    +0.132 C 
ATOM     10  C   UNL     1      13.470   7.275  21.301  0.00  0.00    +0.125 C 
ATOM     11  C   UNL     1      14.826   7.890  21.658  0.00  0.00    +0.104 C 
ATOM     12  C   UNL     1      11.894   7.951  19.398  0.00  0.00    +0.305 C 
ATOM     14  C   UNL     1      11.100   8.588  17.068  0.00  0.00    +0.133 C 
ENDBRANCH  13   4
BRANCH  13  15
ATOM     15  C   UNL     1      18.261   7.114  20.899  0.00  0.00    -0.033 A 
ATOM     16  C   UNL     1      19.411   7.237  21.677  0.00  0.00    +0.007 A 
ATOM     17  C   UNL     1      18.142   6.059  19.993  0.00  0.00    +0.007 A 
ATOM     18  C   UNL     1      20.443   6.307  21.549  0.00  0.00    +0.023 A 
ATOM     19  C   UNL     1      19.174   5.130  19.864  0.00  0.00    +0.023 A 
ATOM     20  C   UNL     1      20.324   5.254  20.642  0.00  0.00    +0.033 A 
BRANCH  20   6
ATOM      2  O   UNL     1      21.770   3.636  22.730  0.00  0.00    -0.276 OA
ATOM      6  N   UNL     1      21.356   4.324  20.513  0.00  0.00    -0.286 N 
ATOM     21  C   UNL     1      21.997   3.596  21.526  0.00  0.00    +0.214 C 
ATOM     22  C   UNL     1      23.066   2.689  20.971  0.00  0.00    +0.109 C 
ATOM     23  H   UNL     1      21.677   4.160  19.561  0.00  0.00    +0.155 HD
ENDBRANCH  20   6
ENDBRANCH  13  15
TORSDOF 3
ENDMDL
MODEL 2
REMARK VINA RESULT:      -6.9      1.879      2.987
REMARK  Name = 75537109
REMARK  5 active torsions:
REMARK  status: ('A' for Active; 'I' for Inactive)
REMARK    1  A    between atoms: N_4  and  C_13
REMARK    2  A    between atoms: N_5  and  C_14
REMARK    3  A    between atoms: N_6  and  C_20
REMARK    4  A    between atoms: C_13  and  C_15
REMARK    5  A    between atoms: C_21  and  C_22
REMARK                            x       y       z     vdW  Elec       q    Type
REMARK                         _______ _______ _______ _____ _____    ______ ____
ROOT
ATOM     13  C   UNL     1      16.536   6.237  19.132  0.00  0.00    +0.119 C 
ENDROOT
BRANCH  13   4
ATOM      1  O   UNL     1      10.576   8.518  19.233  0.00  0.00    -0.252 OA
ATOM      3  N   UNL     1      12.836   8.121  19.739  0.00  0.00    -0.278 N 
ATOM      4  N   UNL     1      15.475   7.202  19.421  0.00  0.00    -0.295 NA
ATOM      5  N   UNL     1      11.309   7.780  21.350  0.00  0.00    -0.287 N 
ATOM      7  C   UNL     1      13.616   7.804  20.917  0.00  0.00    +0.109 C 
ATOM      8  C   UNL     1      14.680   6.760  20.585  0.00  0.00    +0.109 C 
ATOM      9  C   UNL     1      12.569   7.354  21.934  0.00  0.00    +0.132 C 
ATOM     10  C   UNL     1      13.518   8.426  18.498  0.00  0.00    +0.125 C 
ATOM     11  C   UNL     1      14.614   7.390  18.236  0.00  0.00    +0.104 C 
ATOM     12  C   UNL     1      11.462   8.186  20.009  0.00  0.00    +0.305 C 
ATOM     14  C   UNL     1      10.053   7.641  22.053  0.00  0.00    +0.133 C 
ENDBRANCH  13   4
BRANCH  13  15
ATOM     15  C   UNL     1      17.758   6.478  19.978  0.00  0.00    -0.033 A 
ATOM     16  C   UNL     1      18.817   5.573  19.949  0.00  0.00    +0.007 A 
ATOM     17  C   UNL     1      17.831   7.609  20.793  0.00  0.00    +0.007 A 
ATOM     18  C   UNL     1      19.949   5.795  20.733  0.00  0.00    +0.023 A 
ATOM     19  C   UNL     1      18.961   7.832  21.578  0.00  0.00    +0.023 A 
ATOM     20  C   UNL     1      20.020   6.925  21.548  0.00  0.00    +0.033 A 
BRANCH  20   6
ATOM      2  O   UNL     1      20.498   6.418  24.477  0.00  0.00    -0.276 OA
ATOM      6  N   UNL     1      21.152   7.149  22.333  0.00  0.00    -0.286 N 
ATOM     21  C   UNL     1      21.319   6.894  23.702  0.00  0.00    +0.214 C 
ATOM     22  C   UNL     1      22.698   7.277  24.177  0.00  0.00    +0.109 C 
ATOM     23  H   UNL     1      21.950   7.547  21.843  0.00  0.00    +0.155 HD
ENDBRANCH  20   6
ENDBRANCH  13  15
TORSDOF 3
ENDMDL
MODEL 3
REMARK VINA RESULT:      -6.4     32.516     33.827
REMARK  Name = 75537109
REMARK  5 active torsions:
REMARK  status: ('A' for Active; 'I' for Inactive)
REMARK    1  A    between atoms: N_4  and  C_13
REMARK    2  A    between atoms: N_5  and  C_14
REMARK    3  A    between atoms: N_6  and  C_20
REMARK    4  A    between atoms: C_13  and  C_15
REMARK    5  A    between atoms: C_21  and  C_22
REMARK                            x       y       z     vdW  Elec       q    Type
REMARK                         _______ _______ _______ _____ _____    ______ ____
ROOT
ATOM     13  C   UNL     1     -15.699   5.184  33.064  0.00  0.00    +0.119 C 
ENDROOT
BRANCH  13   4
ATOM      1  O   UNL     1     -13.564  10.705  35.450  0.00  0.00    -0.252 OA
ATOM      3  N   UNL     1     -13.659   8.537  34.551  0.00  0.00    -0.278 N 
ATOM      4  N   UNL     1     -14.735   6.260  33.299  0.00  0.00    -0.295 NA
ATOM      5  N   UNL     1     -12.638   8.824  36.529  0.00  0.00    -0.287 N 
ATOM      7  C   UNL     1     -13.108   7.237  34.865  0.00  0.00    +0.109 C 
ATOM      8  C   UNL     1     -14.159   6.148  34.653  0.00  0.00    +0.109 C 
ATOM      9  C   UNL     1     -12.621   7.389  36.305  0.00  0.00    +0.132 C 
ATOM     10  C   UNL     1     -14.378   8.720  33.307  0.00  0.00    +0.125 C 
ATOM     11  C   UNL     1     -15.376   7.576  33.106  0.00  0.00    +0.104 C 
ATOM     12  C   UNL     1     -13.315   9.508  35.500  0.00  0.00    +0.305 C 
ATOM     14  C   UNL     1     -12.139   9.414  37.752  0.00  0.00    +0.133 C 
ENDBRANCH  13   4
BRANCH  13  15
ATOM     15  C   UNL     1     -15.080   4.030  32.323  0.00  0.00    -0.033 A 
ATOM     16  C   UNL     1     -14.733   2.866  33.009  0.00  0.00    +0.007 A 
ATOM     17  C   UNL     1     -14.853   4.123  30.949  0.00  0.00    +0.007 A 
ATOM     18  C   UNL     1     -14.158   1.796  32.323  0.00  0.00    +0.023 A 
ATOM     19  C   UNL     1     -14.278   3.054  30.263  0.00  0.00    +0.023 A 
ATOM     20  C   UNL     1     -13.931   1.890  30.950  0.00  0.00    +0.033 A 
BRANCH  20   6
ATOM      2  O   UNL     1     -15.106  -0.752  30.110  0.00  0.00    -0.276 OA
ATOM      6  N   UNL     1     -13.356   0.820  30.263  0.00  0.00    -0.286 N 
ATOM     21  C   UNL     1     -13.953  -0.394  29.897  0.00  0.00    +0.214 C 
ATOM     22  C   UNL     1     -12.990  -1.290  29.161  0.00  0.00    +0.109 C 
ATOM     23  H   UNL     1     -12.381   0.947  29.998  0.00  0.00    +0.155 HD
ENDBRANCH  20   6
ENDBRANCH  13  15
TORSDOF 3
ENDMDL
MODEL 4
REMARK VINA RESULT:      -6.2      2.155      8.918
REMARK  Name = 75537109
REMARK  5 active torsions:
REMARK  status: ('A' for Active; 'I' for Inactive)
REMARK    1  A    between atoms: N_4  and  C_13
REMARK    2  A    between atoms: N_5  and  C_14
REMARK    3  A    between atoms: N_6  and  C_20
REMARK    4  A    between atoms: C_13  and  C_15
REMARK    5  A    between atoms: C_21  and  C_22
REMARK                            x       y       z     vdW  Elec       q    Type
REMARK                         _______ _______ _______ _____ _____    ______ ____
ROOT
ATOM     13  C   UNL     1      18.689   6.609  21.717  0.00  0.00    +0.119 C 
ENDROOT
BRANCH  13   4
ATOM      1  O   UNL     1      24.941   7.155  20.560  0.00  0.00    -0.252 OA
ATOM      3  N   UNL     1      22.686   6.508  20.442  0.00  0.00    -0.278 N 
ATOM      4  N   UNL     1      19.914   6.553  20.920  0.00  0.00    -0.295 NA
ATOM      5  N   UNL     1      24.236   4.911  20.735  0.00  0.00    -0.287 N 
ATOM      7  C   UNL     1      21.943   5.267  20.383  0.00  0.00    +0.109 C 
ATOM      8  C   UNL     1      20.698   5.350  21.265  0.00  0.00    +0.109 C 
ATOM      9  C   UNL     1      22.964   4.214  20.810  0.00  0.00    +0.132 C 
ATOM     10  C   UNL     1      21.985   7.763  20.264  0.00  0.00    +0.125 C 
ATOM     11  C   UNL     1      20.714   7.778  21.119  0.00  0.00    +0.104 C 
ATOM     12  C   UNL     1      24.066   6.301  20.573  0.00  0.00    +0.305 C 
ATOM     14  C   UNL     1      25.495   4.234  20.959  0.00  0.00    +0.133 C 
ENDBRANCH  13   4
BRANCH  13  15
ATOM     15  C   UNL     1      17.492   6.972  20.879  0.00  0.00    -0.033 A 
ATOM     16  C   UNL     1      17.174   6.216  19.752  0.00  0.00    +0.007 A 
ATOM     17  C   UNL     1      16.700   8.067  21.230  0.00  0.00    +0.007 A 
ATOM     18  C   UNL     1      16.066   6.554  18.974  0.00  0.00    +0.023 A 
ATOM     19  C   UNL     1      15.593   8.405  20.453  0.00  0.00    +0.023 A 
ATOM     20  C   UNL     1      15.276   7.647  19.326  0.00  0.00    +0.033 A 
BRANCH  20   6
ATOM      2  O   UNL     1      12.455   6.595  19.381  0.00  0.00    -0.276 OA
ATOM      6  N   UNL     1      14.167   7.986  18.548  0.00  0.00    -0.286 N 
ATOM     21  C   UNL     1      12.870   7.460  18.617  0.00  0.00    +0.214 C 
ATOM     22  C   UNL     1      11.955   8.094  17.600  0.00  0.00    +0.109 C 
ATOM     23  H   UNL     1      14.331   8.705  17.847  0.00  0.00    +0.155 HD
ENDBRANCH  20   6
ENDBRANCH  13  15
TORSDOF 3
ENDMDL
MODEL 5
REMARK VINA RESULT:      -6.2     27.228     29.247
REMARK  Name = 75537109
REMARK  5 active torsions:
REMARK  status: ('A' for Active; 'I' for Inactive)
REMARK    1  A    between atoms: N_4  and  C_13
REMARK    2  A    between atoms: N_5  and  C_14
REMARK    3  A    between atoms: N_6  and  C_20
REMARK    4  A    between atoms: C_13  and  C_15
REMARK    5  A    between atoms: C_21  and  C_22
REMARK                            x       y       z     vdW  Elec       q    Type
REMARK                         _______ _______ _______ _____ _____    ______ ____
ROOT
ATOM     13  C   UNL     1      -2.251 -10.727  11.996  0.00  0.00    +0.119 C 
ENDROOT
BRANCH  13   4
ATOM      1  O   UNL     1      -4.787 -10.527  17.849  0.00  0.00    -0.252 OA
ATOM      3  N   UNL     1      -4.425 -10.995  15.576  0.00  0.00    -0.278 N 
ATOM      4  N   UNL     1      -3.069 -11.186  13.119  0.00  0.00    -0.295 NA
ATOM      5  N   UNL     1      -6.340  -9.979  16.161  0.00  0.00    -0.287 N 
ATOM      7  C   UNL     1      -5.185 -10.919  14.347  0.00  0.00    +0.109 C 
ATOM      8  C   UNL     1      -4.310 -10.391  13.211  0.00  0.00    +0.109 C 
ATOM      9  C   UNL     1      -6.373 -10.030  14.710  0.00  0.00    +0.132 C 
ATOM     10  C   UNL     1      -3.121 -11.626  15.565  0.00  0.00    +0.125 C 
ATOM     11  C   UNL     1      -2.301 -11.113  14.378  0.00  0.00    +0.104 C 
ATOM     12  C   UNL     1      -5.139 -10.508  16.678  0.00  0.00    +0.305 C 
ATOM     14  C   UNL     1      -7.372  -9.318  16.928  0.00  0.00    +0.133 C 
ENDBRANCH  13   4
BRANCH  13  15
ATOM     15  C   UNL     1      -3.086 -10.437  10.777  0.00  0.00    -0.033 A 
ATOM     16  C   UNL     1      -3.757 -11.473  10.128  0.00  0.00    +0.007 A 
ATOM     17  C   UNL     1      -3.188  -9.132  10.295  0.00  0.00    +0.007 A 
ATOM     18  C   UNL     1      -4.529 -11.205   8.998  0.00  0.00    +0.023 A 
ATOM     19  C   UNL     1      -3.960  -8.863   9.165  0.00  0.00    +0.023 A 
ATOM     20  C   UNL     1      -4.631  -9.900   8.517  0.00  0.00    +0.033 A 
BRANCH  20   6
ATOM      2  O   UNL     1      -7.569  -9.297   8.255  0.00  0.00    -0.276 OA
ATOM      6  N   UNL     1      -5.403  -9.631   7.386  0.00  0.00    -0.286 N 
ATOM     21  C   UNL     1      -6.776  -9.357   7.322  0.00  0.00    +0.214 C 
ATOM     22  C   UNL     1      -7.232  -9.118   5.905  0.00  0.00    +0.109 C 
ATOM     23  H   UNL     1      -4.897  -9.637   6.503  0.00  0.00    +0.155 HD
ENDBRANCH  20   6
ENDBRANCH  13  15
TORSDOF 3
ENDMDL
MODEL 6
REMARK VINA RESULT:      -6.1     27.327     29.338
REMARK  Name = 75537109
REMARK  5 active torsions:
REMARK  status: ('A' for Active; 'I' for Inactive)
REMARK    1  A    between atoms: N_4  and  C_13
REMARK    2  A    between atoms: N_5  and  C_14
REMARK    3  A    between atoms: N_6  and  C_20
REMARK    4  A    between atoms: C_13  and  C_15
REMARK    5  A    between atoms: C_21  and  C_22
REMARK                            x       y       z     vdW  Elec       q    Type
REMARK                         _______ _______ _______ _____ _____    ______ ____
ROOT
ATOM     13  C   UNL     1      -2.663 -11.084  11.895  0.00  0.00    +0.119 C 
ENDROOT
BRANCH  13   4
ATOM      1  O   UNL     1      -6.339 -11.363  17.105  0.00  0.00    -0.252 OA
ATOM      3  N   UNL     1      -4.686 -10.741  15.556  0.00  0.00    -0.278 N 
ATOM      4  N   UNL     1      -3.308 -10.583  13.109  0.00  0.00    -0.295 NA
ATOM      5  N   UNL     1      -4.035 -11.375  17.610  0.00  0.00    -0.287 N 
ATOM      7  C   UNL     1      -3.256 -10.516  15.569  0.00  0.00    +0.109 C 
ATOM      8  C   UNL     1      -2.615 -11.095  14.309  0.00  0.00    +0.109 C 
ATOM      9  C   UNL     1      -2.800 -11.161  16.877  0.00  0.00    +0.132 C 
ATOM     10  C   UNL     1      -5.445 -10.411  14.368  0.00  0.00    +0.125 C 
ATOM     11  C   UNL     1      -4.736 -10.958  13.126  0.00  0.00    +0.104 C 
ATOM     12  C   UNL     1      -5.170 -11.179  16.796  0.00  0.00    +0.305 C 
ATOM     14  C   UNL     1      -4.044 -11.875  18.967  0.00  0.00    +0.133 C 
ENDBRANCH  13   4
BRANCH  13  15
ATOM     15  C   UNL     1      -3.393 -10.648  10.653  0.00  0.00    -0.033 A 
ATOM     16  C   UNL     1      -3.471  -9.295  10.328  0.00  0.00    +0.007 A 
ATOM     17  C   UNL     1      -3.994 -11.599   9.827  0.00  0.00    +0.007 A 
ATOM     18  C   UNL     1      -4.149  -8.891   9.178  0.00  0.00    +0.023 A 
ATOM     19  C   UNL     1      -4.673 -11.196   8.677  0.00  0.00    +0.023 A 
ATOM     20  C   UNL     1      -4.749  -9.842   8.353  0.00  0.00    +0.033 A 
BRANCH  20   6
ATOM      2  O   UNL     1      -7.698  -9.514   7.836  0.00  0.00    -0.276 OA
ATOM      6  N   UNL     1      -5.428  -9.439   7.202  0.00  0.00    -0.286 N 
ATOM     21  C   UNL     1      -6.811  -9.304   7.015  0.00  0.00    +0.214 C 
ATOM     22  C   UNL     1      -7.144  -8.841   5.620  0.00  0.00    +0.109 C 
ATOM     23  H   UNL     1      -4.837  -9.217   6.403  0.00  0.00    +0.155 HD
ENDBRANCH  20   6
ENDBRANCH  13  15
TORSDOF 3
ENDMDL
MODEL 7
REMARK VINA RESULT:      -6.1     14.958     18.749
REMARK  Name = 75537109
REMARK  5 active torsions:
REMARK  status: ('A' for Active; 'I' for Inactive)
REMARK    1  A    between atoms: N_4  and  C_13
REMARK    2  A    between atoms: N_5  and  C_14
REMARK    3  A    between atoms: N_6  and  C_20
REMARK    4  A    between atoms: C_13  and  C_15
REMARK    5  A    between atoms: C_21  and  C_22
REMARK                            x       y       z     vdW  Elec       q    Type
REMARK                         _______ _______ _______ _____ _____    ______ ____
ROOT
ATOM     13  C   UNL     1      11.082   7.025   2.993  0.00  0.00    +0.119 C 
ENDROOT
BRANCH  13   4
ATOM      1  O   UNL     1      13.559   3.545  -1.749  0.00  0.00    -0.252 OA
ATOM      3  N   UNL     1      13.060   4.403   0.380  0.00  0.00    -0.278 N 
ATOM      4  N   UNL     1      11.710   5.857   2.374  0.00  0.00    -0.295 NA
ATOM      5  N   UNL     1      15.202   4.407  -0.293  0.00  0.00    -0.287 N 
ATOM      7  C   UNL     1      13.801   4.869   1.533  0.00  0.00    +0.109 C 
ATOM      8  C   UNL     1      13.141   6.116   2.121  0.00  0.00    +0.109 C 
ATOM      9  C   UNL     1      15.214   5.084   0.992  0.00  0.00    +0.132 C 
ATOM     10  C   UNL     1      11.622   4.256   0.474  0.00  0.00    +0.125 C 
ATOM     11  C   UNL     1      11.010   5.500   1.123  0.00  0.00    +0.104 C 
ATOM     12  C   UNL     1      13.897   4.050  -0.687  0.00  0.00    +0.305 C 
ATOM     14  C   UNL     1      16.395   4.275  -1.100  0.00  0.00    +0.133 C 
ENDBRANCH  13   4
BRANCH  13  15
ATOM     15  C   UNL     1      10.597   6.727   4.386  0.00  0.00    -0.033 A 
ATOM     16  C   UNL     1       9.311   6.226   4.586  0.00  0.00    +0.007 A 
ATOM     17  C   UNL     1      11.434   6.953   5.480  0.00  0.00    +0.007 A 
ATOM     18  C   UNL     1       8.861   5.951   5.877  0.00  0.00    +0.023 A 
ATOM     19  C   UNL     1      10.985   6.678   6.771  0.00  0.00    +0.023 A 
ATOM     20  C   UNL     1       9.698   6.177   6.969  0.00  0.00    +0.033 A 
BRANCH  20   6
ATOM      2  O   UNL     1      10.054   3.726   8.683  0.00  0.00    -0.276 OA
ATOM      6  N   UNL     1       9.249   5.902   8.262  0.00  0.00    -0.286 N 
ATOM     21  C   UNL     1       9.443   4.736   9.016  0.00  0.00    +0.214 C 
ATOM     22  C   UNL     1       8.796   4.835  10.374  0.00  0.00    +0.109 C 
ATOM     23  H   UNL     1       8.714   6.647   8.703  0.00  0.00    +0.155 HD
ENDBRANCH  20   6
ENDBRANCH  13  15
TORSDOF 3
ENDMDL
MODEL 8
REMARK VINA RESULT:      -6.0     27.552     31.278
REMARK  Name = 75537109
REMARK  5 active torsions:
REMARK  status: ('A' for Active; 'I' for Inactive)
REMARK    1  A    between atoms: N_4  and  C_13
REMARK    2  A    between atoms: N_5  and  C_14
REMARK    3  A    between atoms: N_6  and  C_20
REMARK    4  A    between atoms: C_13  and  C_15
REMARK    5  A    between atoms: C_21  and  C_22
REMARK                            x       y       z     vdW  Elec       q    Type
REMARK                         _______ _______ _______ _____ _____    ______ ____
ROOT
ATOM     13  C   UNL     1     -10.282  -9.755  17.158  0.00  0.00    +0.119 C 
ENDROOT
BRANCH  13   4
ATOM      1  O   UNL     1      -4.393 -11.754  18.594  0.00  0.00    -0.252 OA
ATOM      3  N   UNL     1      -6.215 -10.416  17.954  0.00  0.00    -0.278 N 
ATOM      4  N   UNL     1      -8.888  -9.624  17.583  0.00  0.00    -0.295 NA
ATOM      5  N   UNL     1      -4.498 -10.630  16.523  0.00  0.00    -0.287 N 
ATOM      7  C   UNL     1      -6.537  -9.518  16.865  0.00  0.00    +0.109 C 
ATOM      8  C   UNL     1      -7.984  -9.720  16.419  0.00  0.00    +0.109 C 
ATOM      9  C   UNL     1      -5.486  -9.845  15.805  0.00  0.00    +0.132 C 
ATOM     10  C   UNL     1      -7.116 -10.510  19.084  0.00  0.00    +0.125 C 
ATOM     11  C   UNL     1      -8.559 -10.651  18.592  0.00  0.00    +0.104 C 
ATOM     12  C   UNL     1      -4.962 -11.023  17.795  0.00  0.00    +0.305 C 
ATOM     14  C   UNL     1      -3.263 -11.059  15.905  0.00  0.00    +0.133 C 
ENDBRANCH  13   4
BRANCH  13  15
ATOM     15  C   UNL     1     -10.734  -8.572  16.346  0.00  0.00    -0.033 A 
ATOM     16  C   UNL     1     -11.207  -8.756  15.047  0.00  0.00    +0.007 A 
ATOM     17  C   UNL     1     -10.679  -7.288  16.891  0.00  0.00    +0.007 A 
ATOM     18  C   UNL     1     -11.624  -7.659  14.294  0.00  0.00    +0.023 A 
ATOM     19  C   UNL     1     -11.096  -6.191  16.138  0.00  0.00    +0.023 A 
ATOM     20  C   UNL     1     -11.569  -6.377  14.840  0.00  0.00    +0.033 A 
BRANCH  20   6
ATOM      2  O   UNL     1     -14.325  -5.548  13.952  0.00  0.00    -0.276 OA
ATOM      6  N   UNL     1     -11.986  -5.279  14.086  0.00  0.00    -0.286 N 
ATOM     21  C   UNL     1     -13.290  -4.940  13.699  0.00  0.00    +0.214 C 
ATOM     22  C   UNL     1     -13.320  -3.670  12.888  0.00  0.00    +0.109 C 
ATOM     23  H   UNL     1     -11.244  -4.651  13.785  0.00  0.00    +0.155 HD
ENDBRANCH  20   6
ENDBRANCH  13  15
TORSDOF 3
ENDMDL
MODEL 9
REMARK VINA RESULT:      -6.0     16.029     19.696
REMARK  Name = 75537109
REMARK  5 active torsions:
REMARK  status: ('A' for Active; 'I' for Inactive)
REMARK    1  A    between atoms: N_4  and  C_13
REMARK    2  A    between atoms: N_5  and  C_14
REMARK    3  A    between atoms: N_6  and  C_20
REMARK    4  A    between atoms: C_13  and  C_15
REMARK    5  A    between atoms: C_21  and  C_22
REMARK                            x       y       z     vdW  Elec       q    Type
REMARK                         _______ _______ _______ _____ _____    ______ ____
ROOT
ATOM     13  C   UNL     1      11.628   6.482   2.483  0.00  0.00    +0.119 C 
ENDROOT
BRANCH  13   4
ATOM      1  O   UNL     1      10.274   4.568  -3.453  0.00  0.00    -0.252 OA
ATOM      3  N   UNL     1      10.709   4.582  -1.145  0.00  0.00    -0.278 N 
ATOM      4  N   UNL     1      11.080   5.602   1.451  0.00  0.00    -0.295 NA
ATOM      5  N   UNL     1      12.015   3.321  -2.465  0.00  0.00    -0.287 N 
ATOM      7  C   UNL     1      11.571   3.869  -0.227  0.00  0.00    +0.109 C 
ATOM      8  C   UNL     1      12.161   4.830   0.805  0.00  0.00    +0.109 C 
ATOM      9  C   UNL     1      12.596   3.199  -1.140  0.00  0.00    +0.132 C 
ATOM     10  C   UNL     1       9.706   5.486  -0.618  0.00  0.00    +0.125 C 
ATOM     11  C   UNL     1      10.326   6.387   0.453  0.00  0.00    +0.104 C 
ATOM     12  C   UNL     1      10.914   4.201  -2.477  0.00  0.00    +0.305 C 
ATOM     14  C   UNL     1      12.624   2.713  -3.628  0.00  0.00    +0.133 C 
ENDBRANCH  13   4
BRANCH  13  15
ATOM     15  C   UNL     1      11.229   6.039   3.866  0.00  0.00    -0.033 A 
ATOM     16  C   UNL     1      10.322   4.992   4.029  0.00  0.00    +0.007 A 
ATOM     17  C   UNL     1      11.764   6.678   4.985  0.00  0.00    +0.007 A 
ATOM     18  C   UNL     1       9.951   4.583   5.309  0.00  0.00    +0.023 A 
ATOM     19  C   UNL     1      11.393   6.270   6.266  0.00  0.00    +0.023 A 
ATOM     20  C   UNL     1      10.487   5.222   6.427  0.00  0.00    +0.033 A 
BRANCH  20   6
ATOM      2  O   UNL     1       8.878   6.640   8.542  0.00  0.00    -0.276 OA
ATOM      6  N   UNL     1      10.115   4.814   7.709  0.00  0.00    -0.286 N 
ATOM     21  C   UNL     1       9.362   5.519   8.658  0.00  0.00    +0.214 C 
ATOM     22  C   UNL     1       9.178   4.726   9.927  0.00  0.00    +0.109 C 
ATOM     23  H   UNL     1      10.436   3.886   7.980  0.00  0.00    +0.155 HD
ENDBRANCH  20   6
ENDBRANCH  13  15
TORSDOF 3
ENDMDL
MODEL 10
REMARK VINA RESULT:      -6.0     30.424     33.311
REMARK  Name = 75537109
REMARK  5 active torsions:
REMARK  status: ('A' for Active; 'I' for Inactive)
REMARK    1  A    between atoms: N_4  and  C_13
REMARK    2  A    between atoms: N_5  and  C_14
REMARK    3  A    between atoms: N_6  and  C_20
REMARK    4  A    between atoms: C_13  and  C_15
REMARK    5  A    between atoms: C_21  and  C_22
REMARK                            x       y       z     vdW  Elec       q    Type
REMARK                         _______ _______ _______ _____ _____    ______ ____
ROOT
ATOM     13  C   UNL     1     -15.298   5.675  32.817  0.00  0.00    +0.119 C 
ENDROOT
BRANCH  13   4
ATOM      1  O   UNL     1     -16.012  -0.019  30.024  0.00  0.00    -0.252 OA
ATOM      3  N   UNL     1     -15.250   2.138  30.559  0.00  0.00    -0.278 N 
ATOM      4  N   UNL     1     -14.895   4.505  32.037  0.00  0.00    -0.295 NA
ATOM      5  N   UNL     1     -16.007   1.763  28.479  0.00  0.00    -0.287 N 
ATOM      7  C   UNL     1     -14.995   3.375  29.853  0.00  0.00    +0.109 C 
ATOM      8  C   UNL     1     -15.472   4.568  30.679  0.00  0.00    +0.109 C 
ATOM      9  C   UNL     1     -15.717   3.186  28.520  0.00  0.00    +0.132 C 
ATOM     10  C   UNL     1     -14.856   2.021  31.948  0.00  0.00    +0.125 C 
ATOM     11  C   UNL     1     -15.302   3.263  32.724  0.00  0.00    +0.104 C 
ATOM     12  C   UNL     1     -15.781   1.145  29.725  0.00  0.00    +0.305 C 
ATOM     14  C   UNL     1     -16.599   1.135  27.318  0.00  0.00    +0.133 C 
ENDBRANCH  13   4
BRANCH  13  15
ATOM     15  C   UNL     1     -14.506   6.899  32.440  0.00  0.00    -0.033 A 
ATOM     16  C   UNL     1     -15.130   7.958  31.782  0.00  0.00    +0.007 A 
ATOM     17  C   UNL     1     -13.148   6.974  32.749  0.00  0.00    +0.007 A 
ATOM     18  C   UNL     1     -14.396   9.091  31.432  0.00  0.00    +0.023 A 
ATOM     19  C   UNL     1     -12.413   8.107  32.399  0.00  0.00    +0.023 A 
ATOM     20  C   UNL     1     -13.038   9.165  31.741  0.00  0.00    +0.033 A 
BRANCH  20   6
ATOM      2  O   UNL     1     -11.516   9.808  29.223  0.00  0.00    -0.276 OA
ATOM      6  N   UNL     1     -12.303  10.299  31.391  0.00  0.00    -0.286 N 
ATOM     21  C   UNL     1     -11.609  10.546  30.198  0.00  0.00    +0.214 C 
ATOM     22  C   UNL     1     -10.940  11.897  30.210  0.00  0.00    +0.109 C 
ATOM     23  H   UNL     1     -12.273  11.032  32.096  0.00  0.00    +0.155 HD
ENDBRANCH  20   6
ENDBRANCH  13  15
TORSDOF 3
ENDMDL
