MODEL 1
REMARK VINA RESULT:      -7.8      0.000      0.000
REMARK  Name = 45784259
REMARK  4 active torsions:
REMARK  status: ('A' for Active; 'I' for Inactive)
REMARK    1  A    between atoms: N_5  and  C_13
REMARK    2  A    between atoms: C_8  and  C_12
REMARK    3  A    between atoms: C_13  and  C_14
REMARK    4  A    between atoms: C_21  and  C_25
REMARK                            x       y       z     vdW  Elec       q    Type
REMARK                         _______ _______ _______ _____ _____    ______ ____
ROOT
ATOM      6  N   UNL     1      15.601   8.508  20.744  0.00  0.00    -0.342 N 
ATOM      7  N   UNL     1      14.694   7.403  19.043  0.00  0.00    -0.232 NA
ATOM     12  C   UNL     1      14.516   8.361  19.926  0.00  0.00    +0.113 A 
ATOM     15  C   UNL     1      16.541   7.585  20.365  0.00  0.00    +0.067 A 
ATOM     16  C   UNL     1      15.951   6.908  19.302  0.00  0.00    +0.089 A 
ATOM     17  C   UNL     1      17.818   7.292  20.845  0.00  0.00    +0.040 A 
ATOM     18  C   UNL     1      16.663   5.875  18.668  0.00  0.00    +0.030 A 
ATOM     21  C   UNL     1      18.511   6.262  20.204  0.00  0.00    +0.057 A 
ATOM     22  C   UNL     1      17.946   5.564  19.134  0.00  0.00    +0.014 A 
ATOM     27  H   UNL     1      15.697   9.178  21.497  0.00  0.00    +0.167 HD
ENDROOT
BRANCH  12   8
ATOM      5  N   UNL     1      11.543   9.753  21.551  0.00  0.00    -0.297 NA
ATOM      8  C   UNL     1      13.291   9.233  20.079  0.00  0.00    +0.070 C 
ATOM      9  C   UNL     1      11.983   8.607  19.565  0.00  0.00    +0.028 C 
ATOM     10  C   UNL     1      12.999   9.602  21.539  0.00  0.00    +0.096 C 
ATOM     11  C   UNL     1      11.040   8.629  20.761  0.00  0.00    +0.085 C 
BRANCH   5  13
ATOM     13  C   UNL     1      10.997   9.770  22.901  0.00  0.00    +0.119 C 
BRANCH  13  14
ATOM      1 CL   UNL     1      10.723  15.347  25.139  0.00  0.00    -0.084 Cl
ATOM     14  C   UNL     1      10.927  11.166  23.460  0.00  0.00    -0.033 A 
ATOM     19  C   UNL     1      10.982  11.367  24.839  0.00  0.00    +0.006 A 
ATOM     20  C   UNL     1      10.809  12.257  22.600  0.00  0.00    +0.006 A 
ATOM     23  C   UNL     1      10.918  12.661  25.359  0.00  0.00    +0.020 A 
ATOM     24  C   UNL     1      10.745  13.551  23.119  0.00  0.00    +0.020 A 
ATOM     26  C   UNL     1      10.799  13.752  24.499  0.00  0.00    +0.041 A 
ENDBRANCH  13  14
ENDBRANCH   5  13
ENDBRANCH  12   8
BRANCH  21  25
ATOM      2  F   UNL     1      20.834   6.776  20.233  0.00  0.00    -0.166 F 
ATOM      3  F   UNL     1      20.006   5.875  22.031  0.00  0.00    -0.166 F 
ATOM      4  F   UNL     1      20.296   4.669  20.252  0.00  0.00    -0.166 F 
ATOM     25  C   UNL     1      19.884   5.901  20.672  0.00  0.00    +0.417 C 
ENDBRANCH  21  25
TORSDOF 4
ENDMDL
MODEL 2
REMARK VINA RESULT:      -7.5     17.105     20.210
REMARK  Name = 45784259
REMARK  4 active torsions:
REMARK  status: ('A' for Active; 'I' for Inactive)
REMARK    1  A    between atoms: N_5  and  C_13
REMARK    2  A    between atoms: C_8  and  C_12
REMARK    3  A    between atoms: C_13  and  C_14
REMARK    4  A    between atoms: C_21  and  C_25
REMARK                            x       y       z     vdW  Elec       q    Type
REMARK                         _______ _______ _______ _____ _____    ______ ____
ROOT
ATOM      6  N   UNL     1      10.260   4.495   5.119  0.00  0.00    -0.342 N 
ATOM      7  N   UNL     1       9.714   6.609   4.701  0.00  0.00    -0.232 NA
ATOM     12  C   UNL     1      10.147   5.483   4.180  0.00  0.00    +0.113 A 
ATOM     15  C   UNL     1       9.875   5.019   6.326  0.00  0.00    +0.067 A 
ATOM     16  C   UNL     1       9.538   6.339   6.038  0.00  0.00    +0.089 A 
ATOM     17  C   UNL     1       9.793   4.469   7.605  0.00  0.00    +0.040 A 
ATOM     18  C   UNL     1       9.092   7.174   7.077  0.00  0.00    +0.030 A 
ATOM     21  C   UNL     1       9.347   5.313   8.627  0.00  0.00    +0.057 A 
ATOM     22  C   UNL     1       9.003   6.642   8.370  0.00  0.00    +0.014 A 
ATOM     27  H   UNL     1      10.572   3.547   4.956  0.00  0.00    +0.167 HD
ENDROOT
BRANCH  12   8
ATOM      5  N   UNL     1      12.109   4.243   1.345  0.00  0.00    -0.297 NA
ATOM      8  C   UNL     1      10.499   5.233   2.731  0.00  0.00    +0.070 C 
ATOM      9  C   UNL     1      11.358   6.329   2.077  0.00  0.00    +0.028 C 
ATOM     10  C   UNL     1      11.294   3.939   2.523  0.00  0.00    +0.096 C 
ATOM     11  C   UNL     1      12.596   5.605   1.564  0.00  0.00    +0.085 C 
BRANCH   5  13
ATOM     13  C   UNL     1      13.194   3.290   1.158  0.00  0.00    +0.119 C 
BRANCH  13  14
ATOM      1 CL   UNL     1      17.041   5.076  -3.107  0.00  0.00    -0.084 Cl
ATOM     14  C   UNL     1      14.155   3.738   0.090  0.00  0.00    -0.033 A 
ATOM     19  C   UNL     1      15.490   3.985   0.414  0.00  0.00    +0.006 A 
ATOM     20  C   UNL     1      13.713   3.904  -1.222  0.00  0.00    +0.006 A 
ATOM     23  C   UNL     1      16.382   4.401  -0.575  0.00  0.00    +0.020 A 
ATOM     24  C   UNL     1      14.606   4.319  -2.211  0.00  0.00    +0.020 A 
ATOM     26  C   UNL     1      15.940   4.567  -1.887  0.00  0.00    +0.041 A 
ENDBRANCH  13  14
ENDBRANCH   5  13
ENDBRANCH  12   8
BRANCH  21  25
ATOM      2  F   UNL     1       9.244   3.419  10.062  0.00  0.00    -0.166 F 
ATOM      3  F   UNL     1      10.257   5.182  10.835  0.00  0.00    -0.166 F 
ATOM      4  F   UNL     1       8.096   5.166  10.660  0.00  0.00    -0.166 F 
ATOM     25  C   UNL     1       9.239   4.783  10.019  0.00  0.00    +0.417 C 
ENDBRANCH  21  25
TORSDOF 4
ENDMDL
MODEL 3
REMARK VINA RESULT:      -7.5     14.740     17.194
REMARK  Name = 45784259
REMARK  4 active torsions:
REMARK  status: ('A' for Active; 'I' for Inactive)
REMARK    1  A    between atoms: N_5  and  C_13
REMARK    2  A    between atoms: C_8  and  C_12
REMARK    3  A    between atoms: C_13  and  C_14
REMARK    4  A    between atoms: C_21  and  C_25
REMARK                            x       y       z     vdW  Elec       q    Type
REMARK                         _______ _______ _______ _____ _____    ______ ____
ROOT
ATOM      6  N   UNL     1      12.883   6.550   6.718  0.00  0.00    -0.342 N 
ATOM      7  N   UNL     1      11.656   8.241   5.958  0.00  0.00    -0.232 NA
ATOM     12  C   UNL     1      12.829   7.649   5.906  0.00  0.00    +0.113 A 
ATOM     15  C   UNL     1      11.664   6.425   7.335  0.00  0.00    +0.067 A 
ATOM     16  C   UNL     1      10.917   7.491   6.843  0.00  0.00    +0.089 A 
ATOM     17  C   UNL     1      11.166   5.499   8.252  0.00  0.00    +0.040 A 
ATOM     18  C   UNL     1       9.592   7.659   7.282  0.00  0.00    +0.030 A 
ATOM     21  C   UNL     1       9.847   5.680   8.677  0.00  0.00    +0.057 A 
ATOM     22  C   UNL     1       9.072   6.741   8.203  0.00  0.00    +0.014 A 
ATOM     27  H   UNL     1      13.677   5.937   6.844  0.00  0.00    +0.167 HD
ENDROOT
BRANCH  12   8
ATOM      5  N   UNL     1      16.119   9.104   5.216  0.00  0.00    -0.297 NA
ATOM      8  C   UNL     1      14.019   8.072   5.077  0.00  0.00    +0.070 C 
ATOM      9  C   UNL     1      13.931   9.496   4.500  0.00  0.00    +0.028 C 
ATOM     10  C   UNL     1      15.335   8.052   5.865  0.00  0.00    +0.096 C 
ATOM     11  C   UNL     1      15.178  10.206   5.013  0.00  0.00    +0.085 C 
BRANCH   5  13
ATOM     13  C   UNL     1      17.276   9.502   6.006  0.00  0.00    +0.119 C 
BRANCH  13  14
ATOM      1 CL   UNL     1      22.224   6.471   4.421  0.00  0.00    -0.084 Cl
ATOM     14  C   UNL     1      18.514   8.745   5.608  0.00  0.00    -0.033 A 
ATOM     19  C   UNL     1      19.514   8.500   6.550  0.00  0.00    +0.006 A 
ATOM     20  C   UNL     1      18.661   8.286   4.299  0.00  0.00    +0.006 A 
ATOM     23  C   UNL     1      20.662   7.798   6.182  0.00  0.00    +0.020 A 
ATOM     24  C   UNL     1      19.809   7.583   3.932  0.00  0.00    +0.020 A 
ATOM     26  C   UNL     1      20.809   7.340   4.874  0.00  0.00    +0.041 A 
ENDBRANCH  13  14
ENDBRANCH   5  13
ENDBRANCH  12   8
BRANCH  21  25
ATOM      2  F   UNL     1      10.098   4.452  10.699  0.00  0.00    -0.166 F 
ATOM      3  F   UNL     1       8.099   5.167  10.227  0.00  0.00    -0.166 F 
ATOM      4  F   UNL     1       8.945   3.508   9.115  0.00  0.00    -0.166 F 
ATOM     25  C   UNL     1       9.257   4.721   9.659  0.00  0.00    +0.417 C 
ENDBRANCH  21  25
TORSDOF 4
ENDMDL
MODEL 4
REMARK VINA RESULT:      -7.3     17.564     20.608
REMARK  Name = 45784259
REMARK  4 active torsions:
REMARK  status: ('A' for Active; 'I' for Inactive)
REMARK    1  A    between atoms: N_5  and  C_13
REMARK    2  A    between atoms: C_8  and  C_12
REMARK    3  A    between atoms: C_13  and  C_14
REMARK    4  A    between atoms: C_21  and  C_25
REMARK                            x       y       z     vdW  Elec       q    Type
REMARK                         _______ _______ _______ _____ _____    ______ ____
ROOT
ATOM      6  N   UNL     1      11.228   5.425   4.969  0.00  0.00    -0.342 N 
ATOM      7  N   UNL     1      10.355   7.442   4.642  0.00  0.00    -0.232 NA
ATOM     12  C   UNL     1      11.093   6.488   4.120  0.00  0.00    +0.113 A 
ATOM     15  C   UNL     1      10.530   5.711   6.114  0.00  0.00    +0.067 A 
ATOM     16  C   UNL     1       9.994   6.975   5.884  0.00  0.00    +0.089 A 
ATOM     17  C   UNL     1      10.326   4.995   7.294  0.00  0.00    +0.040 A 
ATOM     18  C   UNL     1       9.206   7.576   6.881  0.00  0.00    +0.030 A 
ATOM     21  C   UNL     1       9.540   5.608   8.274  0.00  0.00    +0.057 A 
ATOM     22  C   UNL     1       8.989   6.876   8.075  0.00  0.00    +0.014 A 
ATOM     27  H   UNL     1      11.748   4.576   4.788  0.00  0.00    +0.167 HD
ENDROOT
BRANCH  12   8
ATOM      5  N   UNL     1      13.035   5.185   1.300  0.00  0.00    -0.297 NA
ATOM      8  C   UNL     1      11.748   6.494   2.758  0.00  0.00    +0.070 C 
ATOM      9  C   UNL     1      13.194   7.018   2.738  0.00  0.00    +0.028 C 
ATOM     10  C   UNL     1      11.831   5.098   2.128  0.00  0.00    +0.096 C 
ATOM     11  C   UNL     1      14.014   5.887   2.130  0.00  0.00    +0.085 C 
BRANCH   5  13
ATOM     13  C   UNL     1      13.510   3.878   0.869  0.00  0.00    +0.119 C 
BRANCH  13  14
ATOM      1 CL   UNL     1      12.712   3.037  -5.034  0.00  0.00    -0.084 Cl
ATOM     14  C   UNL     1      13.309   3.667  -0.608  0.00  0.00    -0.033 A 
ATOM     19  C   UNL     1      14.068   4.395  -1.525  0.00  0.00    +0.006 A 
ATOM     20  C   UNL     1      12.365   2.745  -1.059  0.00  0.00    +0.006 A 
ATOM     23  C   UNL     1      13.883   4.200  -2.894  0.00  0.00    +0.020 A 
ATOM     24  C   UNL     1      12.179   2.551  -2.428  0.00  0.00    +0.020 A 
ATOM     26  C   UNL     1      12.939   3.279  -3.345  0.00  0.00    +0.041 A 
ENDBRANCH  13  14
ENDBRANCH   5  13
ENDBRANCH  12   8
BRANCH  21  25
ATOM      2  F   UNL     1      10.348   4.958  10.415  0.00  0.00    -0.166 F 
ATOM      3  F   UNL     1       8.221   5.385  10.258  0.00  0.00    -0.166 F 
ATOM      4  F   UNL     1       9.025   3.562   9.401  0.00  0.00    -0.166 F 
ATOM     25  C   UNL     1       9.286   4.892   9.561  0.00  0.00    +0.417 C 
ENDBRANCH  21  25
TORSDOF 4
ENDMDL
MODEL 5
REMARK VINA RESULT:      -7.3     27.629     29.827
REMARK  Name = 45784259
REMARK  4 active torsions:
REMARK  status: ('A' for Active; 'I' for Inactive)
REMARK    1  A    between atoms: N_5  and  C_13
REMARK    2  A    between atoms: C_8  and  C_12
REMARK    3  A    between atoms: C_13  and  C_14
REMARK    4  A    between atoms: C_21  and  C_25
REMARK                            x       y       z     vdW  Elec       q    Type
REMARK                         _______ _______ _______ _____ _____    ______ ____
ROOT
ATOM      6  N   UNL     1      -5.581  -9.939  16.398  0.00  0.00    -0.342 N 
ATOM      7  N   UNL     1      -4.304 -11.206  17.703  0.00  0.00    -0.232 NA
ATOM     12  C   UNL     1      -4.336 -10.456  16.624  0.00  0.00    +0.113 A 
ATOM     15  C   UNL     1      -6.408 -10.385  17.397  0.00  0.00    +0.067 A 
ATOM     16  C   UNL     1      -5.586 -11.173  18.199  0.00  0.00    +0.089 A 
ATOM     17  C   UNL     1      -7.761 -10.173  17.662  0.00  0.00    +0.040 A 
ATOM     18  C   UNL     1      -6.131 -11.794  19.336  0.00  0.00    +0.030 A 
ATOM     21  C   UNL     1      -8.286 -10.798  18.796  0.00  0.00    +0.057 A 
ATOM     22  C   UNL     1      -7.489 -11.596  19.620  0.00  0.00    +0.014 A 
ATOM     27  H   UNL     1      -5.849  -9.336  15.631  0.00  0.00    +0.167 HD
ENDROOT
BRANCH  12   8
ATOM      5  N   UNL     1      -2.008 -10.991  13.846  0.00  0.00    -0.297 NA
ATOM      8  C   UNL     1      -3.180 -10.157  15.696  0.00  0.00    +0.070 C 
ATOM      9  C   UNL     1      -1.822 -10.713  16.156  0.00  0.00    +0.028 C 
ATOM     10  C   UNL     1      -3.379 -10.732  14.288  0.00  0.00    +0.096 C 
ATOM     11  C   UNL     1      -1.343 -11.588  15.005  0.00  0.00    +0.085 C 
BRANCH   5  13
ATOM     13  C   UNL     1      -1.956 -11.853  12.673  0.00  0.00    +0.119 C 
BRANCH  13  14
ATOM      1 CL   UNL     1      -4.974  -9.502   8.030  0.00  0.00    -0.084 Cl
ATOM     14  C   UNL     1      -2.710 -11.264  11.511  0.00  0.00    -0.033 A 
ATOM     19  C   UNL     1      -3.592 -12.059  10.778  0.00  0.00    +0.006 A 
ATOM     20  C   UNL     1      -2.528  -9.924  11.168  0.00  0.00    +0.006 A 
ATOM     23  C   UNL     1      -4.291 -11.514   9.701  0.00  0.00    +0.020 A 
ATOM     24  C   UNL     1      -3.227  -9.380  10.090  0.00  0.00    +0.020 A 
ATOM     26  C   UNL     1      -4.109 -10.175   9.357  0.00  0.00    +0.041 A 
ENDBRANCH  13  14
ENDBRANCH   5  13
ENDBRANCH  12   8
BRANCH  21  25
ATOM      2  F   UNL     1      -9.960 -10.624  20.477  0.00  0.00    -0.166 F 
ATOM      3  F   UNL     1     -10.245  -9.429  18.682  0.00  0.00    -0.166 F 
ATOM      4  F   UNL     1     -10.541 -11.576  18.610  0.00  0.00    -0.166 F 
ATOM     25  C   UNL     1      -9.730 -10.610  19.133  0.00  0.00    +0.417 C 
ENDBRANCH  21  25
TORSDOF 4
ENDMDL
MODEL 6
REMARK VINA RESULT:      -7.2     28.172     30.834
REMARK  Name = 45784259
REMARK  4 active torsions:
REMARK  status: ('A' for Active; 'I' for Inactive)
REMARK    1  A    between atoms: N_5  and  C_13
REMARK    2  A    between atoms: C_8  and  C_12
REMARK    3  A    between atoms: C_13  and  C_14
REMARK    4  A    between atoms: C_21  and  C_25
REMARK                            x       y       z     vdW  Elec       q    Type
REMARK                         _______ _______ _______ _____ _____    ______ ____
ROOT
ATOM      6  N   UNL     1     -15.763   4.159  25.264  0.00  0.00    -0.342 N 
ATOM      7  N   UNL     1     -16.505   2.337  24.230  0.00  0.00    -0.232 NA
ATOM     12  C   UNL     1     -16.079   3.570  24.071  0.00  0.00    +0.113 A 
ATOM     15  C   UNL     1     -16.001   3.246  26.258  0.00  0.00    +0.067 A 
ATOM     16  C   UNL     1     -16.463   2.117  25.587  0.00  0.00    +0.089 A 
ATOM     17  C   UNL     1     -15.856   3.307  27.645  0.00  0.00    +0.040 A 
ATOM     18  C   UNL     1     -16.805   0.973  26.328  0.00  0.00    +0.030 A 
ATOM     21  C   UNL     1     -16.201   2.160  28.365  0.00  0.00    +0.057 A 
ATOM     22  C   UNL     1     -16.669   1.012  27.721  0.00  0.00    +0.014 A 
ATOM     27  H   UNL     1     -15.416   5.101  25.393  0.00  0.00    +0.167 HD
ENDROOT
BRANCH  12   8
ATOM      5  N   UNL     1     -15.145   6.318  21.835  0.00  0.00    -0.297 NA
ATOM      8  C   UNL     1     -15.931   4.314  22.764  0.00  0.00    +0.070 C 
ATOM      9  C   UNL     1     -17.124   5.211  22.391  0.00  0.00    +0.028 C 
ATOM     10  C   UNL     1     -14.718   5.252  22.744  0.00  0.00    +0.096 C 
ATOM     11  C   UNL     1     -16.530   6.602  22.211  0.00  0.00    +0.085 C 
BRANCH   5  13
ATOM     13  C   UNL     1     -14.294   7.496  21.921  0.00  0.00    +0.119 C 
BRANCH  13  14
ATOM      1 CL   UNL     1     -10.581   7.932  17.209  0.00  0.00    -0.084 Cl
ATOM     14  C   UNL     1     -13.365   7.604  20.742  0.00  0.00    -0.033 A 
ATOM     19  C   UNL     1     -13.880   7.841  19.468  0.00  0.00    +0.006 A 
ATOM     20  C   UNL     1     -11.989   7.469  20.924  0.00  0.00    +0.006 A 
ATOM     23  C   UNL     1     -13.019   7.941  18.374  0.00  0.00    +0.020 A 
ATOM     24  C   UNL     1     -11.127   7.569  19.831  0.00  0.00    +0.020 A 
ATOM     26  C   UNL     1     -11.643   7.805  18.556  0.00  0.00    +0.041 A 
ENDBRANCH  13  14
ENDBRANCH   5  13
ENDBRANCH  12   8
BRANCH  21  25
ATOM      2  F   UNL     1     -14.877   2.680  30.271  0.00  0.00    -0.166 F 
ATOM      3  F   UNL     1     -17.031   2.896  30.485  0.00  0.00    -0.166 F 
ATOM      4  F   UNL     1     -16.144   0.919  30.410  0.00  0.00    -0.166 F 
ATOM     25  C   UNL     1     -16.068   2.164  29.854  0.00  0.00    +0.417 C 
ENDBRANCH  21  25
TORSDOF 4
ENDMDL
MODEL 7
REMARK VINA RESULT:      -7.2      6.141     10.866
REMARK  Name = 45784259
REMARK  4 active torsions:
REMARK  status: ('A' for Active; 'I' for Inactive)
REMARK    1  A    between atoms: N_5  and  C_13
REMARK    2  A    between atoms: C_8  and  C_12
REMARK    3  A    between atoms: C_13  and  C_14
REMARK    4  A    between atoms: C_21  and  C_25
REMARK                            x       y       z     vdW  Elec       q    Type
REMARK                         _______ _______ _______ _____ _____    ______ ____
ROOT
ATOM      6  N   UNL     1      17.085   7.109  21.623  0.00  0.00    -0.342 N 
ATOM      7  N   UNL     1      17.260   6.665  19.452  0.00  0.00    -0.232 NA
ATOM     12  C   UNL     1      17.921   6.837  20.575  0.00  0.00    +0.113 A 
ATOM     15  C   UNL     1      15.800   7.113  21.144  0.00  0.00    +0.067 A 
ATOM     16  C   UNL     1      15.937   6.832  19.787  0.00  0.00    +0.089 A 
ATOM     17  C   UNL     1      14.568   7.329  21.761  0.00  0.00    +0.040 A 
ATOM     18  C   UNL     1      14.786   6.760  18.984  0.00  0.00    +0.030 A 
ATOM     21  C   UNL     1      13.434   7.254  20.948  0.00  0.00    +0.057 A 
ATOM     22  C   UNL     1      13.538   6.975  19.583  0.00  0.00    +0.014 A 
ATOM     27  H   UNL     1      17.362   7.279  22.581  0.00  0.00    +0.167 HD
ENDROOT
BRANCH  12   8
ATOM      5  N   UNL     1      21.150   5.308  21.385  0.00  0.00    -0.297 NA
ATOM      8  C   UNL     1      19.418   6.761  20.764  0.00  0.00    +0.070 C 
ATOM      9  C   UNL     1      19.911   7.123  22.176  0.00  0.00    +0.028 C 
ATOM     10  C   UNL     1      19.984   5.360  20.501  0.00  0.00    +0.096 C 
ATOM     11  C   UNL     1      20.698   5.904  22.642  0.00  0.00    +0.085 C 
BRANCH   5  13
ATOM     13  C   UNL     1      21.653   3.953  21.564  0.00  0.00    +0.119 C 
BRANCH  13  14
ATOM      1 CL   UNL     1      27.198   3.312  19.323  0.00  0.00    -0.084 Cl
ATOM     14  C   UNL     1      23.040   3.792  21.002  0.00  0.00    -0.033 A 
ATOM     19  C   UNL     1      23.724   4.901  20.504  0.00  0.00    +0.006 A 
ATOM     20  C   UNL     1      23.642   2.534  20.981  0.00  0.00    +0.006 A 
ATOM     23  C   UNL     1      25.010   4.752  19.984  0.00  0.00    +0.020 A 
ATOM     24  C   UNL     1      24.928   2.385  20.461  0.00  0.00    +0.020 A 
ATOM     26  C   UNL     1      25.612   3.495  19.962  0.00  0.00    +0.041 A 
ENDBRANCH  13  14
ENDBRANCH   5  13
ENDBRANCH  12   8
BRANCH  21  25
ATOM      2  F   UNL     1      11.186   7.970  20.651  0.00  0.00    -0.166 F 
ATOM      3  F   UNL     1      11.519   6.342  22.055  0.00  0.00    -0.166 F 
ATOM      4  F   UNL     1      12.093   8.365  22.588  0.00  0.00    -0.166 F 
ATOM     25  C   UNL     1      12.085   7.477  21.550  0.00  0.00    +0.417 C 
ENDBRANCH  21  25
TORSDOF 4
ENDMDL
MODEL 8
REMARK VINA RESULT:      -6.9      3.958      5.086
REMARK  Name = 45784259
REMARK  4 active torsions:
REMARK  status: ('A' for Active; 'I' for Inactive)
REMARK    1  A    between atoms: N_5  and  C_13
REMARK    2  A    between atoms: C_8  and  C_12
REMARK    3  A    between atoms: C_13  and  C_14
REMARK    4  A    between atoms: C_21  and  C_25
REMARK                            x       y       z     vdW  Elec       q    Type
REMARK                         _______ _______ _______ _____ _____    ______ ____
ROOT
ATOM      6  N   UNL     1      16.059   6.006  19.611  0.00  0.00    -0.342 N 
ATOM      7  N   UNL     1      15.612   7.791  20.856  0.00  0.00    -0.232 NA
ATOM     12  C   UNL     1      15.106   6.880  20.055  0.00  0.00    +0.113 A 
ATOM     15  C   UNL     1      17.258   6.377  20.162  0.00  0.00    +0.067 A 
ATOM     16  C   UNL     1      16.952   7.493  20.935  0.00  0.00    +0.089 A 
ATOM     17  C   UNL     1      18.545   5.848  20.055  0.00  0.00    +0.040 A 
ATOM     18  C   UNL     1      17.979   8.133  21.650  0.00  0.00    +0.030 A 
ATOM     21  C   UNL     1      19.554   6.497  20.773  0.00  0.00    +0.057 A 
ATOM     22  C   UNL     1      19.279   7.620  21.557  0.00  0.00    +0.014 A 
ATOM     27  H   UNL     1      15.909   5.223  18.987  0.00  0.00    +0.167 HD
ENDROOT
BRANCH  12   8
ATOM      5  N   UNL     1      11.968   7.833  18.422  0.00  0.00    -0.297 NA
ATOM      8  C   UNL     1      13.662   6.752  19.630  0.00  0.00    +0.070 C 
ATOM      9  C   UNL     1      12.643   7.363  20.607  0.00  0.00    +0.028 C 
ATOM     10  C   UNL     1      13.371   7.434  18.287  0.00  0.00    +0.096 C 
ATOM     11  C   UNL     1      11.857   8.370  19.779  0.00  0.00    +0.085 C 
BRANCH   5  13
ATOM     13  C   UNL     1      11.564   8.798  17.409  0.00  0.00    +0.119 C 
BRANCH  13  14
ATOM      1 CL   UNL     1      16.155  12.281  15.683  0.00  0.00    -0.084 Cl
ATOM     14  C   UNL     1      12.712   9.670  16.976  0.00  0.00    -0.033 A 
ATOM     19  C   UNL     1      13.207  10.649  17.838  0.00  0.00    +0.006 A 
ATOM     20  C   UNL     1      13.282   9.498  15.715  0.00  0.00    +0.006 A 
ATOM     23  C   UNL     1      14.272  11.458  17.437  0.00  0.00    +0.020 A 
ATOM     24  C   UNL     1      14.346  10.307  15.314  0.00  0.00    +0.020 A 
ATOM     26  C   UNL     1      14.840  11.287  16.176  0.00  0.00    +0.041 A 
ENDBRANCH  13  14
ENDBRANCH   5  13
ENDBRANCH  12   8
BRANCH  21  25
ATOM      2  F   UNL     1      21.794   6.833  20.047  0.00  0.00    -0.166 F 
ATOM      3  F   UNL     1      21.520   5.763  21.921  0.00  0.00    -0.166 F 
ATOM      4  F   UNL     1      21.058   4.787  20.040  0.00  0.00    -0.166 F 
ATOM     25  C   UNL     1      20.953   5.978  20.698  0.00  0.00    +0.417 C 
ENDBRANCH  21  25
TORSDOF 4
ENDMDL
MODEL 9
REMARK VINA RESULT:      -6.7     27.628     29.580
REMARK  Name = 45784259
REMARK  4 active torsions:
REMARK  status: ('A' for Active; 'I' for Inactive)
REMARK    1  A    between atoms: N_5  and  C_13
REMARK    2  A    between atoms: C_8  and  C_12
REMARK    3  A    between atoms: C_13  and  C_14
REMARK    4  A    between atoms: C_21  and  C_25
REMARK                            x       y       z     vdW  Elec       q    Type
REMARK                         _______ _______ _______ _____ _____    ______ ____
ROOT
ATOM      6  N   UNL     1      -7.033  -9.733  15.425  0.00  0.00    -0.342 N 
ATOM      7  N   UNL     1      -7.323 -10.186  17.581  0.00  0.00    -0.232 NA
ATOM     12  C   UNL     1      -7.902  -9.764  16.479  0.00  0.00    +0.113 A 
ATOM     15  C   UNL     1      -5.811 -10.164  15.876  0.00  0.00    +0.067 A 
ATOM     16  C   UNL     1      -6.019 -10.440  17.224  0.00  0.00    +0.089 A 
ATOM     17  C   UNL     1      -4.581 -10.332  15.241  0.00  0.00    +0.040 A 
ATOM     18  C   UNL     1      -4.947 -10.913  18.000  0.00  0.00    +0.030 A 
ATOM     21  C   UNL     1      -3.525 -10.802  16.027  0.00  0.00    +0.057 A 
ATOM     22  C   UNL     1      -3.701 -11.087  17.383  0.00  0.00    +0.014 A 
ATOM     27  H   UNL     1      -7.248  -9.445  14.479  0.00  0.00    +0.167 HD
ENDROOT
BRANCH  12   8
ATOM      5  N   UNL     1     -10.726  -7.470  16.049  0.00  0.00    -0.297 NA
ATOM      8  C   UNL     1      -9.346  -9.345  16.320  0.00  0.00    +0.070 C 
ATOM      9  C   UNL     1     -10.084  -9.056  17.638  0.00  0.00    +0.028 C 
ATOM     10  C   UNL     1      -9.509  -8.064  15.493  0.00  0.00    +0.096 C 
ATOM     11  C   UNL     1     -10.595  -7.628  17.498  0.00  0.00    +0.085 C 
BRANCH   5  13
ATOM     13  C   UNL     1     -10.896  -6.078  15.656  0.00  0.00    +0.119 C 
BRANCH  13  14
ATOM      1 CL   UNL     1     -15.771  -5.297  12.220  0.00  0.00    -0.084 Cl
ATOM     14  C   UNL     1     -12.115  -5.883  14.796  0.00  0.00    -0.033 A 
ATOM     19  C   UNL     1     -13.320  -6.491  15.146  0.00  0.00    +0.006 A 
ATOM     20  C   UNL     1     -12.040  -5.093  13.648  0.00  0.00    +0.006 A 
ATOM     23  C   UNL     1     -14.451  -6.311  14.349  0.00  0.00    +0.020 A 
ATOM     24  C   UNL     1     -13.171  -4.913  12.851  0.00  0.00    +0.020 A 
ATOM     26  C   UNL     1     -14.376  -5.522  13.202  0.00  0.00    +0.041 A 
ENDBRANCH  13  14
ENDBRANCH   5  13
ENDBRANCH  12   8
BRANCH  21  25
ATOM      2  F   UNL     1      -2.037 -12.242  14.857  0.00  0.00    -0.166 F 
ATOM      3  F   UNL     1      -1.911 -10.119  14.398  0.00  0.00    -0.166 F 
ATOM      4  F   UNL     1      -1.147 -10.866  16.286  0.00  0.00    -0.166 F 
ATOM     25  C   UNL     1      -2.181 -11.001  15.404  0.00  0.00    +0.417 C 
ENDBRANCH  21  25
TORSDOF 4
ENDMDL
MODEL 10
REMARK VINA RESULT:      -6.7     28.111     29.945
REMARK  Name = 45784259
REMARK  4 active torsions:
REMARK  status: ('A' for Active; 'I' for Inactive)
REMARK    1  A    between atoms: N_5  and  C_13
REMARK    2  A    between atoms: C_8  and  C_12
REMARK    3  A    between atoms: C_13  and  C_14
REMARK    4  A    between atoms: C_21  and  C_25
REMARK                            x       y       z     vdW  Elec       q    Type
REMARK                         _______ _______ _______ _____ _____    ______ ____
ROOT
ATOM      6  N   UNL     1      -4.939 -11.500  16.170  0.00  0.00    -0.342 N 
ATOM      7  N   UNL     1      -3.203 -11.050  17.482  0.00  0.00    -0.232 NA
ATOM     12  C   UNL     1      -4.454 -11.451  17.447  0.00  0.00    +0.113 A 
ATOM     15  C   UNL     1      -3.935 -11.104  15.324  0.00  0.00    +0.067 A 
ATOM     16  C   UNL     1      -2.862 -10.829  16.168  0.00  0.00    +0.089 A 
ATOM     17  C   UNL     1      -3.873 -10.968  13.937  0.00  0.00    +0.040 A 
ATOM     18  C   UNL     1      -1.648 -10.391  15.611  0.00  0.00    +0.030 A 
ATOM     21  C   UNL     1      -2.659 -10.531  13.401  0.00  0.00    +0.057 A 
ATOM     22  C   UNL     1      -1.565 -10.246  14.220  0.00  0.00    +0.014 A 
ATOM     27  H   UNL     1      -5.872 -11.778  15.894  0.00  0.00    +0.167 HD
ENDROOT
BRANCH  12   8
ATOM      5  N   UNL     1      -7.501 -12.426  19.233  0.00  0.00    -0.297 NA
ATOM      8  C   UNL     1      -5.315 -11.828  18.630  0.00  0.00    +0.070 C 
ATOM      9  C   UNL     1      -5.996 -10.643  19.338  0.00  0.00    +0.028 C 
ATOM     10  C   UNL     1      -6.466 -12.771  18.256  0.00  0.00    +0.096 C 
ATOM     11  C   UNL     1      -7.485 -10.964  19.300  0.00  0.00    +0.085 C 
BRANCH   5  13
ATOM     13  C   UNL     1      -8.809 -12.950  18.865  0.00  0.00    +0.119 C 
BRANCH  13  14
ATOM      1 CL   UNL     1     -11.894 -14.834  23.673  0.00  0.00    -0.084 Cl
ATOM     14  C   UNL     1      -9.582 -13.421  20.068  0.00  0.00    -0.033 A 
ATOM     19  C   UNL     1      -9.031 -14.381  20.918  0.00  0.00    +0.006 A 
ATOM     20  C   UNL     1     -10.847 -12.898  20.333  0.00  0.00    +0.006 A 
ATOM     23  C   UNL     1      -9.747 -14.819  22.032  0.00  0.00    +0.020 A 
ATOM     24  C   UNL     1     -11.563 -13.336  21.448  0.00  0.00    +0.020 A 
ATOM     26  C   UNL     1     -11.012 -14.297  22.297  0.00  0.00    +0.041 A 
ENDBRANCH  13  14
ENDBRANCH   5  13
ENDBRANCH  12   8
BRANCH  21  25
ATOM      2  F   UNL     1      -1.350  -9.785  11.560  0.00  0.00    -0.166 F 
ATOM      3  F   UNL     1      -2.590 -11.542  11.233  0.00  0.00    -0.166 F 
ATOM      4  F   UNL     1      -3.507  -9.581  11.375  0.00  0.00    -0.166 F 
ATOM     25  C   UNL     1      -2.531 -10.365  11.921  0.00  0.00    +0.417 C 
ENDBRANCH  21  25
TORSDOF 4
ENDMDL
