MODEL 1
REMARK VINA RESULT:      -7.6      0.000      0.000
REMARK  Name = 75536039
REMARK  8 active torsions:
REMARK  status: ('A' for Active; 'I' for Inactive)
REMARK    1  A    between atoms: O_5  and  C_21
REMARK    2  A    between atoms: O_5  and  C_24
REMARK    3  A    between atoms: O_6  and  C_30
REMARK    4  A    between atoms: O_6  and  C_31
REMARK    5  A    between atoms: C_13  and  C_18
REMARK    6  A    between atoms: C_19  and  C_21
REMARK    7  A    between atoms: C_22  and  C_23
REMARK    8  A    between atoms: C_24  and  C_30
REMARK                            x       y       z     vdW  Elec       q    Type
REMARK                         _______ _______ _______ _____ _____    ______ ____
ROOT
ATOM      4  O   UNL     1      12.384   8.445  22.336  0.00  0.00    -0.273 OA
ATOM      8  N   UNL     1      13.110   9.036  20.201  0.00  0.00    -0.282 N 
ATOM      9  N   UNL     1      13.108  10.457  16.752  0.00  0.00    -0.347 N 
ATOM     10  N   UNL     1      12.306   8.457  16.163  0.00  0.00    -0.240 NA
ATOM     13  C   UNL     1      13.221   7.604  19.755  0.00  0.00    +0.171 C 
ATOM     14  C   UNL     1      12.419   7.355  18.441  0.00  0.00    +0.089 C 
ATOM     15  C   UNL     1      13.524  10.096  19.241  0.00  0.00    +0.163 C 
ATOM     16  C   UNL     1      12.598   8.480  17.498  0.00  0.00    +0.066 A 
ATOM     17  C   UNL     1      13.090   9.701  17.887  0.00  0.00    +0.056 A 
ATOM     19  C   UNL     1      12.729   9.306  21.522  0.00  0.00    +0.242 C 
ATOM     20  C   UNL     1      12.625   9.664  15.741  0.00  0.00    +0.197 A 
ATOM     32  H   UNL     1      13.417  11.416  16.667  0.00  0.00    +0.167 HD
ENDROOT
BRANCH  13  18
ATOM      3  O   UNL     1      15.047   6.292  18.770  0.00  0.00    -0.336 OA
ATOM     11  N   UNL     1      15.645   7.463  20.584  0.00  0.00    -0.190 NA
ATOM     12  N   UNL     1      16.406   6.021  18.979  0.00  0.00    -0.056 NA
ATOM     18  C   UNL     1      14.679   7.149  19.758  0.00  0.00    +0.249 A 
ATOM     22  C   UNL     1      16.684   6.746  20.065  0.00  0.00    +0.202 A 
BRANCH  22  23
ATOM      1 CL   UNL     1      21.381   4.667  20.437  0.00  0.00    -0.081 Cl
ATOM      2  F   UNL     1      21.746   6.881  22.373  0.00  0.00    -0.204 F 
ATOM     23  C   UNL     1      17.991   6.778  20.657  0.00  0.00    +0.024 A 
ATOM     25  C   UNL     1      18.941   5.821  20.302  0.00  0.00    +0.034 A 
ATOM     26  C   UNL     1      18.311   7.767  21.588  0.00  0.00    +0.014 A 
ATOM     27  C   UNL     1      20.211   5.851  20.879  0.00  0.00    +0.077 A 
ATOM     28  C   UNL     1      19.581   7.797  22.164  0.00  0.00    +0.040 A 
ATOM     29  C   UNL     1      20.531   6.839  21.809  0.00  0.00    +0.142 A 
ENDBRANCH  22  23
ENDBRANCH  13  18
BRANCH  19  21
ATOM     21  C   UNL     1      12.750  10.754  21.946  0.00  0.00    +0.256 C 
BRANCH  21   5
ATOM      5  O   UNL     1      11.493  11.022  22.520  0.00  0.00    -0.359 OA
BRANCH   5  24
ATOM     24  C   UNL     1      11.485  12.254  23.240  0.00  0.00    +0.280 C 
BRANCH  24  30
ATOM      7  O   UNL     1      11.294  11.022  25.320  0.00  0.00    -0.248 OA
ATOM     30  C   UNL     1      10.994  11.994  24.641  0.00  0.00    +0.333 C 
BRANCH  30   6
ATOM      6  O   UNL     1      10.168  13.014  25.017  0.00  0.00    -0.466 OA
ATOM     31  C   UNL     1       9.868  13.971  23.996  0.00  0.00    +0.280 C 
ENDBRANCH  30   6
ENDBRANCH  24  30
ENDBRANCH   5  24
ENDBRANCH  21   5
ENDBRANCH  19  21
TORSDOF 7
ENDMDL
MODEL 2
REMARK VINA RESULT:      -6.8     27.445     29.534
REMARK  Name = 75536039
REMARK  8 active torsions:
REMARK  status: ('A' for Active; 'I' for Inactive)
REMARK    1  A    between atoms: O_5  and  C_21
REMARK    2  A    between atoms: O_5  and  C_24
REMARK    3  A    between atoms: O_6  and  C_30
REMARK    4  A    between atoms: O_6  and  C_31
REMARK    5  A    between atoms: C_13  and  C_18
REMARK    6  A    between atoms: C_19  and  C_21
REMARK    7  A    between atoms: C_22  and  C_23
REMARK    8  A    between atoms: C_24  and  C_30
REMARK                            x       y       z     vdW  Elec       q    Type
REMARK                         _______ _______ _______ _____ _____    ______ ____
ROOT
ATOM      4  O   UNL     1      -9.939 -12.221  17.629  0.00  0.00    -0.273 OA
ATOM      8  N   UNL     1      -9.765  -9.972  17.044  0.00  0.00    -0.282 N 
ATOM      9  N   UNL     1     -10.619  -6.360  16.662  0.00  0.00    -0.347 N 
ATOM     10  N   UNL     1     -11.561  -7.011  14.743  0.00  0.00    -0.240 NA
ATOM     13  C   UNL     1      -9.782 -10.269  15.571  0.00  0.00    +0.171 C 
ATOM     14  C   UNL     1     -10.890  -9.452  14.839  0.00  0.00    +0.089 C 
ATOM     15  C   UNL     1      -9.596  -8.553  17.464  0.00  0.00    +0.163 C 
ATOM     16  C   UNL     1     -10.943  -8.066  15.353  0.00  0.00    +0.066 A 
ATOM     17  C   UNL     1     -10.358  -7.693  16.538  0.00  0.00    +0.056 A 
ATOM     19  C   UNL     1      -9.801 -11.039  17.952  0.00  0.00    +0.242 C 
ATOM     20  C   UNL     1     -11.346  -5.997  15.556  0.00  0.00    +0.197 A 
ATOM     32  H   UNL     1     -10.333  -5.754  17.418  0.00  0.00    +0.167 HD
ENDROOT
BRANCH  13  18
ATOM      3  O   UNL     1      -8.273  -9.685  13.725  0.00  0.00    -0.336 OA
ATOM     11  N   UNL     1      -7.229 -10.520  15.523  0.00  0.00    -0.190 NA
ATOM     12  N   UNL     1      -6.908  -9.702  13.410  0.00  0.00    -0.056 NA
ATOM     18  C   UNL     1      -8.374 -10.182  14.986  0.00  0.00    +0.249 A 
ATOM     22  C   UNL     1      -6.359 -10.208  14.518  0.00  0.00    +0.202 A 
BRANCH  22  23
ATOM      1 CL   UNL     1      -1.793 -10.923  12.247  0.00  0.00    -0.081 Cl
ATOM      2  F   UNL     1      -0.879 -11.008  15.065  0.00  0.00    -0.204 F 
ATOM     23  C   UNL     1      -4.946 -10.413  14.655  0.00  0.00    +0.024 A 
ATOM     25  C   UNL     1      -4.148 -10.552  13.520  0.00  0.00    +0.034 A 
ATOM     26  C   UNL     1      -4.370 -10.475  15.924  0.00  0.00    +0.014 A 
ATOM     27  C   UNL     1      -2.774 -10.753  13.653  0.00  0.00    +0.077 A 
ATOM     28  C   UNL     1      -2.996 -10.675  16.057  0.00  0.00    +0.040 A 
ATOM     29  C   UNL     1      -2.198 -10.814  14.921  0.00  0.00    +0.142 A 
ENDBRANCH  22  23
ENDBRANCH  13  18
BRANCH  19  21
ATOM     21  C   UNL     1      -9.662 -10.686  19.413  0.00  0.00    +0.256 C 
BRANCH  21   5
ATOM      5  O   UNL     1      -8.521 -11.363  19.882  0.00  0.00    -0.359 OA
BRANCH   5  24
ATOM     24  C   UNL     1      -7.315 -10.691  19.522  0.00  0.00    +0.280 C 
BRANCH  24  30
ATOM      7  O   UNL     1      -6.612 -12.799  18.550  0.00  0.00    -0.248 OA
ATOM     30  C   UNL     1      -6.322 -11.710  19.025  0.00  0.00    +0.333 C 
BRANCH  30   6
ATOM      6  O   UNL     1      -5.060 -11.217  19.193  0.00  0.00    -0.466 OA
ATOM     31  C   UNL     1      -4.028 -12.199  19.328  0.00  0.00    +0.280 C 
ENDBRANCH  30   6
ENDBRANCH  24  30
ENDBRANCH   5  24
ENDBRANCH  21   5
ENDBRANCH  19  21
TORSDOF 7
ENDMDL
MODEL 3
REMARK VINA RESULT:      -6.6     26.916     29.459
REMARK  Name = 75536039
REMARK  8 active torsions:
REMARK  status: ('A' for Active; 'I' for Inactive)
REMARK    1  A    between atoms: O_5  and  C_21
REMARK    2  A    between atoms: O_5  and  C_24
REMARK    3  A    between atoms: O_6  and  C_30
REMARK    4  A    between atoms: O_6  and  C_31
REMARK    5  A    between atoms: C_13  and  C_18
REMARK    6  A    between atoms: C_19  and  C_21
REMARK    7  A    between atoms: C_22  and  C_23
REMARK    8  A    between atoms: C_24  and  C_30
REMARK                            x       y       z     vdW  Elec       q    Type
REMARK                         _______ _______ _______ _____ _____    ______ ____
ROOT
ATOM      4  O   UNL     1      -6.548 -12.894  17.311  0.00  0.00    -0.273 OA
ATOM      8  N   UNL     1      -7.546 -10.818  16.958  0.00  0.00    -0.282 N 
ATOM      9  N   UNL     1      -9.546  -7.727  17.563  0.00  0.00    -0.347 N 
ATOM     10  N   UNL     1     -11.243  -8.926  16.742  0.00  0.00    -0.240 NA
ATOM     13  C   UNL     1      -8.438 -11.342  15.867  0.00  0.00    +0.171 C 
ATOM     14  C   UNL     1      -9.936 -11.015  16.151  0.00  0.00    +0.089 C 
ATOM     15  C   UNL     1      -7.614  -9.363  17.271  0.00  0.00    +0.163 C 
ATOM     16  C   UNL     1     -10.080  -9.641  16.680  0.00  0.00    +0.066 A 
ATOM     17  C   UNL     1      -9.020  -8.926  17.183  0.00  0.00    +0.056 A 
ATOM     19  C   UNL     1      -6.624 -11.687  17.555  0.00  0.00    +0.242 C 
ATOM     20  C   UNL     1     -10.888  -7.776  17.278  0.00  0.00    +0.197 A 
ATOM     32  H   UNL     1      -9.048  -6.949  17.974  0.00  0.00    +0.167 HD
ENDROOT
BRANCH  13  18
ATOM      3  O   UNL     1      -8.808 -10.904  13.479  0.00  0.00    -0.336 OA
ATOM     11  N   UNL     1      -6.684 -10.624  14.136  0.00  0.00    -0.190 NA
ATOM     12  N   UNL     1      -8.094 -10.518  12.338  0.00  0.00    -0.056 NA
ATOM     18  C   UNL     1      -7.903 -10.941  14.493  0.00  0.00    +0.249 A 
ATOM     22  C   UNL     1      -6.851 -10.373  12.806  0.00  0.00    +0.202 A 
BRANCH  22  23
ATOM      1 CL   UNL     1      -1.794 -10.529  11.847  0.00  0.00    -0.081 Cl
ATOM      2  F   UNL     1      -2.603  -8.824   9.561  0.00  0.00    -0.204 F 
ATOM     23  C   UNL     1      -5.753  -9.977  11.971  0.00  0.00    +0.024 A 
ATOM     25  C   UNL     1      -4.458 -10.395  12.276  0.00  0.00    +0.034 A 
ATOM     26  C   UNL     1      -5.981  -9.172  10.854  0.00  0.00    +0.014 A 
ATOM     27  C   UNL     1      -3.391 -10.009  11.466  0.00  0.00    +0.077 A 
ATOM     28  C   UNL     1      -4.914  -8.787  10.043  0.00  0.00    +0.040 A 
ATOM     29  C   UNL     1      -3.619  -9.205  10.349  0.00  0.00    +0.142 A 
ENDBRANCH  22  23
ENDBRANCH  13  18
BRANCH  19  21
ATOM     21  C   UNL     1      -5.676 -11.078  18.559  0.00  0.00    +0.256 C 
BRANCH  21   5
ATOM      5  O   UNL     1      -4.377 -11.266  18.050  0.00  0.00    -0.359 OA
BRANCH   5  24
ATOM     24  C   UNL     1      -4.106 -10.405  16.945  0.00  0.00    +0.280 C 
BRANCH  24  30
ATOM      7  O   UNL     1      -3.770 -12.357  15.547  0.00  0.00    -0.248 OA
ATOM     30  C   UNL     1      -3.463 -11.212  15.847  0.00  0.00    +0.333 C 
BRANCH  30   6
ATOM      6  O   UNL     1      -2.492 -10.457  15.254  0.00  0.00    -0.466 OA
ATOM     31  C   UNL     1      -1.212 -10.487  15.893  0.00  0.00    +0.280 C 
ENDBRANCH  30   6
ENDBRANCH  24  30
ENDBRANCH   5  24
ENDBRANCH  21   5
ENDBRANCH  19  21
TORSDOF 7
ENDMDL
MODEL 4
REMARK VINA RESULT:      -6.6      2.207      2.740
REMARK  Name = 75536039
REMARK  8 active torsions:
REMARK  status: ('A' for Active; 'I' for Inactive)
REMARK    1  A    between atoms: O_5  and  C_21
REMARK    2  A    between atoms: O_5  and  C_24
REMARK    3  A    between atoms: O_6  and  C_30
REMARK    4  A    between atoms: O_6  and  C_31
REMARK    5  A    between atoms: C_13  and  C_18
REMARK    6  A    between atoms: C_19  and  C_21
REMARK    7  A    between atoms: C_22  and  C_23
REMARK    8  A    between atoms: C_24  and  C_30
REMARK                            x       y       z     vdW  Elec       q    Type
REMARK                         _______ _______ _______ _____ _____    ______ ____
ROOT
ATOM      4  O   UNL     1      12.465   9.678  22.362  0.00  0.00    -0.273 OA
ATOM      8  N   UNL     1      13.027   9.711  20.100  0.00  0.00    -0.282 N 
ATOM      9  N   UNL     1      12.807  10.339  16.429  0.00  0.00    -0.347 N 
ATOM     10  N   UNL     1      11.788   8.350  16.371  0.00  0.00    -0.240 NA
ATOM     13  C   UNL     1      12.975   8.213  19.983  0.00  0.00    +0.171 C 
ATOM     14  C   UNL     1      12.031   7.766  18.825  0.00  0.00    +0.089 C 
ATOM     15  C   UNL     1      13.431  10.489  18.896  0.00  0.00    +0.163 C 
ATOM     16  C   UNL     1      12.210   8.634  17.640  0.00  0.00    +0.066 A 
ATOM     17  C   UNL     1      12.837   9.854  17.703  0.00  0.00    +0.056 A 
ATOM     19  C   UNL     1      12.800  10.301  21.351  0.00  0.00    +0.242 C 
ATOM     20  C   UNL     1      12.164   9.397  15.665  0.00  0.00    +0.197 A 
ATOM     32  H   UNL     1      13.184  11.219  16.106  0.00  0.00    +0.167 HD
ENDROOT
BRANCH  13  18
ATOM      3  O   UNL     1      14.594   6.566  19.149  0.00  0.00    -0.336 OA
ATOM     11  N   UNL     1      15.439   7.986  20.662  0.00  0.00    -0.190 NA
ATOM     12  N   UNL     1      15.937   6.204  19.317  0.00  0.00    -0.056 NA
ATOM     18  C   UNL     1      14.384   7.623  19.977  0.00  0.00    +0.249 A 
ATOM     22  C   UNL     1      16.366   7.085  20.224  0.00  0.00    +0.202 A 
BRANCH  22  23
ATOM      1 CL   UNL     1      19.974   9.387  23.087  0.00  0.00    -0.081 Cl
ATOM      2  F   UNL     1      21.604   7.115  22.103  0.00  0.00    -0.204 F 
ATOM     23  C   UNL     1      17.716   7.096  20.711  0.00  0.00    +0.024 A 
ATOM     25  C   UNL     1      18.141   8.115  21.563  0.00  0.00    +0.034 A 
ATOM     26  C   UNL     1      18.601   6.087  20.333  0.00  0.00    +0.014 A 
ATOM     27  C   UNL     1      19.454   8.126  22.036  0.00  0.00    +0.077 A 
ATOM     28  C   UNL     1      19.913   6.098  20.807  0.00  0.00    +0.040 A 
ATOM     29  C   UNL     1      20.339   7.118  21.658  0.00  0.00    +0.142 A 
ENDBRANCH  22  23
ENDBRANCH  13  18
BRANCH  19  21
ATOM     21  C   UNL     1      12.981  11.797  21.433  0.00  0.00    +0.256 C 
BRANCH  21   5
ATOM      5  O   UNL     1      13.936  12.030  22.440  0.00  0.00    -0.359 OA
BRANCH   5  24
ATOM     24  C   UNL     1      15.270  11.873  21.959  0.00  0.00    +0.280 C 
BRANCH  24  30
ATOM      7  O   UNL     1      17.431  11.817  23.057  0.00  0.00    -0.248 OA
ATOM     30  C   UNL     1      16.211  11.855  23.136  0.00  0.00    +0.333 C 
BRANCH  30   6
ATOM      6  O   UNL     1      15.480  11.888  24.288  0.00  0.00    -0.466 OA
ATOM     31  C   UNL     1      16.089  12.578  25.384  0.00  0.00    +0.280 C 
ENDBRANCH  30   6
ENDBRANCH  24  30
ENDBRANCH   5  24
ENDBRANCH  21   5
ENDBRANCH  19  21
TORSDOF 7
ENDMDL
MODEL 5
REMARK VINA RESULT:      -6.5      4.818      7.687
REMARK  Name = 75536039
REMARK  8 active torsions:
REMARK  status: ('A' for Active; 'I' for Inactive)
REMARK    1  A    between atoms: O_5  and  C_21
REMARK    2  A    between atoms: O_5  and  C_24
REMARK    3  A    between atoms: O_6  and  C_30
REMARK    4  A    between atoms: O_6  and  C_31
REMARK    5  A    between atoms: C_13  and  C_18
REMARK    6  A    between atoms: C_19  and  C_21
REMARK    7  A    between atoms: C_22  and  C_23
REMARK    8  A    between atoms: C_24  and  C_30
REMARK                            x       y       z     vdW  Elec       q    Type
REMARK                         _______ _______ _______ _____ _____    ______ ____
ROOT
ATOM      4  O   UNL     1      13.166  11.790  19.298  0.00  0.00    -0.273 OA
ATOM      8  N   UNL     1      13.024   9.841  20.569  0.00  0.00    -0.282 N 
ATOM      9  N   UNL     1      12.706   6.230  21.449  0.00  0.00    -0.347 N 
ATOM     10  N   UNL     1      10.511   6.647  21.446  0.00  0.00    -0.240 NA
ATOM     13  C   UNL     1      11.716  10.246  21.190  0.00  0.00    +0.171 C 
ATOM     14  C   UNL     1      10.633   9.139  21.005  0.00  0.00    +0.089 C 
ATOM     15  C   UNL     1      13.640   8.562  21.018  0.00  0.00    +0.163 C 
ATOM     16  C   UNL     1      11.215   7.797  21.222  0.00  0.00    +0.066 A 
ATOM     17  C   UNL     1      12.569   7.566  21.216  0.00  0.00    +0.056 A 
ATOM     19  C   UNL     1      13.655  10.725  19.683  0.00  0.00    +0.242 C 
ATOM     20  C   UNL     1      11.438   5.720  21.579  0.00  0.00    +0.197 A 
ATOM     32  H   UNL     1      13.571   5.711  21.515  0.00  0.00    +0.167 HD
ENDROOT
BRANCH  13  18
ATOM      3  O   UNL     1      10.876  10.639  23.464  0.00  0.00    -0.336 OA
ATOM     11  N   UNL     1      12.992  11.303  23.150  0.00  0.00    -0.190 NA
ATOM     12  N   UNL     1      11.304  11.167  24.688  0.00  0.00    -0.056 NA
ATOM     18  C   UNL     1      11.930  10.757  22.614  0.00  0.00    +0.249 A 
ATOM     22  C   UNL     1      12.559  11.538  24.422  0.00  0.00    +0.202 A 
BRANCH  22  23
ATOM      1 CL   UNL     1      13.286  15.290  27.874  0.00  0.00    -0.081 Cl
ATOM      2  F   UNL     1      15.869  13.882  28.233  0.00  0.00    -0.204 F 
ATOM     23  C   UNL     1      13.410  12.145  25.407  0.00  0.00    +0.024 A 
ATOM     25  C   UNL     1      12.987  13.288  26.084  0.00  0.00    +0.034 A 
ATOM     26  C   UNL     1      14.659  11.591  25.685  0.00  0.00    +0.014 A 
ATOM     27  C   UNL     1      13.813  13.879  27.039  0.00  0.00    +0.077 A 
ATOM     28  C   UNL     1      15.486  12.181  26.641  0.00  0.00    +0.040 A 
ATOM     29  C   UNL     1      15.062  13.325  27.318  0.00  0.00    +0.142 A 
ENDBRANCH  22  23
ENDBRANCH  13  18
BRANCH  19  21
ATOM     21  C   UNL     1      15.020  10.318  19.183  0.00  0.00    +0.256 C 
BRANCH  21   5
ATOM      5  O   UNL     1      14.806   9.441  18.103  0.00  0.00    -0.359 OA
BRANCH   5  24
ATOM     24  C   UNL     1      14.422  10.136  16.918  0.00  0.00    +0.280 C 
BRANCH  24  30
ATOM      7  O   UNL     1      13.775   8.478  15.272  0.00  0.00    -0.248 OA
ATOM     30  C   UNL     1      13.458   9.277  16.143  0.00  0.00    +0.333 C 
BRANCH  30   6
ATOM      6  O   UNL     1      12.188   9.538  16.571  0.00  0.00    -0.466 OA
ATOM     31  C   UNL     1      11.608   8.543  17.421  0.00  0.00    +0.280 C 
ENDBRANCH  30   6
ENDBRANCH  24  30
ENDBRANCH   5  24
ENDBRANCH  21   5
ENDBRANCH  19  21
TORSDOF 7
ENDMDL
MODEL 6
REMARK VINA RESULT:      -6.5     28.205     29.866
REMARK  Name = 75536039
REMARK  8 active torsions:
REMARK  status: ('A' for Active; 'I' for Inactive)
REMARK    1  A    between atoms: O_5  and  C_21
REMARK    2  A    between atoms: O_5  and  C_24
REMARK    3  A    between atoms: O_6  and  C_30
REMARK    4  A    between atoms: O_6  and  C_31
REMARK    5  A    between atoms: C_13  and  C_18
REMARK    6  A    between atoms: C_19  and  C_21
REMARK    7  A    between atoms: C_22  and  C_23
REMARK    8  A    between atoms: C_24  and  C_30
REMARK                            x       y       z     vdW  Elec       q    Type
REMARK                         _______ _______ _______ _____ _____    ______ ____
ROOT
ATOM      4  O   UNL     1      -9.830 -12.025  17.254  0.00  0.00    -0.273 OA
ATOM      8  N   UNL     1      -9.743  -9.773  16.659  0.00  0.00    -0.282 N 
ATOM      9  N   UNL     1     -10.684  -6.176  16.353  0.00  0.00    -0.347 N 
ATOM     10  N   UNL     1     -11.778  -6.843  14.523  0.00  0.00    -0.240 NA
ATOM     13  C   UNL     1      -9.883 -10.072  15.192  0.00  0.00    +0.171 C 
ATOM     14  C   UNL     1     -11.063  -9.273  14.559  0.00  0.00    +0.089 C 
ATOM     15  C   UNL     1      -9.561  -8.351  17.063  0.00  0.00    +0.163 C 
ATOM     16  C   UNL     1     -11.093  -7.888  15.077  0.00  0.00    +0.066 A 
ATOM     17  C   UNL     1     -10.414  -7.505  16.207  0.00  0.00    +0.056 A 
ATOM     19  C   UNL     1      -9.683 -10.840  17.565  0.00  0.00    +0.242 C 
ATOM     20  C   UNL     1     -11.510  -5.825  15.315  0.00  0.00    +0.197 A 
ATOM     32  H   UNL     1     -10.343  -5.565  17.083  0.00  0.00    +0.167 HD
ENDROOT
BRANCH  13  18
ATOM      3  O   UNL     1      -7.434 -10.252  15.235  0.00  0.00    -0.336 OA
ATOM     11  N   UNL     1      -8.266  -9.626  13.251  0.00  0.00    -0.190 NA
ATOM     12  N   UNL     1      -6.333 -10.083  14.386  0.00  0.00    -0.056 NA
ATOM     18  C   UNL     1      -8.532  -9.963  14.487  0.00  0.00    +0.249 A 
ATOM     22  C   UNL     1      -6.904  -9.714  13.237  0.00  0.00    +0.202 A 
BRANCH  22  23
ATOM      1 CL   UNL     1      -2.347  -9.758  10.838  0.00  0.00    -0.081 Cl
ATOM      2  F   UNL     1      -3.965  -8.590   8.647  0.00  0.00    -0.204 F 
ATOM     23  C   UNL     1      -6.143  -9.427  12.054  0.00  0.00    +0.024 A 
ATOM     25  C   UNL     1      -4.775  -9.699  12.022  0.00  0.00    +0.034 A 
ATOM     26  C   UNL     1      -6.771  -8.874  10.939  0.00  0.00    +0.014 A 
ATOM     27  C   UNL     1      -4.035  -9.419  10.873  0.00  0.00    +0.077 A 
ATOM     28  C   UNL     1      -6.031  -8.594   9.790  0.00  0.00    +0.040 A 
ATOM     29  C   UNL     1      -4.663  -8.867   9.757  0.00  0.00    +0.142 A 
ENDBRANCH  22  23
ENDBRANCH  13  18
BRANCH  19  21
ATOM     21  C   UNL     1      -9.424 -10.484  19.009  0.00  0.00    +0.256 C 
BRANCH  21   5
ATOM      5  O   UNL     1      -8.290 -11.217  19.405  0.00  0.00    -0.359 OA
BRANCH   5  24
ATOM     24  C   UNL     1      -7.081 -10.633  18.923  0.00  0.00    +0.280 C 
BRANCH  24  30
ATOM      7  O   UNL     1      -5.965 -11.297  20.971  0.00  0.00    -0.248 OA
ATOM     30  C   UNL     1      -5.932 -11.137  19.759  0.00  0.00    +0.333 C 
BRANCH  30   6
ATOM      6  O   UNL     1      -4.865 -11.379  18.944  0.00  0.00    -0.466 OA
ATOM     31  C   UNL     1      -4.867 -10.673  17.699  0.00  0.00    +0.280 C 
ENDBRANCH  30   6
ENDBRANCH  24  30
ENDBRANCH   5  24
ENDBRANCH  21   5
ENDBRANCH  19  21
TORSDOF 7
ENDMDL
MODEL 7
REMARK VINA RESULT:      -6.5     27.982     29.646
REMARK  Name = 75536039
REMARK  8 active torsions:
REMARK  status: ('A' for Active; 'I' for Inactive)
REMARK    1  A    between atoms: O_5  and  C_21
REMARK    2  A    between atoms: O_5  and  C_24
REMARK    3  A    between atoms: O_6  and  C_30
REMARK    4  A    between atoms: O_6  and  C_31
REMARK    5  A    between atoms: C_13  and  C_18
REMARK    6  A    between atoms: C_19  and  C_21
REMARK    7  A    between atoms: C_22  and  C_23
REMARK    8  A    between atoms: C_24  and  C_30
REMARK                            x       y       z     vdW  Elec       q    Type
REMARK                         _______ _______ _______ _____ _____    ______ ____
ROOT
ATOM      4  O   UNL     1      -8.644 -12.481  17.461  0.00  0.00    -0.273 OA
ATOM      8  N   UNL     1      -9.017 -10.243  16.928  0.00  0.00    -0.282 N 
ATOM      9  N   UNL     1     -10.447  -6.798  17.009  0.00  0.00    -0.347 N 
ATOM     10  N   UNL     1     -11.938  -7.618  15.561  0.00  0.00    -0.240 NA
ATOM     13  C   UNL     1      -9.543 -10.573  15.559  0.00  0.00    +0.171 C 
ATOM     14  C   UNL     1     -10.947  -9.937  15.321  0.00  0.00    +0.089 C 
ATOM     15  C   UNL     1      -8.903  -8.805  17.300  0.00  0.00    +0.163 C 
ATOM     16  C   UNL     1     -10.996  -8.562  15.862  0.00  0.00    +0.066 A 
ATOM     17  C   UNL     1     -10.068  -8.083  16.754  0.00  0.00    +0.056 A 
ATOM     19  C   UNL     1      -8.561 -11.284  17.748  0.00  0.00    +0.242 C 
ATOM     20  C   UNL     1     -11.579  -6.566  16.268  0.00  0.00    +0.197 A 
ATOM     32  H   UNL     1      -9.985  -6.140  17.623  0.00  0.00    +0.167 HD
ENDROOT
BRANCH  13  18
ATOM      3  O   UNL     1      -8.915  -9.706  13.349  0.00  0.00    -0.336 OA
ATOM     11  N   UNL     1      -7.200 -10.558  14.512  0.00  0.00    -0.190 NA
ATOM     12  N   UNL     1      -7.783  -9.562  12.537  0.00  0.00    -0.056 NA
ATOM     18  C   UNL     1      -8.483 -10.301  14.492  0.00  0.00    +0.249 A 
ATOM     22  C   UNL     1      -6.814 -10.088  13.291  0.00  0.00    +0.202 A 
BRANCH  22  23
ATOM      1 CL   UNL     1      -3.325  -9.099   9.635  0.00  0.00    -0.081 Cl
ATOM      2  F   UNL     1      -1.516 -10.368  11.611  0.00  0.00    -0.204 F 
ATOM     23  C   UNL     1      -5.448 -10.157  12.855  0.00  0.00    +0.024 A 
ATOM     25  C   UNL     1      -5.090  -9.654  11.605  0.00  0.00    +0.034 A 
ATOM     26  C   UNL     1      -4.481 -10.729  13.681  0.00  0.00    +0.014 A 
ATOM     27  C   UNL     1      -3.763  -9.722  11.180  0.00  0.00    +0.077 A 
ATOM     28  C   UNL     1      -3.154 -10.796  13.256  0.00  0.00    +0.040 A 
ATOM     29  C   UNL     1      -2.795 -10.293  12.006  0.00  0.00    +0.142 A 
ENDBRANCH  22  23
ENDBRANCH  13  18
BRANCH  19  21
ATOM     21  C   UNL     1      -7.936 -10.882  19.061  0.00  0.00    +0.256 C 
BRANCH  21   5
ATOM      5  O   UNL     1      -6.933 -11.831  19.335  0.00  0.00    -0.359 OA
BRANCH   5  24
ATOM     24  C   UNL     1      -5.780 -11.235  19.926  0.00  0.00    +0.280 C 
BRANCH  24  30
ATOM      7  O   UNL     1      -3.556 -12.201  19.880  0.00  0.00    -0.248 OA
ATOM     30  C   UNL     1      -4.548 -11.813  19.278  0.00  0.00    +0.333 C 
BRANCH  30   6
ATOM      6  O   UNL     1      -4.726 -11.830  17.925  0.00  0.00    -0.466 OA
ATOM     31  C   UNL     1      -4.470 -10.591  17.255  0.00  0.00    +0.280 C 
ENDBRANCH  30   6
ENDBRANCH  24  30
ENDBRANCH   5  24
ENDBRANCH  21   5
ENDBRANCH  19  21
TORSDOF 7
ENDMDL
MODEL 8
REMARK VINA RESULT:      -6.4     27.225     29.392
REMARK  Name = 75536039
REMARK  8 active torsions:
REMARK  status: ('A' for Active; 'I' for Inactive)
REMARK    1  A    between atoms: O_5  and  C_21
REMARK    2  A    between atoms: O_5  and  C_24
REMARK    3  A    between atoms: O_6  and  C_30
REMARK    4  A    between atoms: O_6  and  C_31
REMARK    5  A    between atoms: C_13  and  C_18
REMARK    6  A    between atoms: C_19  and  C_21
REMARK    7  A    between atoms: C_22  and  C_23
REMARK    8  A    between atoms: C_24  and  C_30
REMARK                            x       y       z     vdW  Elec       q    Type
REMARK                         _______ _______ _______ _____ _____    ______ ____
ROOT
ATOM      4  O   UNL     1      -1.471 -14.662  12.718  0.00  0.00    -0.273 OA
ATOM      8  N   UNL     1      -2.879 -12.866  12.244  0.00  0.00    -0.282 N 
ATOM      9  N   UNL     1      -4.846 -10.351  10.314  0.00  0.00    -0.347 N 
ATOM     10  N   UNL     1      -2.971  -9.139  10.403  0.00  0.00    -0.240 NA
ATOM     13  C   UNL     1      -1.937 -11.863  12.848  0.00  0.00    +0.171 C 
ATOM     14  C   UNL     1      -1.608 -10.715  11.845  0.00  0.00    +0.089 C 
ATOM     15  C   UNL     1      -4.183 -12.368  11.724  0.00  0.00    +0.163 C 
ATOM     16  C   UNL     1      -2.824 -10.298  11.113  0.00  0.00    +0.066 A 
ATOM     17  C   UNL     1      -3.963 -11.064  11.070  0.00  0.00    +0.056 A 
ATOM     19  C   UNL     1      -2.543 -14.226  12.291  0.00  0.00    +0.242 C 
ATOM     20  C   UNL     1      -4.201  -9.200   9.935  0.00  0.00    +0.197 A 
ATOM     32  H   UNL     1      -5.792 -10.615  10.077  0.00  0.00    +0.167 HD
ENDROOT
BRANCH  13  18
ATOM      3  O   UNL     1      -1.476 -10.919  15.068  0.00  0.00    -0.336 OA
ATOM     11  N   UNL     1      -3.617 -11.498  14.753  0.00  0.00    -0.190 NA
ATOM     12  N   UNL     1      -2.143 -10.608  16.259  0.00  0.00    -0.056 NA
ATOM     18  C   UNL     1      -2.417 -11.437  14.235  0.00  0.00    +0.249 A 
ATOM     22  C   UNL     1      -3.399 -10.979  15.996  0.00  0.00    +0.202 A 
BRANCH  22  23
ATOM      1 CL   UNL     1      -8.041  -9.071  17.149  0.00  0.00    -0.081 Cl
ATOM      2  F   UNL     1      -7.506 -10.455  19.715  0.00  0.00    -0.204 F 
ATOM     23  C   UNL     1      -4.461 -10.843  16.952  0.00  0.00    +0.024 A 
ATOM     25  C   UNL     1      -5.603 -10.110  16.626  0.00  0.00    +0.034 A 
ATOM     26  C   UNL     1      -4.351 -11.442  18.206  0.00  0.00    +0.014 A 
ATOM     27  C   UNL     1      -6.634  -9.976  17.556  0.00  0.00    +0.077 A 
ATOM     28  C   UNL     1      -5.383 -11.309  19.135  0.00  0.00    +0.040 A 
ATOM     29  C   UNL     1      -6.524 -10.576  18.810  0.00  0.00    +0.142 A 
ENDBRANCH  22  23
ENDBRANCH  13  18
BRANCH  19  21
ATOM     21  C   UNL     1      -3.580 -15.194  11.777  0.00  0.00    +0.256 C 
BRANCH  21   5
ATOM      5  O   UNL     1      -3.876 -16.067  12.840  0.00  0.00    -0.359 OA
BRANCH   5  24
ATOM     24  C   UNL     1      -4.710 -15.451  13.820  0.00  0.00    +0.280 C 
BRANCH  24  30
ATOM      7  O   UNL     1      -3.243 -16.434  15.481  0.00  0.00    -0.248 OA
ATOM     30  C   UNL     1      -4.042 -15.563  15.166  0.00  0.00    +0.333 C 
BRANCH  30   6
ATOM      6  O   UNL     1      -4.474 -14.542  15.962  0.00  0.00    -0.466 OA
ATOM     31  C   UNL     1      -5.853 -14.188  15.815  0.00  0.00    +0.280 C 
ENDBRANCH  30   6
ENDBRANCH  24  30
ENDBRANCH   5  24
ENDBRANCH  21   5
ENDBRANCH  19  21
TORSDOF 7
ENDMDL
MODEL 9
REMARK VINA RESULT:      -6.3      2.877      4.187
REMARK  Name = 75536039
REMARK  8 active torsions:
REMARK  status: ('A' for Active; 'I' for Inactive)
REMARK    1  A    between atoms: O_5  and  C_21
REMARK    2  A    between atoms: O_5  and  C_24
REMARK    3  A    between atoms: O_6  and  C_30
REMARK    4  A    between atoms: O_6  and  C_31
REMARK    5  A    between atoms: C_13  and  C_18
REMARK    6  A    between atoms: C_19  and  C_21
REMARK    7  A    between atoms: C_22  and  C_23
REMARK    8  A    between atoms: C_24  and  C_30
REMARK                            x       y       z     vdW  Elec       q    Type
REMARK                         _______ _______ _______ _____ _____    ______ ____
ROOT
ATOM      4  O   UNL     1      14.359  11.694  21.267  0.00  0.00    -0.273 OA
ATOM      8  N   UNL     1      13.840  10.557  19.300  0.00  0.00    -0.282 N 
ATOM      9  N   UNL     1      12.107   9.615  16.134  0.00  0.00    -0.347 N 
ATOM     10  N   UNL     1      10.841   8.339  17.462  0.00  0.00    -0.240 NA
ATOM     13  C   UNL     1      13.480   9.293  20.030  0.00  0.00    +0.171 C 
ATOM     14  C   UNL     1      12.054   8.797  19.639  0.00  0.00    +0.089 C 
ATOM     15  C   UNL     1      13.789  10.538  17.812  0.00  0.00    +0.163 C 
ATOM     16  C   UNL     1      11.830   8.946  18.184  0.00  0.00    +0.066 A 
ATOM     17  C   UNL     1      12.621   9.740  17.390  0.00  0.00    +0.056 A 
ATOM     19  C   UNL     1      14.306  11.655  20.036  0.00  0.00    +0.242 C 
ATOM     20  C   UNL     1      11.036   8.762  16.229  0.00  0.00    +0.197 A 
ATOM     32  H   UNL     1      12.446  10.061  15.292  0.00  0.00    +0.167 HD
ENDROOT
BRANCH  13  18
ATOM      3  O   UNL     1      14.392   7.212  19.100  0.00  0.00    -0.336 OA
ATOM     11  N   UNL     1      15.773   8.253  20.524  0.00  0.00    -0.190 NA
ATOM     12  N   UNL     1      15.547   6.423  19.170  0.00  0.00    -0.056 NA
ATOM     18  C   UNL     1      14.609   8.269  19.927  0.00  0.00    +0.249 A 
ATOM     22  C   UNL     1      16.313   7.102  20.029  0.00  0.00    +0.202 A 
BRANCH  22  23
ATOM      1 CL   UNL     1      20.294   7.483  23.272  0.00  0.00    -0.081 Cl
ATOM      2  F   UNL     1      21.394   5.375  21.502  0.00  0.00    -0.204 F 
ATOM     23  C   UNL     1      17.622   6.658  20.413  0.00  0.00    +0.024 A 
ATOM     25  C   UNL     1      18.250   7.218  21.525  0.00  0.00    +0.034 A 
ATOM     26  C   UNL     1      18.267   5.668  19.672  0.00  0.00    +0.014 A 
ATOM     27  C   UNL     1      19.524   6.788  21.897  0.00  0.00    +0.077 A 
ATOM     28  C   UNL     1      19.541   5.237  20.045  0.00  0.00    +0.040 A 
ATOM     29  C   UNL     1      20.169   5.798  21.158  0.00  0.00    +0.142 A 
ENDBRANCH  22  23
ENDBRANCH  13  18
BRANCH  19  21
ATOM     21  C   UNL     1      14.764  12.853  19.240  0.00  0.00    +0.256 C 
BRANCH  21   5
ATOM      5  O   UNL     1      16.065  13.156  19.683  0.00  0.00    -0.359 OA
BRANCH   5  24
ATOM     24  C   UNL     1      17.062  12.642  18.802  0.00  0.00    +0.280 C 
BRANCH  24  30
ATOM      7  O   UNL     1      19.381  12.105  19.264  0.00  0.00    -0.248 OA
ATOM     30  C   UNL     1      18.212  12.118  19.623  0.00  0.00    +0.333 C 
BRANCH  30   6
ATOM      6  O   UNL     1      17.733  11.666  20.818  0.00  0.00    -0.466 OA
ATOM     31  C   UNL     1      18.575  11.905  21.950  0.00  0.00    +0.280 C 
ENDBRANCH  30   6
ENDBRANCH  24  30
ENDBRANCH   5  24
ENDBRANCH  21   5
ENDBRANCH  19  21
TORSDOF 7
ENDMDL
MODEL 10
REMARK VINA RESULT:      -6.3     25.782     27.950
REMARK  Name = 75536039
REMARK  8 active torsions:
REMARK  status: ('A' for Active; 'I' for Inactive)
REMARK    1  A    between atoms: O_5  and  C_21
REMARK    2  A    between atoms: O_5  and  C_24
REMARK    3  A    between atoms: O_6  and  C_30
REMARK    4  A    between atoms: O_6  and  C_31
REMARK    5  A    between atoms: C_13  and  C_18
REMARK    6  A    between atoms: C_19  and  C_21
REMARK    7  A    between atoms: C_22  and  C_23
REMARK    8  A    between atoms: C_24  and  C_30
REMARK                            x       y       z     vdW  Elec       q    Type
REMARK                         _______ _______ _______ _____ _____    ______ ____
ROOT
ATOM      4  O   UNL     1     -13.236   9.192  17.682  0.00  0.00    -0.273 OA
ATOM      8  N   UNL     1     -12.825   8.027  19.659  0.00  0.00    -0.282 N 
ATOM      9  N   UNL     1     -12.447   5.198  22.061  0.00  0.00    -0.347 N 
ATOM     10  N   UNL     1     -14.623   5.525  22.450  0.00  0.00    -0.240 NA
ATOM     13  C   UNL     1     -14.003   8.642  20.361  0.00  0.00    +0.171 C 
ATOM     14  C   UNL     1     -14.940   7.550  20.962  0.00  0.00    +0.089 C 
ATOM     15  C   UNL     1     -11.957   7.102  20.438  0.00  0.00    +0.163 C 
ATOM     16  C   UNL     1     -14.148   6.463  21.577  0.00  0.00    +0.066 A 
ATOM     17  C   UNL     1     -12.812   6.282  21.318  0.00  0.00    +0.056 A 
ATOM     19  C   UNL     1     -12.534   8.427  18.347  0.00  0.00    +0.242 C 
ATOM     20  C   UNL     1     -13.572   4.778  22.725  0.00  0.00    +0.197 A 
ATOM     32  H   UNL     1     -11.526   4.783  22.117  0.00  0.00    +0.167 HD
ENDROOT
BRANCH  13  18
ATOM      3  O   UNL     1     -13.308  10.964  20.759  0.00  0.00    -0.336 OA
ATOM     11  N   UNL     1     -13.347   9.698  22.607  0.00  0.00    -0.190 NA
ATOM     12  N   UNL     1     -12.909  11.797  21.811  0.00  0.00    -0.056 NA
ATOM     18  C   UNL     1     -13.547   9.746  21.314  0.00  0.00    +0.249 A 
ATOM     22  C   UNL     1     -12.956  10.979  22.866  0.00  0.00    +0.202 A 
BRANCH  22  23
ATOM      1 CL   UNL     1     -10.676   9.946  27.366  0.00  0.00    -0.081 Cl
ATOM      2  F   UNL     1     -11.669  12.663  28.011  0.00  0.00    -0.204 F 
ATOM     23  C   UNL     1     -12.621  11.410  24.193  0.00  0.00    +0.024 A 
ATOM     25  C   UNL     1     -11.896  10.569  25.037  0.00  0.00    +0.034 A 
ATOM     26  C   UNL     1     -13.022  12.670  24.638  0.00  0.00    +0.014 A 
ATOM     27  C   UNL     1     -11.572  10.987  26.327  0.00  0.00    +0.077 A 
ATOM     28  C   UNL     1     -12.696  13.088  25.929  0.00  0.00    +0.040 A 
ATOM     29  C   UNL     1     -11.971  12.247  26.773  0.00  0.00    +0.142 A 
ENDBRANCH  22  23
ENDBRANCH  13  18
BRANCH  19  21
ATOM     21  C   UNL     1     -11.273   7.865  17.736  0.00  0.00    +0.256 C 
BRANCH  21   5
ATOM      5  O   UNL     1     -10.613   8.943  17.118  0.00  0.00    -0.359 OA
BRANCH   5  24
ATOM     24  C   UNL     1      -9.816   9.683  18.042  0.00  0.00    +0.280 C 
BRANCH  24  30
ATOM      7  O   UNL     1      -9.466  11.777  16.870  0.00  0.00    -0.248 OA
ATOM     30  C   UNL     1     -10.004  11.154  17.775  0.00  0.00    +0.333 C 
BRANCH  30   6
ATOM      6  O   UNL     1     -10.865  11.666  18.703  0.00  0.00    -0.466 OA
ATOM     31  C   UNL     1     -11.305  13.006  18.461  0.00  0.00    +0.280 C 
ENDBRANCH  30   6
ENDBRANCH  24  30
ENDBRANCH   5  24
ENDBRANCH  21   5
ENDBRANCH  19  21
TORSDOF 7
ENDMDL
