MODEL 1
REMARK VINA RESULT:      -7.9      0.000      0.000
REMARK  Name = 11886251
REMARK  7 active torsions:
REMARK  status: ('A' for Active; 'I' for Inactive)
REMARK    1  A    between atoms: O_6  and  C_22
REMARK    2  A    between atoms: O_6  and  C_27
REMARK    3  A    between atoms: N_8  and  C_18
REMARK    4  A    between atoms: N_9  and  C_19
REMARK    5  A    between atoms: N_13  and  C_36
REMARK    6  A    between atoms: C_23  and  C_24
REMARK    7  A    between atoms: C_30  and  C_35
REMARK                            x       y       z     vdW  Elec       q    Type
REMARK                         _______ _______ _______ _____ _____    ______ ____
ROOT
ATOM      4  O   UNL     1      13.363   7.472  17.457  0.00  0.00    -0.370 OA
ATOM      5  O   UNL     1      13.417   8.607  20.389  0.00  0.00    -0.370 OA
ATOM     16  C   UNL     1      14.009   9.026  19.146  0.00  0.00    +0.176 C 
ATOM     17  C   UNL     1      14.409   7.771  18.394  0.00  0.00    +0.171 C 
ATOM     18  C   UNL     1      12.957   9.680  18.269  0.00  0.00    +0.171 C 
ATOM     19  C   UNL     1      14.476   6.702  19.462  0.00  0.00    +0.130 C 
ATOM     20  C   UNL     1      12.365   8.501  17.505  0.00  0.00    +0.190 C 
ATOM     21  C   UNL     1      13.435   7.174  20.459  0.00  0.00    +0.185 C 
ENDROOT
BRANCH  18   8
ATOM      8  N   UNL     1      13.510  10.749  17.431  0.00  0.00    -0.187 N 
ATOM     10  N   UNL     1      13.561  10.621  16.103  0.00  0.00    -0.041 NA
ATOM     11  N   UNL     1      14.401  12.588  16.730  0.00  0.00    -0.071 NA
ATOM     12  N   UNL     1      14.108  11.752  15.677  0.00  0.00    -0.020 NA
ATOM     22  C   UNL     1      14.019  11.943  17.810  0.00  0.00    +0.342 A 
BRANCH  22   6
ATOM      6  O   UNL     1      14.111  12.368  19.056  0.00  0.00    -0.423 OA
BRANCH   6  27
ATOM     27  C   UNL     1      13.036  12.923  19.738  0.00  0.00    +0.132 A 
ATOM     31  C   UNL     1      12.558  14.159  19.343  0.00  0.00    +0.048 A 
ATOM     32  C   UNL     1      12.477  12.225  20.790  0.00  0.00    +0.048 A 
ATOM     33  C   UNL     1      11.479  14.716  20.030  0.00  0.00    +0.031 A 
ATOM     34  C   UNL     1      11.398  12.782  21.475  0.00  0.00    +0.031 A 
ATOM     36  C   UNL     1      10.899  14.029  21.095  0.00  0.00    +0.067 A 
BRANCH  36  13
ATOM     13  N   UNL     1       9.829  14.581  21.776  0.00  0.00    -0.220 N 
ATOM     14  N   UNL     1       8.667  14.870  21.164  0.00  0.00    -0.154 NA
ATOM     15  N   UNL     1       8.594  15.409  23.386  0.00  0.00    -0.222 NA
ATOM     37  C   UNL     1       9.773  14.908  23.099  0.00  0.00    +0.225 A 
ATOM     38  C   UNL     1       7.957  15.366  22.180  0.00  0.00    +0.245 A 
ENDBRANCH  36  13
ENDBRANCH   6  27
ENDBRANCH  22   6
ENDBRANCH  18   8
BRANCH  19   9
ATOM      7  O   UNL     1      16.841   5.545  18.316  0.00  0.00    -0.270 OA
ATOM      9  N   UNL     1      15.787   6.645  20.063  0.00  0.00    -0.304 N 
ATOM     23  C   UNL     1      16.874   6.062  19.428  0.00  0.00    +0.244 C 
ATOM     39  H   UNL     1      15.860   6.949  21.029  0.00  0.00    +0.149 HD
BRANCH  23  24
ATOM     24  C   UNL     1      18.149   6.062  20.191  0.00  0.00    +0.037 A 
ATOM     25  C   UNL     1      18.287   6.923  21.260  0.00  0.00    +0.013 A 
ATOM     26  C   UNL     1      19.154   5.198  19.807  0.00  0.00    +0.013 A 
ATOM     28  C   UNL     1      19.483   6.921  21.977  0.00  0.00    +0.013 A 
ATOM     29  C   UNL     1      20.351   5.196  20.525  0.00  0.00    +0.013 A 
ATOM     30  C   UNL     1      20.515   6.058  21.610  0.00  0.00    +0.055 A 
BRANCH  30  35
ATOM      1  F   UNL     1      22.787   5.333  21.782  0.00  0.00    -0.166 F 
ATOM      2  F   UNL     1      21.678   5.539  23.634  0.00  0.00    -0.166 F 
ATOM      3  F   UNL     1      22.306   7.312  22.544  0.00  0.00    -0.166 F 
ATOM     35  C   UNL     1      21.794   6.058  22.377  0.00  0.00    +0.417 C 
ENDBRANCH  30  35
ENDBRANCH  23  24
ENDBRANCH  19   9
TORSDOF 7
ENDMDL
MODEL 2
REMARK VINA RESULT:      -7.7     27.028     30.985
REMARK  Name = 11886251
REMARK  7 active torsions:
REMARK  status: ('A' for Active; 'I' for Inactive)
REMARK    1  A    between atoms: O_6  and  C_22
REMARK    2  A    between atoms: O_6  and  C_27
REMARK    3  A    between atoms: N_8  and  C_18
REMARK    4  A    between atoms: N_9  and  C_19
REMARK    5  A    between atoms: N_13  and  C_36
REMARK    6  A    between atoms: C_23  and  C_24
REMARK    7  A    between atoms: C_30  and  C_35
REMARK                            x       y       z     vdW  Elec       q    Type
REMARK                         _______ _______ _______ _____ _____    ______ ____
ROOT
ATOM      4  O   UNL     1     -15.253   4.330  22.801  0.00  0.00    -0.370 OA
ATOM      5  O   UNL     1     -17.784   4.840  24.596  0.00  0.00    -0.370 OA
ATOM     16  C   UNL     1     -16.535   5.532  24.412  0.00  0.00    +0.176 C 
ATOM     17  C   UNL     1     -15.464   4.477  24.214  0.00  0.00    +0.171 C 
ATOM     18  C   UNL     1     -16.562   6.304  23.106  0.00  0.00    +0.171 C 
ATOM     19  C   UNL     1     -16.071   3.216  24.787  0.00  0.00    +0.130 C 
ATOM     20  C   UNL     1     -16.060   5.281  22.093  0.00  0.00    +0.190 C 
ATOM     21  C   UNL     1     -17.552   3.426  24.535  0.00  0.00    +0.185 C 
ENDROOT
BRANCH  18   8
ATOM      8  N   UNL     1     -15.785   7.545  23.171  0.00  0.00    -0.187 N 
ATOM     10  N   UNL     1     -16.240   8.605  23.845  0.00  0.00    -0.041 NA
ATOM     11  N   UNL     1     -14.259   9.055  22.929  0.00  0.00    -0.071 NA
ATOM     12  N   UNL     1     -15.300   9.529  23.695  0.00  0.00    -0.020 NA
ATOM     22  C   UNL     1     -14.582   7.821  22.616  0.00  0.00    +0.342 A 
BRANCH  22   6
ATOM      6  O   UNL     1     -13.872   6.981  21.887  0.00  0.00    -0.423 OA
BRANCH   6  27
ATOM     27  C   UNL     1     -13.368   7.316  20.638  0.00  0.00    +0.132 A 
ATOM     31  C   UNL     1     -12.007   7.217  20.416  0.00  0.00    +0.048 A 
ATOM     32  C   UNL     1     -14.240   7.741  19.654  0.00  0.00    +0.048 A 
ATOM     33  C   UNL     1     -11.501   7.556  19.161  0.00  0.00    +0.031 A 
ATOM     34  C   UNL     1     -13.733   8.078  18.400  0.00  0.00    +0.031 A 
ATOM     36  C   UNL     1     -12.362   7.986  18.153  0.00  0.00    +0.067 A 
BRANCH  36  13
ATOM     13  N   UNL     1     -11.860   8.321  16.909  0.00  0.00    -0.220 N 
ATOM     14  N   UNL     1     -12.663   8.564  15.857  0.00  0.00    -0.154 NA
ATOM     15  N   UNL     1     -10.457   8.783  15.290  0.00  0.00    -0.222 NA
ATOM     37  C   UNL     1     -10.549   8.454  16.557  0.00  0.00    +0.225 A 
ATOM     38  C   UNL     1     -11.767   8.838  14.906  0.00  0.00    +0.245 A 
ENDBRANCH  36  13
ENDBRANCH   6  27
ENDBRANCH  22   6
ENDBRANCH  18   8
BRANCH  19   9
ATOM      7  O   UNL     1     -16.635   0.953  26.462  0.00  0.00    -0.270 OA
ATOM      9  N   UNL     1     -15.793   3.097  26.198  0.00  0.00    -0.304 N 
ATOM     23  C   UNL     1     -16.104   1.957  26.926  0.00  0.00    +0.244 C 
ATOM     39  H   UNL     1     -15.461   3.932  26.671  0.00  0.00    +0.149 HD
BRANCH  23  24
ATOM     24  C   UNL     1     -15.778   2.002  28.375  0.00  0.00    +0.037 A 
ATOM     25  C   UNL     1     -15.810   0.831  29.102  0.00  0.00    +0.013 A 
ATOM     26  C   UNL     1     -15.452   3.215  28.947  0.00  0.00    +0.013 A 
ATOM     28  C   UNL     1     -15.502   0.873  30.462  0.00  0.00    +0.013 A 
ATOM     29  C   UNL     1     -15.144   3.258  30.307  0.00  0.00    +0.013 A 
ATOM     30  C   UNL     1     -15.169   2.086  31.064  0.00  0.00    +0.055 A 
BRANCH  30  35
ATOM      1  F   UNL     1     -13.566   2.545  32.779  0.00  0.00    -0.166 F 
ATOM      2  F   UNL     1     -14.957   0.922  33.143  0.00  0.00    -0.166 F 
ATOM      3  F   UNL     1     -15.651   2.981  33.213  0.00  0.00    -0.166 F 
ATOM     35  C   UNL     1     -14.841   2.130  32.518  0.00  0.00    +0.417 C 
ENDBRANCH  30  35
ENDBRANCH  23  24
ENDBRANCH  19   9
TORSDOF 7
ENDMDL
MODEL 3
REMARK VINA RESULT:      -7.7     29.653     32.370
REMARK  Name = 11886251
REMARK  7 active torsions:
REMARK  status: ('A' for Active; 'I' for Inactive)
REMARK    1  A    between atoms: O_6  and  C_22
REMARK    2  A    between atoms: O_6  and  C_27
REMARK    3  A    between atoms: N_8  and  C_18
REMARK    4  A    between atoms: N_9  and  C_19
REMARK    5  A    between atoms: N_13  and  C_36
REMARK    6  A    between atoms: C_23  and  C_24
REMARK    7  A    between atoms: C_30  and  C_35
REMARK                            x       y       z     vdW  Elec       q    Type
REMARK                         _______ _______ _______ _____ _____    ______ ____
ROOT
ATOM      4  O   UNL     1     -13.926   2.449  33.628  0.00  0.00    -0.370 OA
ATOM      5  O   UNL     1     -16.206   4.067  32.188  0.00  0.00    -0.370 OA
ATOM     16  C   UNL     1     -15.110   3.259  31.723  0.00  0.00    +0.176 C 
ATOM     17  C   UNL     1     -13.942   3.508  32.658  0.00  0.00    +0.171 C 
ATOM     18  C   UNL     1     -15.441   1.789  31.903  0.00  0.00    +0.171 C 
ATOM     19  C   UNL     1     -14.271   4.825  33.325  0.00  0.00    +0.130 C 
ATOM     20  C   UNL     1     -14.957   1.500  33.320  0.00  0.00    +0.190 C 
ATOM     21  C   UNL     1     -15.788   4.807  33.343  0.00  0.00    +0.185 C 
ENDROOT
BRANCH  18   8
ATOM      8  N   UNL     1     -14.846   0.947  30.861  0.00  0.00    -0.187 N 
ATOM     10  N   UNL     1     -13.688   0.315  31.067  0.00  0.00    -0.041 NA
ATOM     11  N   UNL     1     -14.461  -0.121  29.023  0.00  0.00    -0.071 NA
ATOM     12  N   UNL     1     -13.456  -0.340  29.936  0.00  0.00    -0.020 NA
ATOM     22  C   UNL     1     -15.314   0.681  29.620  0.00  0.00    +0.342 A 
BRANCH  22   6
ATOM      6  O   UNL     1     -16.436   1.157  29.113  0.00  0.00    -0.423 OA
BRANCH   6  27
ATOM     27  C   UNL     1     -16.506   1.715  27.843  0.00  0.00    +0.132 A 
ATOM     31  C   UNL     1     -16.083   3.019  27.661  0.00  0.00    +0.048 A 
ATOM     32  C   UNL     1     -16.996   0.952  26.801  0.00  0.00    +0.048 A 
ATOM     33  C   UNL     1     -16.156   3.580  26.385  0.00  0.00    +0.031 A 
ATOM     34  C   UNL     1     -17.067   1.514  25.527  0.00  0.00    +0.031 A 
ATOM     36  C   UNL     1     -16.647   2.828  25.319  0.00  0.00    +0.067 A 
BRANCH  36  13
ATOM     13  N   UNL     1     -16.718   3.384  24.055  0.00  0.00    -0.220 N 
ATOM     14  N   UNL     1     -16.129   4.556  23.756  0.00  0.00    -0.154 NA
ATOM     15  N   UNL     1     -17.207   3.679  21.938  0.00  0.00    -0.222 NA
ATOM     37  C   UNL     1     -17.358   2.873  22.963  0.00  0.00    +0.225 A 
ATOM     38  C   UNL     1     -16.454   4.688  22.468  0.00  0.00    +0.245 A 
ENDBRANCH  36  13
ENDBRANCH   6  27
ENDBRANCH  22   6
ENDBRANCH  18   8
BRANCH  19   9
ATOM      7  O   UNL     1     -13.623   7.440  34.318  0.00  0.00    -0.270 OA
ATOM      9  N   UNL     1     -13.771   5.939  32.557  0.00  0.00    -0.304 N 
ATOM     23  C   UNL     1     -13.485   7.171  33.128  0.00  0.00    +0.244 C 
ATOM     39  H   UNL     1     -13.743   5.824  31.548  0.00  0.00    +0.149 HD
BRANCH  23  24
ATOM     24  C   UNL     1     -13.002   8.223  32.197  0.00  0.00    +0.037 A 
ATOM     25  C   UNL     1     -13.926   8.946  31.471  0.00  0.00    +0.013 A 
ATOM     26  C   UNL     1     -11.644   8.444  32.089  0.00  0.00    +0.013 A 
ATOM     28  C   UNL     1     -13.472   9.935  30.598  0.00  0.00    +0.013 A 
ATOM     29  C   UNL     1     -11.191   9.433  31.216  0.00  0.00    +0.013 A 
ATOM     30  C   UNL     1     -12.106  10.179  30.471  0.00  0.00    +0.055 A 
BRANCH  30  35
ATOM      1  F   UNL     1     -11.377  10.779  28.273  0.00  0.00    -0.166 F 
ATOM      2  F   UNL     1     -10.456  11.826  29.934  0.00  0.00    -0.166 F 
ATOM      3  F   UNL     1     -12.516  12.256  29.389  0.00  0.00    -0.166 F 
ATOM     35  C   UNL     1     -11.621  11.236  29.537  0.00  0.00    +0.417 C 
ENDBRANCH  30  35
ENDBRANCH  23  24
ENDBRANCH  19   9
TORSDOF 7
ENDMDL
MODEL 4
REMARK VINA RESULT:      -7.7      4.841      6.288
REMARK  Name = 11886251
REMARK  7 active torsions:
REMARK  status: ('A' for Active; 'I' for Inactive)
REMARK    1  A    between atoms: O_6  and  C_22
REMARK    2  A    between atoms: O_6  and  C_27
REMARK    3  A    between atoms: N_8  and  C_18
REMARK    4  A    between atoms: N_9  and  C_19
REMARK    5  A    between atoms: N_13  and  C_36
REMARK    6  A    between atoms: C_23  and  C_24
REMARK    7  A    between atoms: C_30  and  C_35
REMARK                            x       y       z     vdW  Elec       q    Type
REMARK                         _______ _______ _______ _____ _____    ______ ____
ROOT
ATOM      4  O   UNL     1      12.646   8.495  15.814  0.00  0.00    -0.370 OA
ATOM      5  O   UNL     1      13.838  10.347  18.059  0.00  0.00    -0.370 OA
ATOM     16  C   UNL     1      14.227  10.038  16.708  0.00  0.00    +0.176 C 
ATOM     17  C   UNL     1      13.918   8.572  16.476  0.00  0.00    +0.171 C 
ATOM     18  C   UNL     1      13.333  10.781  15.732  0.00  0.00    +0.171 C 
ATOM     19  C   UNL     1      13.822   7.986  17.867  0.00  0.00    +0.130 C 
ATOM     20  C   UNL     1      12.167   9.818  15.537  0.00  0.00    +0.190 C 
ATOM     21  C   UNL     1      13.317   9.163  18.680  0.00  0.00    +0.185 C 
ENDROOT
BRANCH  18   8
ATOM      8  N   UNL     1      14.036  11.161  14.503  0.00  0.00    -0.187 N 
ATOM     10  N   UNL     1      15.094  10.466  14.075  0.00  0.00    -0.041 NA
ATOM     11  N   UNL     1      14.654  12.153  12.687  0.00  0.00    -0.071 NA
ATOM     12  N   UNL     1      15.469  11.078  12.960  0.00  0.00    -0.020 NA
ATOM     22  C   UNL     1      13.771  12.184  13.659  0.00  0.00    +0.342 A 
BRANCH  22   6
ATOM      6  O   UNL     1      12.790  13.054  13.806  0.00  0.00    -0.423 OA
BRANCH   6  27
ATOM     27  C   UNL     1      11.735  13.150  12.908  0.00  0.00    +0.132 A 
ATOM     31  C   UNL     1      11.625  14.282  12.122  0.00  0.00    +0.048 A 
ATOM     32  C   UNL     1      10.826  12.113  12.828  0.00  0.00    +0.048 A 
ATOM     33  C   UNL     1      10.563  14.379  11.222  0.00  0.00    +0.031 A 
ATOM     34  C   UNL     1       9.766  12.211  11.928  0.00  0.00    +0.031 A 
ATOM     36  C   UNL     1       9.634  13.344  11.124  0.00  0.00    +0.067 A 
BRANCH  36  13
ATOM     13  N   UNL     1       8.583  13.440  10.232  0.00  0.00    -0.220 N 
ATOM     14  N   UNL     1       7.302  13.301  10.619  0.00  0.00    -0.154 NA
ATOM     15  N   UNL     1       7.452  13.700   8.372  0.00  0.00    -0.222 NA
ATOM     37  C   UNL     1       8.658  13.676   8.890  0.00  0.00    +0.225 A 
ATOM     38  C   UNL     1       6.661  13.466   9.460  0.00  0.00    +0.245 A 
ENDBRANCH  36  13
ENDBRANCH   6  27
ENDBRANCH  22   6
ENDBRANCH  18   8
BRANCH  19   9
ATOM      7  O   UNL     1      14.359   6.532  20.284  0.00  0.00    -0.270 OA
ATOM      9  N   UNL     1      15.111   7.541  18.336  0.00  0.00    -0.304 N 
ATOM     23  C   UNL     1      15.272   6.841  19.523  0.00  0.00    +0.244 C 
ATOM     39  H   UNL     1      15.923   7.861  17.817  0.00  0.00    +0.149 HD
BRANCH  23  24
ATOM     24  C   UNL     1      16.668   6.477  19.880  0.00  0.00    +0.037 A 
ATOM     25  C   UNL     1      17.210   6.975  21.046  0.00  0.00    +0.013 A 
ATOM     26  C   UNL     1      17.377   5.651  19.032  0.00  0.00    +0.013 A 
ATOM     28  C   UNL     1      18.519   6.632  21.381  0.00  0.00    +0.013 A 
ATOM     29  C   UNL     1      18.687   5.307  19.367  0.00  0.00    +0.013 A 
ATOM     30  C   UNL     1      19.259   5.798  20.542  0.00  0.00    +0.055 A 
BRANCH  30  35
ATOM      1  F   UNL     1      20.904   5.458  22.243  0.00  0.00    -0.166 F 
ATOM      2  F   UNL     1      21.598   6.258  20.350  0.00  0.00    -0.166 F 
ATOM      3  F   UNL     1      20.993   4.174  20.492  0.00  0.00    -0.166 F 
ATOM     35  C   UNL     1      20.659   5.432  20.900  0.00  0.00    +0.417 C 
ENDBRANCH  30  35
ENDBRANCH  23  24
ENDBRANCH  19   9
TORSDOF 7
ENDMDL
MODEL 5
REMARK VINA RESULT:      -7.5     29.267     32.227
REMARK  Name = 11886251
REMARK  7 active torsions:
REMARK  status: ('A' for Active; 'I' for Inactive)
REMARK    1  A    between atoms: O_6  and  C_22
REMARK    2  A    between atoms: O_6  and  C_27
REMARK    3  A    between atoms: N_8  and  C_18
REMARK    4  A    between atoms: N_9  and  C_19
REMARK    5  A    between atoms: N_13  and  C_36
REMARK    6  A    between atoms: C_23  and  C_24
REMARK    7  A    between atoms: C_30  and  C_35
REMARK                            x       y       z     vdW  Elec       q    Type
REMARK                         _______ _______ _______ _____ _____    ______ ____
ROOT
ATOM      4  O   UNL     1     -17.562   3.646  28.598  0.00  0.00    -0.370 OA
ATOM      5  O   UNL     1     -17.171   1.863  26.037  0.00  0.00    -0.370 OA
ATOM     16  C   UNL     1     -16.325   2.214  27.147  0.00  0.00    +0.176 C 
ATOM     17  C   UNL     1     -16.631   3.656  27.505  0.00  0.00    +0.171 C 
ATOM     18  C   UNL     1     -16.729   1.419  28.375  0.00  0.00    +0.171 C 
ATOM     19  C   UNL     1     -17.286   4.218  26.263  0.00  0.00    +0.130 C 
ATOM     20  C   UNL     1     -17.803   2.294  29.012  0.00  0.00    +0.190 C 
ATOM     21  C   UNL     1     -17.972   2.997  25.679  0.00  0.00    +0.185 C 
ENDROOT
BRANCH  18   8
ATOM      8  N   UNL     1     -15.589   1.106  29.242  0.00  0.00    -0.187 N 
ATOM     10  N   UNL     1     -14.679   0.198  28.877  0.00  0.00    -0.041 NA
ATOM     11  N   UNL     1     -14.169   1.057  30.869  0.00  0.00    -0.071 NA
ATOM     12  N   UNL     1     -13.809   0.173  29.879  0.00  0.00    -0.020 NA
ATOM     22  C   UNL     1     -15.277   1.626  30.451  0.00  0.00    +0.342 A 
BRANCH  22   6
ATOM      6  O   UNL     1     -15.980   2.544  31.086  0.00  0.00    -0.423 OA
BRANCH   6  27
ATOM     27  C   UNL     1     -15.394   3.505  31.899  0.00  0.00    +0.132 A 
ATOM     31  C   UNL     1     -15.177   3.211  33.233  0.00  0.00    +0.048 A 
ATOM     32  C   UNL     1     -15.048   4.725  31.354  0.00  0.00    +0.048 A 
ATOM     33  C   UNL     1     -14.590   4.177  34.051  0.00  0.00    +0.031 A 
ATOM     34  C   UNL     1     -14.460   5.690  32.172  0.00  0.00    +0.031 A 
ATOM     36  C   UNL     1     -14.231   5.416  33.521  0.00  0.00    +0.067 A 
BRANCH  36  13
ATOM     13  N   UNL     1     -13.649   6.373  34.331  0.00  0.00    -0.220 N 
ATOM     14  N   UNL     1     -13.470   6.178  35.650  0.00  0.00    -0.154 NA
ATOM     15  N   UNL     1     -12.699   8.232  35.000  0.00  0.00    -0.222 NA
ATOM     37  C   UNL     1     -13.187   7.600  33.957  0.00  0.00    +0.225 A 
ATOM     38  C   UNL     1     -12.894   7.329  36.005  0.00  0.00    +0.245 A 
ENDBRANCH  36  13
ENDBRANCH   6  27
ENDBRANCH  22   6
ENDBRANCH  18   8
BRANCH  19   9
ATOM      7  O   UNL     1     -17.808   5.641  23.825  0.00  0.00    -0.270 OA
ATOM      9  N   UNL     1     -16.305   4.752  25.350  0.00  0.00    -0.304 N 
ATOM     23  C   UNL     1     -16.655   5.429  24.191  0.00  0.00    +0.244 C 
ATOM     39  H   UNL     1     -15.335   4.513  25.530  0.00  0.00    +0.149 HD
BRANCH  23  24
ATOM     24  C   UNL     1     -15.527   5.894  23.343  0.00  0.00    +0.037 A 
ATOM     25  C   UNL     1     -14.627   4.966  22.864  0.00  0.00    +0.013 A 
ATOM     26  C   UNL     1     -15.416   7.241  23.063  0.00  0.00    +0.013 A 
ATOM     28  C   UNL     1     -13.569   5.403  22.067  0.00  0.00    +0.013 A 
ATOM     29  C   UNL     1     -14.358   7.678  22.266  0.00  0.00    +0.013 A 
ATOM     30  C   UNL     1     -13.434   6.758  21.768  0.00  0.00    +0.055 A 
BRANCH  30  35
ATOM      1  F   UNL     1     -12.050   8.563  21.028  0.00  0.00    -0.166 F 
ATOM      2  F   UNL     1     -12.494   7.007  19.583  0.00  0.00    -0.166 F 
ATOM      3  F   UNL     1     -11.125   6.605  21.224  0.00  0.00    -0.166 F 
ATOM     35  C   UNL     1     -12.301   7.225  20.917  0.00  0.00    +0.417 C 
ENDBRANCH  30  35
ENDBRANCH  23  24
ENDBRANCH  19   9
TORSDOF 7
ENDMDL
MODEL 6
REMARK VINA RESULT:      -7.4     28.804     31.100
REMARK  Name = 11886251
REMARK  7 active torsions:
REMARK  status: ('A' for Active; 'I' for Inactive)
REMARK    1  A    between atoms: O_6  and  C_22
REMARK    2  A    between atoms: O_6  and  C_27
REMARK    3  A    between atoms: N_8  and  C_18
REMARK    4  A    between atoms: N_9  and  C_19
REMARK    5  A    between atoms: N_13  and  C_36
REMARK    6  A    between atoms: C_23  and  C_24
REMARK    7  A    between atoms: C_30  and  C_35
REMARK                            x       y       z     vdW  Elec       q    Type
REMARK                         _______ _______ _______ _____ _____    ______ ____
ROOT
ATOM      4  O   UNL     1      -4.869 -10.668  18.421  0.00  0.00    -0.370 OA
ATOM      5  O   UNL     1      -6.620 -12.241  16.336  0.00  0.00    -0.370 OA
ATOM     16  C   UNL     1      -5.584 -11.249  16.222  0.00  0.00    +0.176 C 
ATOM     17  C   UNL     1      -5.767 -10.277  17.371  0.00  0.00    +0.171 C 
ATOM     18  C   UNL     1      -4.230 -11.887  16.469  0.00  0.00    +0.171 C 
ATOM     19  C   UNL     1      -7.202 -10.478  17.806  0.00  0.00    +0.130 C 
ATOM     20  C   UNL     1      -4.069 -11.775  17.981  0.00  0.00    +0.190 C 
ATOM     21  C   UNL     1      -7.438 -11.940  17.475  0.00  0.00    +0.185 C 
ENDROOT
BRANCH  18   8
ATOM      8  N   UNL     1      -3.162 -11.262  15.684  0.00  0.00    -0.187 N 
ATOM     10  N   UNL     1      -2.168 -10.600  16.282  0.00  0.00    -0.041 NA
ATOM     11  N   UNL     1      -1.906 -10.566  14.069  0.00  0.00    -0.071 NA
ATOM     12  N   UNL     1      -1.399 -10.176  15.287  0.00  0.00    -0.020 NA
ATOM     22  C   UNL     1      -3.001 -11.240  14.341  0.00  0.00    +0.342 A 
BRANCH  22   6
ATOM      6  O   UNL     1      -3.817 -11.804  13.470  0.00  0.00    -0.423 OA
BRANCH   6  27
ATOM     27  C   UNL     1      -4.619 -11.065  12.610  0.00  0.00    +0.132 A 
ATOM     31  C   UNL     1      -4.592 -11.352  11.257  0.00  0.00    +0.048 A 
ATOM     32  C   UNL     1      -5.418 -10.066  13.130  0.00  0.00    +0.048 A 
ATOM     33  C   UNL     1      -5.396 -10.608  10.393  0.00  0.00    +0.031 A 
ATOM     34  C   UNL     1      -6.223  -9.325  12.265  0.00  0.00    +0.031 A 
ATOM     36  C   UNL     1      -6.212  -9.596  10.896  0.00  0.00    +0.067 A 
BRANCH  36  13
ATOM     13  N   UNL     1      -7.010  -8.859  10.040  0.00  0.00    -0.220 N 
ATOM     14  N   UNL     1      -8.347  -8.814  10.173  0.00  0.00    -0.154 NA
ATOM     15  N   UNL     1      -7.644  -7.548   8.402  0.00  0.00    -0.222 NA
ATOM     37  C   UNL     1      -6.603  -8.102   8.981  0.00  0.00    +0.225 A 
ATOM     38  C   UNL     1      -8.681  -8.010   9.160  0.00  0.00    +0.245 A 
ENDBRANCH  36  13
ENDBRANCH   6  27
ENDBRANCH  22   6
ENDBRANCH  18   8
BRANCH  19   9
ATOM      7  O   UNL     1      -9.894  -9.783  18.523  0.00  0.00    -0.270 OA
ATOM      9  N   UNL     1      -8.097  -9.623  17.066  0.00  0.00    -0.304 N 
ATOM     23  C   UNL     1      -9.387  -9.344  17.494  0.00  0.00    +0.244 C 
ATOM     39  H   UNL     1      -7.786  -9.320  16.148  0.00  0.00    +0.149 HD
BRANCH  23  24
ATOM     24  C   UNL     1     -10.192  -8.467  16.605  0.00  0.00    +0.037 A 
ATOM     25  C   UNL     1     -10.602  -8.954  15.382  0.00  0.00    +0.013 A 
ATOM     26  C   UNL     1     -10.505  -7.193  17.033  0.00  0.00    +0.013 A 
ATOM     28  C   UNL     1     -11.359  -8.131  14.548  0.00  0.00    +0.013 A 
ATOM     29  C   UNL     1     -11.262  -6.370  16.199  0.00  0.00    +0.013 A 
ATOM     30  C   UNL     1     -11.689  -6.839  14.956  0.00  0.00    +0.055 A 
BRANCH  30  35
ATOM      1  F   UNL     1     -13.733  -5.661  14.564  0.00  0.00    -0.166 F 
ATOM      2  F   UNL     1     -12.732  -6.497  12.831  0.00  0.00    -0.166 F 
ATOM      3  F   UNL     1     -11.898  -4.756  13.831  0.00  0.00    -0.166 F 
ATOM     35  C   UNL     1     -12.498  -5.959  14.064  0.00  0.00    +0.417 C 
ENDBRANCH  30  35
ENDBRANCH  23  24
ENDBRANCH  19   9
TORSDOF 7
ENDMDL
MODEL 7
REMARK VINA RESULT:      -7.4     29.238     31.147
REMARK  Name = 11886251
REMARK  7 active torsions:
REMARK  status: ('A' for Active; 'I' for Inactive)
REMARK    1  A    between atoms: O_6  and  C_22
REMARK    2  A    between atoms: O_6  and  C_27
REMARK    3  A    between atoms: N_8  and  C_18
REMARK    4  A    between atoms: N_9  and  C_19
REMARK    5  A    between atoms: N_13  and  C_36
REMARK    6  A    between atoms: C_23  and  C_24
REMARK    7  A    between atoms: C_30  and  C_35
REMARK                            x       y       z     vdW  Elec       q    Type
REMARK                         _______ _______ _______ _____ _____    ______ ____
ROOT
ATOM      4  O   UNL     1     -11.384  -5.438   8.304  0.00  0.00    -0.370 OA
ATOM      5  O   UNL     1     -11.651  -8.168   9.843  0.00  0.00    -0.370 OA
ATOM     16  C   UNL     1     -11.351  -6.819  10.247  0.00  0.00    +0.176 C 
ATOM     17  C   UNL     1     -10.508  -6.199   9.149  0.00  0.00    +0.171 C 
ATOM     18  C   UNL     1     -12.623  -5.993  10.269  0.00  0.00    +0.171 C 
ATOM     19  C   UNL     1      -9.949  -7.385   8.393  0.00  0.00    +0.130 C 
ATOM     20  C   UNL     1     -12.714  -5.466   8.841  0.00  0.00    +0.190 C 
ATOM     21  C   UNL     1     -11.039  -8.424   8.571  0.00  0.00    +0.185 C 
ENDROOT
BRANCH  18   8
ATOM      8  N   UNL     1     -12.606  -4.962  11.311  0.00  0.00    -0.187 N 
ATOM     10  N   UNL     1     -12.404  -3.678  11.002  0.00  0.00    -0.041 NA
ATOM     11  N   UNL     1     -12.681  -3.918  13.200  0.00  0.00    -0.071 NA
ATOM     12  N   UNL     1     -12.451  -3.041  12.165  0.00  0.00    -0.020 NA
ATOM     22  C   UNL     1     -12.775  -5.105  12.645  0.00  0.00    +0.342 A 
BRANCH  22   6
ATOM      6  O   UNL     1     -12.992  -6.250  13.264  0.00  0.00    -0.423 OA
BRANCH   6  27
ATOM     27  C   UNL     1     -12.000  -6.920  13.968  0.00  0.00    +0.132 A 
ATOM     31  C   UNL     1     -11.337  -6.259  14.985  0.00  0.00    +0.048 A 
ATOM     32  C   UNL     1     -11.704  -8.226  13.630  0.00  0.00    +0.048 A 
ATOM     33  C   UNL     1     -10.340  -6.933  15.690  0.00  0.00    +0.031 A 
ATOM     34  C   UNL     1     -10.708  -8.899  14.336  0.00  0.00    +0.031 A 
ATOM     36  C   UNL     1     -10.025  -8.252  15.367  0.00  0.00    +0.067 A 
BRANCH  36  13
ATOM     13  N   UNL     1      -9.036  -8.919  16.066  0.00  0.00    -0.220 N 
ATOM     14  N   UNL     1      -8.844  -8.733  17.384  0.00  0.00    -0.154 NA
ATOM     15  N   UNL     1      -7.356 -10.247  16.533  0.00  0.00    -0.222 NA
ATOM     37  C   UNL     1      -8.142  -9.823  15.571  0.00  0.00    +0.225 A 
ATOM     38  C   UNL     1      -7.820  -9.557  17.616  0.00  0.00    +0.245 A 
ENDBRANCH  36  13
ENDBRANCH   6  27
ENDBRANCH  22   6
ENDBRANCH  18   8
BRANCH  19   9
ATOM      7  O   UNL     1      -7.722  -8.523   6.984  0.00  0.00    -0.270 OA
ATOM      9  N   UNL     1      -8.703  -7.831   8.967  0.00  0.00    -0.304 N 
ATOM     23  C   UNL     1      -7.679  -8.370   8.201  0.00  0.00    +0.244 C 
ATOM     39  H   UNL     1      -8.644  -7.841   9.981  0.00  0.00    +0.149 HD
BRANCH  23  24
ATOM     24  C   UNL     1      -6.470  -8.805   8.946  0.00  0.00    +0.037 A 
ATOM     25  C   UNL     1      -6.388  -8.539  10.297  0.00  0.00    +0.013 A 
ATOM     26  C   UNL     1      -5.468  -9.463   8.263  0.00  0.00    +0.013 A 
ATOM     28  C   UNL     1      -5.253  -8.950  10.997  0.00  0.00    +0.013 A 
ATOM     29  C   UNL     1      -4.333  -9.873   8.962  0.00  0.00    +0.013 A 
ATOM     30  C   UNL     1      -4.226  -9.616  10.330  0.00  0.00    +0.055 A 
BRANCH  30  35
ATOM      1  F   UNL     1      -1.904  -9.303  10.810  0.00  0.00    -0.166 F 
ATOM      2  F   UNL     1      -2.643 -11.342  10.817  0.00  0.00    -0.166 F 
ATOM      3  F   UNL     1      -3.179  -9.988  12.431  0.00  0.00    -0.166 F 
ATOM     35  C   UNL     1      -3.012 -10.054  11.078  0.00  0.00    +0.417 C 
ENDBRANCH  30  35
ENDBRANCH  23  24
ENDBRANCH  19   9
TORSDOF 7
ENDMDL
MODEL 8
REMARK VINA RESULT:      -7.4      3.161      4.098
REMARK  Name = 11886251
REMARK  7 active torsions:
REMARK  status: ('A' for Active; 'I' for Inactive)
REMARK    1  A    between atoms: O_6  and  C_22
REMARK    2  A    between atoms: O_6  and  C_27
REMARK    3  A    between atoms: N_8  and  C_18
REMARK    4  A    between atoms: N_9  and  C_19
REMARK    5  A    between atoms: N_13  and  C_36
REMARK    6  A    between atoms: C_23  and  C_24
REMARK    7  A    between atoms: C_30  and  C_35
REMARK                            x       y       z     vdW  Elec       q    Type
REMARK                         _______ _______ _______ _____ _____    ______ ____
ROOT
ATOM      4  O   UNL     1      13.236   7.416  17.202  0.00  0.00    -0.370 OA
ATOM      5  O   UNL     1      13.444   9.252  19.747  0.00  0.00    -0.370 OA
ATOM     16  C   UNL     1      14.068   9.270  18.450  0.00  0.00    +0.176 C 
ATOM     17  C   UNL     1      14.317   7.827  18.053  0.00  0.00    +0.171 C 
ATOM     18  C   UNL     1      13.089   9.791  17.414  0.00  0.00    +0.171 C 
ATOM     19  C   UNL     1      14.273   7.068  19.360  0.00  0.00    +0.130 C 
ATOM     20  C   UNL     1      12.362   8.528  16.965  0.00  0.00    +0.190 C 
ATOM     21  C   UNL     1      13.301   7.893  20.181  0.00  0.00    +0.185 C 
ENDROOT
BRANCH  18   8
ATOM      8  N   UNL     1      13.752  10.540  16.342  0.00  0.00    -0.187 N 
ATOM     10  N   UNL     1      14.000   9.970  15.159  0.00  0.00    -0.041 NA
ATOM     11  N   UNL     1      14.723  12.078  15.177  0.00  0.00    -0.071 NA
ATOM     12  N   UNL     1      14.595  10.918  14.447  0.00  0.00    -0.020 NA
ATOM     22  C   UNL     1      14.191  11.819  16.350  0.00  0.00    +0.342 A 
BRANCH  22   6
ATOM      6  O   UNL     1      14.095  12.648  17.372  0.00  0.00    -0.423 OA
BRANCH   6  27
ATOM     27  C   UNL     1      14.925  12.567  18.482  0.00  0.00    +0.132 A 
ATOM     31  C   UNL     1      14.378  12.732  19.741  0.00  0.00    +0.048 A 
ATOM     32  C   UNL     1      16.272  12.325  18.296  0.00  0.00    +0.048 A 
ATOM     33  C   UNL     1      15.213  12.652  20.856  0.00  0.00    +0.031 A 
ATOM     34  C   UNL     1      17.105  12.244  19.411  0.00  0.00    +0.031 A 
ATOM     36  C   UNL     1      16.575  12.408  20.692  0.00  0.00    +0.067 A 
BRANCH  36  13
ATOM     13  N   UNL     1      17.403  12.328  21.797  0.00  0.00    -0.220 N 
ATOM     14  N   UNL     1      18.721  12.084  21.686  0.00  0.00    -0.154 NA
ATOM     15  N   UNL     1      18.102  12.333  23.874  0.00  0.00    -0.222 NA
ATOM     37  C   UNL     1      17.047  12.474  23.106  0.00  0.00    +0.225 A 
ATOM     38  C   UNL     1      19.095  12.097  22.968  0.00  0.00    +0.245 A 
ENDBRANCH  36  13
ENDBRANCH   6  27
ENDBRANCH  22   6
ENDBRANCH  18   8
BRANCH  19   9
ATOM      7  O   UNL     1      16.558   5.585  18.451  0.00  0.00    -0.270 OA
ATOM      9  N   UNL     1      15.574   7.021  19.982  0.00  0.00    -0.304 N 
ATOM     23  C   UNL     1      16.622   6.272  19.467  0.00  0.00    +0.244 C 
ATOM     39  H   UNL     1      15.665   7.473  20.887  0.00  0.00    +0.149 HD
BRANCH  23  24
ATOM     24  C   UNL     1      17.890   6.310  20.239  0.00  0.00    +0.037 A 
ATOM     25  C   UNL     1      18.915   5.460  19.879  0.00  0.00    +0.013 A 
ATOM     26  C   UNL     1      18.003   7.195  21.292  0.00  0.00    +0.013 A 
ATOM     28  C   UNL     1      20.106   5.496  20.604  0.00  0.00    +0.013 A 
ATOM     29  C   UNL     1      19.194   7.231  22.016  0.00  0.00    +0.013 A 
ATOM     30  C   UNL     1      20.246   6.382  21.672  0.00  0.00    +0.055 A 
BRANCH  30  35
ATOM      1  F   UNL     1      21.731   5.305  23.207  0.00  0.00    -0.166 F 
ATOM      2  F   UNL     1      21.599   7.467  23.319  0.00  0.00    -0.166 F 
ATOM      3  F   UNL     1      22.619   6.528  21.644  0.00  0.00    -0.166 F 
ATOM     35  C   UNL     1      21.520   6.420  22.447  0.00  0.00    +0.417 C 
ENDBRANCH  30  35
ENDBRANCH  23  24
ENDBRANCH  19   9
TORSDOF 7
ENDMDL
MODEL 9
REMARK VINA RESULT:      -7.3     17.042     20.784
REMARK  Name = 11886251
REMARK  7 active torsions:
REMARK  status: ('A' for Active; 'I' for Inactive)
REMARK    1  A    between atoms: O_6  and  C_22
REMARK    2  A    between atoms: O_6  and  C_27
REMARK    3  A    between atoms: N_8  and  C_18
REMARK    4  A    between atoms: N_9  and  C_19
REMARK    5  A    between atoms: N_13  and  C_36
REMARK    6  A    between atoms: C_23  and  C_24
REMARK    7  A    between atoms: C_30  and  C_35
REMARK                            x       y       z     vdW  Elec       q    Type
REMARK                         _______ _______ _______ _____ _____    ______ ____
ROOT
ATOM      4  O   UNL     1       9.768   7.979   0.150  0.00  0.00    -0.370 OA
ATOM      5  O   UNL     1      12.499   7.224   1.514  0.00  0.00    -0.370 OA
ATOM     16  C   UNL     1      11.412   6.457   0.965  0.00  0.00    +0.176 C 
ATOM     17  C   UNL     1      10.130   7.195   1.297  0.00  0.00    +0.171 C 
ATOM     18  C   UNL     1      11.484   6.473  -0.551  0.00  0.00    +0.171 C 
ATOM     19  C   UNL     1      10.507   8.098   2.451  0.00  0.00    +0.130 C 
ATOM     20  C   UNL     1      10.691   7.722  -0.918  0.00  0.00    +0.190 C 
ATOM     21  C   UNL     1      11.970   8.383   2.173  0.00  0.00    +0.185 C 
ENDROOT
BRANCH  18   8
ATOM      8  N   UNL     1      10.994   5.228  -1.150  0.00  0.00    -0.187 N 
ATOM     10  N   UNL     1       9.910   5.223  -1.930  0.00  0.00    -0.041 NA
ATOM     11  N   UNL     1      10.744   3.165  -1.739  0.00  0.00    -0.071 NA
ATOM     12  N   UNL     1       9.761   3.954  -2.290  0.00  0.00    -0.020 NA
ATOM     22  C   UNL     1      11.499   3.979  -1.035  0.00  0.00    +0.342 A 
BRANCH  22   6
ATOM      6  O   UNL     1      12.566   3.653  -0.331  0.00  0.00    -0.423 OA
BRANCH   6  27
ATOM     27  C   UNL     1      13.854   3.997  -0.722  0.00  0.00    +0.132 A 
ATOM     31  C   UNL     1      14.858   4.018   0.228  0.00  0.00    +0.048 A 
ATOM     32  C   UNL     1      14.093   4.308  -2.046  0.00  0.00    +0.048 A 
ATOM     33  C   UNL     1      16.151   4.366  -0.164  0.00  0.00    +0.031 A 
ATOM     34  C   UNL     1      15.386   4.655  -2.437  0.00  0.00    +0.031 A 
ATOM     36  C   UNL     1      16.415   4.684  -1.495  0.00  0.00    +0.067 A 
BRANCH  36  13
ATOM     13  N   UNL     1      17.697   5.027  -1.884  0.00  0.00    -0.220 N 
ATOM     14  N   UNL     1      18.267   6.189  -1.517  0.00  0.00    -0.154 NA
ATOM     15  N   UNL     1      19.680   4.943  -2.815  0.00  0.00    -0.222 NA
ATOM     37  C   UNL     1      18.549   4.294  -2.658  0.00  0.00    +0.225 A 
ATOM     38  C   UNL     1      19.461   6.088  -2.105  0.00  0.00    +0.245 A 
ENDBRANCH  36  13
ENDBRANCH   6  27
ENDBRANCH  22   6
ENDBRANCH  18   8
BRANCH  19   9
ATOM      7  O   UNL     1       8.759   8.886   4.589  0.00  0.00    -0.270 OA
ATOM      9  N   UNL     1      10.336   7.427   3.717  0.00  0.00    -0.304 N 
ATOM     23  C   UNL     1       9.463   7.885   4.693  0.00  0.00    +0.244 C 
ATOM     39  H   UNL     1      10.971   6.660   3.917  0.00  0.00    +0.149 HD
BRANCH  23  24
ATOM     24  C   UNL     1       9.422   7.097   5.951  0.00  0.00    +0.037 A 
ATOM     25  C   UNL     1       9.005   7.715   7.112  0.00  0.00    +0.013 A 
ATOM     26  C   UNL     1       9.802   5.771   5.919  0.00  0.00    +0.013 A 
ATOM     28  C   UNL     1       8.965   6.974   8.293  0.00  0.00    +0.013 A 
ATOM     29  C   UNL     1       9.763   5.030   7.100  0.00  0.00    +0.013 A 
ATOM     30  C   UNL     1       9.344   5.631   8.287  0.00  0.00    +0.055 A 
BRANCH  30  35
ATOM      1  F   UNL     1       8.195   5.084  10.312  0.00  0.00    -0.166 F 
ATOM      2  F   UNL     1      10.362   5.074  10.378  0.00  0.00    -0.166 F 
ATOM      3  F   UNL     1       9.302   3.494   9.326  0.00  0.00    -0.166 F 
ATOM     35  C   UNL     1       9.302   4.840   9.550  0.00  0.00    +0.417 C 
ENDBRANCH  30  35
ENDBRANCH  23  24
ENDBRANCH  19   9
TORSDOF 7
ENDMDL
MODEL 10
REMARK VINA RESULT:      -7.3     22.103     25.485
REMARK  Name = 11886251
REMARK  7 active torsions:
REMARK  status: ('A' for Active; 'I' for Inactive)
REMARK    1  A    between atoms: O_6  and  C_22
REMARK    2  A    between atoms: O_6  and  C_27
REMARK    3  A    between atoms: N_8  and  C_18
REMARK    4  A    between atoms: N_9  and  C_19
REMARK    5  A    between atoms: N_13  and  C_36
REMARK    6  A    between atoms: C_23  and  C_24
REMARK    7  A    between atoms: C_30  and  C_35
REMARK                            x       y       z     vdW  Elec       q    Type
REMARK                         _______ _______ _______ _____ _____    ______ ____
ROOT
ATOM      4  O   UNL     1       8.336   7.381  -5.073  0.00  0.00    -0.370 OA
ATOM      5  O   UNL     1       6.654   7.112  -2.430  0.00  0.00    -0.370 OA
ATOM     16  C   UNL     1       7.636   6.282  -3.077  0.00  0.00    +0.176 C 
ATOM     17  C   UNL     1       7.411   6.404  -4.572  0.00  0.00    +0.171 C 
ATOM     18  C   UNL     1       9.024   6.851  -2.848  0.00  0.00    +0.171 C 
ATOM     19  C   UNL     1       5.992   6.914  -4.696  0.00  0.00    +0.130 C 
ATOM     20  C   UNL     1       9.190   7.825  -4.010  0.00  0.00    +0.190 C 
ATOM     21  C   UNL     1       5.831   7.732  -3.428  0.00  0.00    +0.185 C 
ENDROOT
BRANCH  18   8
ATOM      8  N   UNL     1      10.051   5.809  -2.760  0.00  0.00    -0.187 N 
ATOM     10  N   UNL     1      10.959   5.657  -3.729  0.00  0.00    -0.041 NA
ATOM     11  N   UNL     1      11.284   4.158  -2.112  0.00  0.00    -0.071 NA
ATOM     12  N   UNL     1      11.714   4.643  -3.325  0.00  0.00    -0.020 NA
ATOM     22  C   UNL     1      10.250   4.898  -1.780  0.00  0.00    +0.342 A 
BRANCH  22   6
ATOM      6  O   UNL     1       9.520   4.788  -0.687  0.00  0.00    -0.423 OA
BRANCH   6  27
ATOM     27  C   UNL     1       9.988   5.157   0.567  0.00  0.00    +0.132 A 
ATOM     31  C   UNL     1      10.466   4.178   1.418  0.00  0.00    +0.048 A 
ATOM     32  C   UNL     1       9.963   6.490   0.927  0.00  0.00    +0.048 A 
ATOM     33  C   UNL     1      10.935   4.549   2.679  0.00  0.00    +0.031 A 
ATOM     34  C   UNL     1      10.433   6.860   2.187  0.00  0.00    +0.031 A 
ATOM     36  C   UNL     1      10.919   5.889   3.063  0.00  0.00    +0.067 A 
BRANCH  36  13
ATOM     13  N   UNL     1      11.385   6.256   4.312  0.00  0.00    -0.220 N 
ATOM     14  N   UNL     1      10.805   5.824   5.446  0.00  0.00    -0.154 NA
ATOM     15  N   UNL     1      12.586   7.189   5.891  0.00  0.00    -0.222 NA
ATOM     37  C   UNL     1      12.444   7.069   4.591  0.00  0.00    +0.225 A 
ATOM     38  C   UNL     1      11.567   6.415   6.368  0.00  0.00    +0.245 A 
ENDBRANCH  36  13
ENDBRANCH   6  27
ENDBRANCH  22   6
ENDBRANCH  18   8
BRANCH  19   9
ATOM      7  O   UNL     1       3.257   7.050  -5.556  0.00  0.00    -0.270 OA
ATOM      9  N   UNL     1       5.047   5.825  -4.738  0.00  0.00    -0.304 N 
ATOM     23  C   UNL     1       3.739   5.989  -5.172  0.00  0.00    +0.244 C 
ATOM     39  H   UNL     1       5.343   4.946  -4.327  0.00  0.00    +0.149 HD
BRANCH  23  24
ATOM     24  C   UNL     1       2.884   4.775  -5.132  0.00  0.00    +0.037 A 
ATOM     25  C   UNL     1       1.701   4.817  -4.424  0.00  0.00    +0.013 A 
ATOM     26  C   UNL     1       3.300   3.645  -5.805  0.00  0.00    +0.013 A 
ATOM     28  C   UNL     1       0.898   3.677  -4.387  0.00  0.00    +0.013 A 
ATOM     29  C   UNL     1       2.496   2.505  -5.768  0.00  0.00    +0.013 A 
ATOM     30  C   UNL     1       1.295   2.521  -5.059  0.00  0.00    +0.055 A 
BRANCH  30  35
ATOM      1  F   UNL     1      -0.186   1.112  -3.817  0.00  0.00    -0.166 F 
ATOM      2  F   UNL     1       1.117   0.145  -5.257  0.00  0.00    -0.166 F 
ATOM      3  F   UNL     1      -0.566   1.337  -5.946  0.00  0.00    -0.166 F 
ATOM     35  C   UNL     1       0.435   1.303  -5.018  0.00  0.00    +0.417 C 
ENDBRANCH  30  35
ENDBRANCH  23  24
ENDBRANCH  19   9
TORSDOF 7
ENDMDL
