MODEL 1
REMARK VINA RESULT:      -5.9      0.000      0.000
REMARK  Name = 56775455
REMARK  11 active torsions:
REMARK  status: ('A' for Active; 'I' for Inactive)
REMARK    1  A    between atoms: O_6  and  C_26
REMARK    2  A    between atoms: O_6  and  C_27
REMARK    3  A    between atoms: N_7  and  C_9
REMARK    4  A    between atoms: N_7  and  C_14
REMARK    5  A    between atoms: C_9  and  C_12
REMARK    6  A    between atoms: C_12  and  C_13
REMARK    7  A    between atoms: C_14  and  C_18
REMARK    8  A    between atoms: C_15  and  C_17
REMARK    9  A    between atoms: C_15  and  C_19
REMARK   10  A    between atoms: C_15  and  C_20
REMARK   11  A    between atoms: C_15  and  C_21
REMARK                            x       y       z     vdW  Elec       q    Type
REMARK                         _______ _______ _______ _____ _____    ______ ____
ROOT
ATOM      7  N   UNL     1     -14.665   4.963  31.899  0.00  0.00    -0.302 NA
ATOM     28  H   UNL     1     -14.781   4.707  30.919  0.00  0.00    +0.123 HD
ENDROOT
BRANCH   7   9
ATOM      4  O   UNL     1     -15.509   7.123  33.960  0.00  0.00    -0.376 OA
ATOM      9  C   UNL     1     -15.828   5.584  32.516  0.00  0.00    +0.072 C 
ATOM     10  C   UNL     1     -15.593   5.682  34.019  0.00  0.00    +0.184 C 
ATOM     11  C   UNL     1     -15.634   7.097  32.520  0.00  0.00    +0.184 C 
BRANCH   9  12
ATOM     12  C   UNL     1     -17.156   5.006  32.008  0.00  0.00    +0.085 C 
BRANCH  12  13
ATOM      5  O   UNL     1     -16.557   4.699  28.501  0.00  0.00    -0.359 OA
ATOM      8  N   UNL     1     -16.507   5.401  29.700  0.00  0.00    -0.083 NA
ATOM     13  C   UNL     1     -17.047   4.580  30.604  0.00  0.00    +0.086 A 
ATOM     16  C   UNL     1     -17.453   3.357  30.040  0.00  0.00    +0.071 A 
ATOM     17  C   UNL     1     -17.122   3.483  28.717  0.00  0.00    +0.143 A 
BRANCH  17  15
ATOM     15  C   UNL     1     -17.260   2.563  27.493  0.00  0.00    +0.023 C 
ATOM     19  C   UNL     1     -18.668   2.577  26.856  0.00  0.00    +0.019 C 
ATOM     20  C   UNL     1     -16.960   1.105  27.903  0.00  0.00    +0.019 C 
ATOM     21  C   UNL     1     -16.261   2.999  26.400  0.00  0.00    +0.019 C 
ENDBRANCH  17  15
ENDBRANCH  12  13
ENDBRANCH   9  12
ENDBRANCH   7   9
BRANCH   7  14
ATOM     14  C   UNL     1     -14.262   3.790  32.673  0.00  0.00    +0.117 C 
BRANCH  14  18
ATOM     18  C   UNL     1     -14.295   2.535  31.844  0.00  0.00    -0.033 A 
ATOM     22  C   UNL     1     -13.792   2.544  30.542  0.00  0.00    +0.008 A 
ATOM     23  C   UNL     1     -14.829   1.362  32.376  0.00  0.00    +0.008 A 
ATOM     24  C   UNL     1     -13.822   1.381  29.774  0.00  0.00    +0.046 A 
ATOM     25  C   UNL     1     -14.859   0.197  31.608  0.00  0.00    +0.046 A 
ATOM     26  C   UNL     1     -14.356   0.207  30.307  0.00  0.00    +0.130 A 
BRANCH  26   6
ATOM      6  O   UNL     1     -14.385  -0.928  29.557  0.00  0.00    -0.406 OA
BRANCH   6  27
ATOM      1  F   UNL     1     -13.333  -2.837  28.968  0.00  0.00    -0.133 F 
ATOM      2  F   UNL     1     -12.698  -0.976  28.014  0.00  0.00    -0.133 F 
ATOM      3  F   UNL     1     -12.215  -1.365  30.136  0.00  0.00    -0.133 F 
ATOM     27  C   UNL     1     -13.146  -1.512  29.169  0.00  0.00    +0.575 C 
ENDBRANCH   6  27
ENDBRANCH  26   6
ENDBRANCH  14  18
ENDBRANCH   7  14
TORSDOF 8
ENDMDL
MODEL 2
REMARK VINA RESULT:      -5.7     17.831     20.681
REMARK  Name = 56775455
REMARK  11 active torsions:
REMARK  status: ('A' for Active; 'I' for Inactive)
REMARK    1  A    between atoms: O_6  and  C_26
REMARK    2  A    between atoms: O_6  and  C_27
REMARK    3  A    between atoms: N_7  and  C_9
REMARK    4  A    between atoms: N_7  and  C_14
REMARK    5  A    between atoms: C_9  and  C_12
REMARK    6  A    between atoms: C_12  and  C_13
REMARK    7  A    between atoms: C_14  and  C_18
REMARK    8  A    between atoms: C_15  and  C_17
REMARK    9  A    between atoms: C_15  and  C_19
REMARK   10  A    between atoms: C_15  and  C_20
REMARK   11  A    between atoms: C_15  and  C_21
REMARK                            x       y       z     vdW  Elec       q    Type
REMARK                         _______ _______ _______ _____ _____    ______ ____
ROOT
ATOM      7  N   UNL     1      -5.338 -10.159  16.873  0.00  0.00    -0.302 NA
ATOM     28  H   UNL     1      -5.916  -9.876  17.663  0.00  0.00    +0.123 HD
ENDROOT
BRANCH   7   9
ATOM      4  O   UNL     1      -3.144 -11.926  15.572  0.00  0.00    -0.376 OA
ATOM      9  C   UNL     1      -4.479 -11.309  17.119  0.00  0.00    +0.072 C 
ATOM     10  C   UNL     1      -4.520 -12.221  15.899  0.00  0.00    +0.184 C 
ATOM     11  C   UNL     1      -3.065 -10.973  16.657  0.00  0.00    +0.184 C 
BRANCH   9  12
ATOM     12  C   UNL     1      -4.682 -11.921  18.512  0.00  0.00    +0.085 C 
BRANCH  12  13
ATOM      5  O   UNL     1      -7.660 -10.779  20.119  0.00  0.00    -0.359 OA
ATOM      8  N   UNL     1      -6.291 -10.721  19.882  0.00  0.00    -0.083 NA
ATOM     13  C   UNL     1      -6.052 -11.693  18.997  0.00  0.00    +0.086 A 
ATOM     16  C   UNL     1      -7.220 -12.391  18.643  0.00  0.00    +0.071 A 
ATOM     17  C   UNL     1      -8.202 -11.777  19.375  0.00  0.00    +0.143 A 
BRANCH  17  15
ATOM     15  C   UNL     1      -9.718 -11.990  19.511  0.00  0.00    +0.023 C 
ATOM     19  C   UNL     1     -10.436 -12.253  18.167  0.00  0.00    +0.019 C 
ATOM     20  C   UNL     1     -10.365 -10.733  20.134  0.00  0.00    +0.019 C 
ATOM     21  C   UNL     1      -9.993 -13.206  20.421  0.00  0.00    +0.019 C 
ENDBRANCH  17  15
ENDBRANCH  12  13
ENDBRANCH   9  12
ENDBRANCH   7   9
BRANCH   7  14
ATOM     14  C   UNL     1      -6.183 -10.414  15.708  0.00  0.00    +0.117 C 
BRANCH  14  18
ATOM     18  C   UNL     1      -7.505  -9.702  15.809  0.00  0.00    -0.033 A 
ATOM     22  C   UNL     1      -7.870  -9.072  16.999  0.00  0.00    +0.008 A 
ATOM     23  C   UNL     1      -8.367  -9.673  14.713  0.00  0.00    +0.008 A 
ATOM     24  C   UNL     1      -9.095  -8.413  17.093  0.00  0.00    +0.046 A 
ATOM     25  C   UNL     1      -9.592  -9.013  14.806  0.00  0.00    +0.046 A 
ATOM     26  C   UNL     1      -9.957  -8.383  15.996  0.00  0.00    +0.130 A 
BRANCH  26   6
ATOM      6  O   UNL     1     -11.152  -7.739  16.087  0.00  0.00    -0.406 OA
BRANCH   6  27
ATOM      1  F   UNL     1     -11.264  -5.735  17.119  0.00  0.00    -0.133 F 
ATOM      2  F   UNL     1     -10.037  -5.896  15.319  0.00  0.00    -0.133 F 
ATOM      3  F   UNL     1     -12.242  -5.946  15.175  0.00  0.00    -0.133 F 
ATOM     27  C   UNL     1     -11.173  -6.327  15.907  0.00  0.00    +0.575 C 
ENDBRANCH   6  27
ENDBRANCH  26   6
ENDBRANCH  14  18
ENDBRANCH   7  14
TORSDOF 8
ENDMDL
MODEL 3
REMARK VINA RESULT:      -5.6      3.544      6.747
REMARK  Name = 56775455
REMARK  11 active torsions:
REMARK  status: ('A' for Active; 'I' for Inactive)
REMARK    1  A    between atoms: O_6  and  C_26
REMARK    2  A    between atoms: O_6  and  C_27
REMARK    3  A    between atoms: N_7  and  C_9
REMARK    4  A    between atoms: N_7  and  C_14
REMARK    5  A    between atoms: C_9  and  C_12
REMARK    6  A    between atoms: C_12  and  C_13
REMARK    7  A    between atoms: C_14  and  C_18
REMARK    8  A    between atoms: C_15  and  C_17
REMARK    9  A    between atoms: C_15  and  C_19
REMARK   10  A    between atoms: C_15  and  C_20
REMARK   11  A    between atoms: C_15  and  C_21
REMARK                            x       y       z     vdW  Elec       q    Type
REMARK                         _______ _______ _______ _____ _____    ______ ____
ROOT
ATOM      7  N   UNL     1     -15.216   2.099  30.044  0.00  0.00    -0.302 NA
ATOM     28  H   UNL     1     -15.236   2.985  30.549  0.00  0.00    +0.123 HD
ENDROOT
BRANCH   7   9
ATOM      4  O   UNL     1     -14.591  -0.934  29.855  0.00  0.00    -0.376 OA
ATOM      9  C   UNL     1     -14.822   0.945  30.840  0.00  0.00    +0.072 C 
ATOM     10  C   UNL     1     -15.704  -0.238  30.459  0.00  0.00    +0.184 C 
ATOM     11  C   UNL     1     -13.720   0.193  30.102  0.00  0.00    +0.184 C 
BRANCH   9  12
ATOM     12  C   UNL     1     -14.629   1.280  32.325  0.00  0.00    +0.085 C 
BRANCH  12  13
ATOM      5  O   UNL     1     -13.104   4.509  32.259  0.00  0.00    -0.359 OA
ATOM      8  N   UNL     1     -13.175   3.175  31.874  0.00  0.00    -0.083 NA
ATOM     13  C   UNL     1     -14.247   2.689  32.507  0.00  0.00    +0.086 A 
ATOM     16  C   UNL     1     -14.886   3.660  33.297  0.00  0.00    +0.071 A 
ATOM     17  C   UNL     1     -14.129   4.786  33.106  0.00  0.00    +0.143 A 
BRANCH  17  15
ATOM     15  C   UNL     1     -14.210   6.226  33.637  0.00  0.00    +0.023 C 
ATOM     19  C   UNL     1     -13.725   6.383  35.097  0.00  0.00    +0.019 C 
ATOM     20  C   UNL     1     -15.673   6.717  33.589  0.00  0.00    +0.019 C 
ATOM     21  C   UNL     1     -13.335   7.152  32.765  0.00  0.00    +0.019 C 
ENDBRANCH  17  15
ENDBRANCH  12  13
ENDBRANCH   9  12
ENDBRANCH   7   9
BRANCH   7  14
ATOM     14  C   UNL     1     -16.517   1.852  29.426  0.00  0.00    +0.117 C 
BRANCH  14  18
ATOM     18  C   UNL     1     -16.468   2.027  27.932  0.00  0.00    -0.033 A 
ATOM     22  C   UNL     1     -16.730   0.943  27.093  0.00  0.00    +0.008 A 
ATOM     23  C   UNL     1     -16.160   3.272  27.385  0.00  0.00    +0.008 A 
ATOM     24  C   UNL     1     -16.685   1.105  25.709  0.00  0.00    +0.046 A 
ATOM     25  C   UNL     1     -16.115   3.435  26.001  0.00  0.00    +0.046 A 
ATOM     26  C   UNL     1     -16.378   2.352  25.162  0.00  0.00    +0.130 A 
BRANCH  26   6
ATOM      6  O   UNL     1     -16.334   2.510  23.811  0.00  0.00    -0.406 OA
BRANCH   6  27
ATOM      1  F   UNL     1     -17.735   1.230  22.589  0.00  0.00    -0.133 F 
ATOM      2  F   UNL     1     -18.607   2.750  23.895  0.00  0.00    -0.133 F 
ATOM      3  F   UNL     1     -17.538   3.340  22.052  0.00  0.00    -0.133 F 
ATOM     27  C   UNL     1     -17.560   2.475  23.088  0.00  0.00    +0.575 C 
ENDBRANCH   6  27
ENDBRANCH  26   6
ENDBRANCH  14  18
ENDBRANCH   7  14
TORSDOF 8
ENDMDL
MODEL 4
REMARK VINA RESULT:      -5.5     36.658     38.657
REMARK  Name = 56775455
REMARK  11 active torsions:
REMARK  status: ('A' for Active; 'I' for Inactive)
REMARK    1  A    between atoms: O_6  and  C_26
REMARK    2  A    between atoms: O_6  and  C_27
REMARK    3  A    between atoms: N_7  and  C_9
REMARK    4  A    between atoms: N_7  and  C_14
REMARK    5  A    between atoms: C_9  and  C_12
REMARK    6  A    between atoms: C_12  and  C_13
REMARK    7  A    between atoms: C_14  and  C_18
REMARK    8  A    between atoms: C_15  and  C_17
REMARK    9  A    between atoms: C_15  and  C_19
REMARK   10  A    between atoms: C_15  and  C_20
REMARK   11  A    between atoms: C_15  and  C_21
REMARK                            x       y       z     vdW  Elec       q    Type
REMARK                         _______ _______ _______ _____ _____    ______ ____
ROOT
ATOM      7  N   UNL     1      11.999   4.905   3.250  0.00  0.00    -0.302 NA
ATOM     28  H   UNL     1      11.475   4.099   3.588  0.00  0.00    +0.123 HD
ENDROOT
BRANCH   7   9
ATOM      4  O   UNL     1      14.092   3.758   1.267  0.00  0.00    -0.376 OA
ATOM      9  C   UNL     1      12.357   4.861   1.840  0.00  0.00    +0.072 C 
ATOM     10  C   UNL     1      13.854   5.114   1.705  0.00  0.00    +0.184 C 
ATOM     11  C   UNL     1      12.700   3.423   1.464  0.00  0.00    +0.184 C 
BRANCH   9  12
ATOM     12  C   UNL     1      11.387   5.651   0.951  0.00  0.00    +0.085 C 
BRANCH  12  13
ATOM      5  O   UNL     1      10.345   3.694  -1.848  0.00  0.00    -0.359 OA
ATOM      8  N   UNL     1      10.230   4.106  -0.525  0.00  0.00    -0.083 NA
ATOM     13  C   UNL     1      11.210   4.997  -0.355  0.00  0.00    +0.086 A 
ATOM     16  C   UNL     1      11.968   5.187  -1.523  0.00  0.00    +0.071 A 
ATOM     17  C   UNL     1      11.383   4.345  -2.432  0.00  0.00    +0.143 A 
BRANCH  17  15
ATOM     15  C   UNL     1      11.660   4.012  -3.907  0.00  0.00    +0.023 C 
ATOM     19  C   UNL     1      10.386   3.717  -4.732  0.00  0.00    +0.019 C 
ATOM     20  C   UNL     1      12.560   2.761  -3.997  0.00  0.00    +0.019 C 
ATOM     21  C   UNL     1      12.375   5.202  -4.583  0.00  0.00    +0.019 C 
ENDBRANCH  17  15
ENDBRANCH  12  13
ENDBRANCH   9  12
ENDBRANCH   7   9
BRANCH   7  14
ATOM     14  C   UNL     1      11.259   6.133   3.534  0.00  0.00    +0.117 C 
BRANCH  14  18
ATOM     18  C   UNL     1      10.673   6.125   4.920  0.00  0.00    -0.033 A 
ATOM     22  C   UNL     1       9.307   5.904   5.100  0.00  0.00    +0.008 A 
ATOM     23  C   UNL     1      11.495   6.340   6.026  0.00  0.00    +0.008 A 
ATOM     24  C   UNL     1       8.765   5.897   6.385  0.00  0.00    +0.046 A 
ATOM     25  C   UNL     1      10.953   6.333   7.311  0.00  0.00    +0.046 A 
ATOM     26  C   UNL     1       9.588   6.111   7.491  0.00  0.00    +0.130 A 
BRANCH  26   6
ATOM      6  O   UNL     1       9.058   6.104   8.744  0.00  0.00    -0.406 OA
BRANCH   6  27
ATOM      1  F   UNL     1       8.214   4.804  10.385  0.00  0.00    -0.133 F 
ATOM      2  F   UNL     1       9.386   3.842   8.812  0.00  0.00    -0.133 F 
ATOM      3  F   UNL     1      10.378   5.109  10.326  0.00  0.00    -0.133 F 
ATOM     27  C   UNL     1       9.276   4.959   9.561  0.00  0.00    +0.575 C 
ENDBRANCH   6  27
ENDBRANCH  26   6
ENDBRANCH  14  18
ENDBRANCH   7  14
TORSDOF 8
ENDMDL
MODEL 5
REMARK VINA RESULT:      -5.5     33.111     34.438
REMARK  Name = 56775455
REMARK  11 active torsions:
REMARK  status: ('A' for Active; 'I' for Inactive)
REMARK    1  A    between atoms: O_6  and  C_26
REMARK    2  A    between atoms: O_6  and  C_27
REMARK    3  A    between atoms: N_7  and  C_9
REMARK    4  A    between atoms: N_7  and  C_14
REMARK    5  A    between atoms: C_9  and  C_12
REMARK    6  A    between atoms: C_12  and  C_13
REMARK    7  A    between atoms: C_14  and  C_18
REMARK    8  A    between atoms: C_15  and  C_17
REMARK    9  A    between atoms: C_15  and  C_19
REMARK   10  A    between atoms: C_15  and  C_20
REMARK   11  A    between atoms: C_15  and  C_21
REMARK                            x       y       z     vdW  Elec       q    Type
REMARK                         _______ _______ _______ _____ _____    ______ ____
ROOT
ATOM      7  N   UNL     1      14.441   8.351  18.487  0.00  0.00    -0.302 NA
ATOM     28  H   UNL     1      14.866   8.776  17.663  0.00  0.00    +0.123 HD
ENDROOT
BRANCH   7   9
ATOM      4  O   UNL     1      11.981   7.791  20.293  0.00  0.00    -0.376 OA
ATOM      9  C   UNL     1      12.986   8.329  18.487  0.00  0.00    +0.072 C 
ATOM     10  C   UNL     1      12.515   7.051  19.172  0.00  0.00    +0.184 C 
ATOM     11  C   UNL     1      12.484   9.031  19.744  0.00  0.00    +0.184 C 
BRANCH   9  12
ATOM     12  C   UNL     1      12.380   8.710  17.130  0.00  0.00    +0.085 C 
BRANCH  12  13
ATOM      5  O   UNL     1      14.940   9.449  14.752  0.00  0.00    -0.359 OA
ATOM      8  N   UNL     1      14.101   8.565  15.419  0.00  0.00    -0.083 NA
ATOM     13  C   UNL     1      13.388   9.327  16.253  0.00  0.00    +0.086 A 
ATOM     16  C   UNL     1      13.731  10.687  16.158  0.00  0.00    +0.071 A 
ATOM     17  C   UNL     1      14.710  10.710  15.201  0.00  0.00    +0.143 A 
BRANCH  17  15
ATOM     15  C   UNL     1      15.556  11.828  14.569  0.00  0.00    +0.023 C 
ATOM     19  C   UNL     1      17.077  11.550  14.591  0.00  0.00    +0.019 C 
ATOM     20  C   UNL     1      15.324  13.150  15.334  0.00  0.00    +0.019 C 
ATOM     21  C   UNL     1      15.148  12.017  13.092  0.00  0.00    +0.019 C 
ENDBRANCH  17  15
ENDBRANCH  12  13
ENDBRANCH   9  12
ENDBRANCH   7   9
BRANCH   7  14
ATOM     14  C   UNL     1      14.957   6.995  18.666  0.00  0.00    +0.117 C 
BRANCH  14  18
ATOM     18  C   UNL     1      16.211   6.979  19.496  0.00  0.00    -0.033 A 
ATOM     22  C   UNL     1      16.381   7.906  20.524  0.00  0.00    +0.008 A 
ATOM     23  C   UNL     1      17.207   6.037  19.237  0.00  0.00    +0.008 A 
ATOM     24  C   UNL     1      17.544   7.892  21.293  0.00  0.00    +0.046 A 
ATOM     25  C   UNL     1      18.371   6.021  20.006  0.00  0.00    +0.046 A 
ATOM     26  C   UNL     1      18.539   6.949  21.035  0.00  0.00    +0.130 A 
BRANCH  26   6
ATOM      6  O   UNL     1      19.674   6.934  21.785  0.00  0.00    -0.406 OA
BRANCH   6  27
ATOM      1  F   UNL     1      20.438   8.834  20.836  0.00  0.00    -0.133 F 
ATOM      2  F   UNL     1      21.733   7.805  22.264  0.00  0.00    -0.133 F 
ATOM      3  F   UNL     1      21.379   6.947  20.259  0.00  0.00    -0.133 F 
ATOM     27  C   UNL     1      20.820   7.618  21.289  0.00  0.00    +0.575 C 
ENDBRANCH   6  27
ENDBRANCH  26   6
ENDBRANCH  14  18
ENDBRANCH   7  14
TORSDOF 8
ENDMDL
MODEL 6
REMARK VINA RESULT:      -5.4     33.969     35.909
REMARK  Name = 56775455
REMARK  11 active torsions:
REMARK  status: ('A' for Active; 'I' for Inactive)
REMARK    1  A    between atoms: O_6  and  C_26
REMARK    2  A    between atoms: O_6  and  C_27
REMARK    3  A    between atoms: N_7  and  C_9
REMARK    4  A    between atoms: N_7  and  C_14
REMARK    5  A    between atoms: C_9  and  C_12
REMARK    6  A    between atoms: C_12  and  C_13
REMARK    7  A    between atoms: C_14  and  C_18
REMARK    8  A    between atoms: C_15  and  C_17
REMARK    9  A    between atoms: C_15  and  C_19
REMARK   10  A    between atoms: C_15  and  C_20
REMARK   11  A    between atoms: C_15  and  C_21
REMARK                            x       y       z     vdW  Elec       q    Type
REMARK                         _______ _______ _______ _____ _____    ______ ____
ROOT
ATOM      7  N   UNL     1       7.750   8.389   3.794  0.00  0.00    -0.302 NA
ATOM     28  H   UNL     1       6.814   8.042   3.590  0.00  0.00    +0.123 HD
ENDROOT
BRANCH   7   9
ATOM      4  O   UNL     1       7.204  11.178   2.547  0.00  0.00    -0.376 OA
ATOM      9  C   UNL     1       8.273   9.353   2.836  0.00  0.00    +0.072 C 
ATOM     10  C   UNL     1       7.124   9.855   1.969  0.00  0.00    +0.184 C 
ATOM     11  C   UNL     1       8.233  10.742   3.464  0.00  0.00    +0.184 C 
BRANCH   9  12
ATOM     12  C   UNL     1       9.565   8.880   2.156  0.00  0.00    +0.085 C 
BRANCH  12  13
ATOM      5  O   UNL     1      11.632   6.841   4.236  0.00  0.00    -0.359 OA
ATOM      8  N   UNL     1      10.686   7.011   3.230  0.00  0.00    -0.083 NA
ATOM     13  C   UNL     1      10.512   8.332   3.139  0.00  0.00    +0.086 A 
ATOM     16  C   UNL     1      11.313   9.040   4.052  0.00  0.00    +0.071 A 
ATOM     17  C   UNL     1      11.998   8.057   4.716  0.00  0.00    +0.143 A 
BRANCH  17  15
ATOM     15  C   UNL     1      13.044   8.063   5.843  0.00  0.00    +0.023 C 
ATOM     19  C   UNL     1      12.937   6.855   6.802  0.00  0.00    +0.019 C 
ATOM     20  C   UNL     1      12.880   9.339   6.697  0.00  0.00    +0.019 C 
ATOM     21  C   UNL     1      14.463   8.037   5.235  0.00  0.00    +0.019 C 
ENDBRANCH  17  15
ENDBRANCH  12  13
ENDBRANCH   9  12
ENDBRANCH   7   9
BRANCH   7  14
ATOM     14  C   UNL     1       7.784   8.961   5.139  0.00  0.00    +0.117 C 
BRANCH  14  18
ATOM     18  C   UNL     1       8.442   8.034   6.124  0.00  0.00    -0.033 A 
ATOM     22  C   UNL     1       8.944   8.534   7.326  0.00  0.00    +0.008 A 
ATOM     23  C   UNL     1       8.551   6.674   5.837  0.00  0.00    +0.008 A 
ATOM     24  C   UNL     1       9.554   7.676   8.239  0.00  0.00    +0.046 A 
ATOM     25  C   UNL     1       9.161   5.814   6.750  0.00  0.00    +0.046 A 
ATOM     26  C   UNL     1       9.663   6.315   7.952  0.00  0.00    +0.130 A 
BRANCH  26   6
ATOM      6  O   UNL     1      10.258   5.476   8.843  0.00  0.00    -0.406 OA
BRANCH   6  27
ATOM      1  F   UNL     1       8.236   5.200   9.810  0.00  0.00    -0.133 F 
ATOM      2  F   UNL     1       9.203   3.449   8.931  0.00  0.00    -0.133 F 
ATOM      3  F   UNL     1       9.979   4.330  10.804  0.00  0.00    -0.133 F 
ATOM     27  C   UNL     1       9.430   4.599   9.600  0.00  0.00    +0.575 C 
ENDBRANCH   6  27
ENDBRANCH  26   6
ENDBRANCH  14  18
ENDBRANCH   7  14
TORSDOF 8
ENDMDL
MODEL 7
REMARK VINA RESULT:      -5.4      4.188      6.778
REMARK  Name = 56775455
REMARK  11 active torsions:
REMARK  status: ('A' for Active; 'I' for Inactive)
REMARK    1  A    between atoms: O_6  and  C_26
REMARK    2  A    between atoms: O_6  and  C_27
REMARK    3  A    between atoms: N_7  and  C_9
REMARK    4  A    between atoms: N_7  and  C_14
REMARK    5  A    between atoms: C_9  and  C_12
REMARK    6  A    between atoms: C_12  and  C_13
REMARK    7  A    between atoms: C_14  and  C_18
REMARK    8  A    between atoms: C_15  and  C_17
REMARK    9  A    between atoms: C_15  and  C_19
REMARK   10  A    between atoms: C_15  and  C_20
REMARK   11  A    between atoms: C_15  and  C_21
REMARK                            x       y       z     vdW  Elec       q    Type
REMARK                         _______ _______ _______ _____ _____    ______ ____
ROOT
ATOM      7  N   UNL     1     -13.858   2.486  30.933  0.00  0.00    -0.302 NA
ATOM     28  H   UNL     1     -12.910   2.438  30.562  0.00  0.00    +0.123 HD
ENDROOT
BRANCH   7   9
ATOM      4  O   UNL     1     -14.272  -0.588  30.854  0.00  0.00    -0.376 OA
ATOM      9  C   UNL     1     -14.761   1.450  30.452  0.00  0.00    +0.072 C 
ATOM     10  C   UNL     1     -13.938   0.344  29.802  0.00  0.00    +0.184 C 
ATOM     11  C   UNL     1     -14.992   0.441  31.571  0.00  0.00    +0.184 C 
BRANCH   9  12
ATOM     12  C   UNL     1     -15.972   2.016  29.698  0.00  0.00    +0.085 C 
BRANCH  12  13
ATOM      5  O   UNL     1     -16.206   5.553  30.129  0.00  0.00    -0.359 OA
ATOM      8  N   UNL     1     -15.721   4.423  29.480  0.00  0.00    -0.083 NA
ATOM     13  C   UNL     1     -16.270   3.391  30.126  0.00  0.00    +0.086 A 
ATOM     16  C   UNL     1     -17.101   3.804  31.182  0.00  0.00    +0.071 A 
ATOM     17  C   UNL     1     -17.027   5.171  31.140  0.00  0.00    +0.143 A 
BRANCH  17  15
ATOM     15  C   UNL     1     -17.658   6.298  31.974  0.00  0.00    +0.023 C 
ATOM     19  C   UNL     1     -16.859   7.621  31.945  0.00  0.00    +0.019 C 
ATOM     20  C   UNL     1     -17.757   5.859  33.451  0.00  0.00    +0.019 C 
ATOM     21  C   UNL     1     -19.074   6.608  31.441  0.00  0.00    +0.019 C 
ENDBRANCH  17  15
ENDBRANCH  12  13
ENDBRANCH   9  12
ENDBRANCH   7   9
BRANCH   7  14
ATOM     14  C   UNL     1     -13.820   2.469  32.394  0.00  0.00    +0.117 C 
BRANCH  14  18
ATOM     18  C   UNL     1     -13.885   3.857  32.971  0.00  0.00    -0.033 A 
ATOM     22  C   UNL     1     -13.472   4.951  32.210  0.00  0.00    +0.008 A 
ATOM     23  C   UNL     1     -14.358   4.051  34.269  0.00  0.00    +0.008 A 
ATOM     24  C   UNL     1     -13.533   6.237  32.745  0.00  0.00    +0.046 A 
ATOM     25  C   UNL     1     -14.419   5.337  34.806  0.00  0.00    +0.046 A 
ATOM     26  C   UNL     1     -14.007   6.430  34.043  0.00  0.00    +0.130 A 
BRANCH  26   6
ATOM      6  O   UNL     1     -14.066   7.685  34.566  0.00  0.00    -0.406 OA
BRANCH   6  27
ATOM      1  F   UNL     1     -13.264   9.249  35.983  0.00  0.00    -0.133 F 
ATOM      2  F   UNL     1     -12.320   7.278  35.985  0.00  0.00    -0.133 F 
ATOM      3  F   UNL     1     -12.015   8.661  34.288  0.00  0.00    -0.133 F 
ATOM     27  C   UNL     1     -12.903   8.208  35.199  0.00  0.00    +0.575 C 
ENDBRANCH   6  27
ENDBRANCH  26   6
ENDBRANCH  14  18
ENDBRANCH   7  14
TORSDOF 8
ENDMDL
MODEL 8
REMARK VINA RESULT:      -5.4      4.803      7.056
REMARK  Name = 56775455
REMARK  11 active torsions:
REMARK  status: ('A' for Active; 'I' for Inactive)
REMARK    1  A    between atoms: O_6  and  C_26
REMARK    2  A    between atoms: O_6  and  C_27
REMARK    3  A    between atoms: N_7  and  C_9
REMARK    4  A    between atoms: N_7  and  C_14
REMARK    5  A    between atoms: C_9  and  C_12
REMARK    6  A    between atoms: C_12  and  C_13
REMARK    7  A    between atoms: C_14  and  C_18
REMARK    8  A    between atoms: C_15  and  C_17
REMARK    9  A    between atoms: C_15  and  C_19
REMARK   10  A    between atoms: C_15  and  C_20
REMARK   11  A    between atoms: C_15  and  C_21
REMARK                            x       y       z     vdW  Elec       q    Type
REMARK                         _______ _______ _______ _____ _____    ______ ____
ROOT
ATOM      7  N   UNL     1     -16.202   4.260  26.276  0.00  0.00    -0.302 NA
ATOM     28  H   UNL     1     -15.222   4.014  26.409  0.00  0.00    +0.123 HD
ENDROOT
BRANCH   7   9
ATOM      4  O   UNL     1     -18.504   5.273  24.458  0.00  0.00    -0.376 OA
ATOM      9  C   UNL     1     -16.637   4.331  24.889  0.00  0.00    +0.072 C 
ATOM     10  C   UNL     1     -18.106   3.930  24.814  0.00  0.00    +0.184 C 
ATOM     11  C   UNL     1     -17.143   5.740  24.603  0.00  0.00    +0.184 C 
BRANCH   9  12
ATOM     12  C   UNL     1     -15.641   3.686  23.915  0.00  0.00    +0.085 C 
BRANCH  12  13
ATOM      5  O   UNL     1     -15.263   5.687  20.981  0.00  0.00    -0.359 OA
ATOM      8  N   UNL     1     -15.907   4.705  21.725  0.00  0.00    -0.083 NA
ATOM     13  C   UNL     1     -15.227   4.638  22.872  0.00  0.00    +0.086 A 
ATOM     16  C   UNL     1     -14.153   5.544  22.910  0.00  0.00    +0.071 A 
ATOM     17  C   UNL     1     -14.220   6.180  21.698  0.00  0.00    +0.143 A 
BRANCH  17  15
ATOM     15  C   UNL     1     -13.387   7.283  21.026  0.00  0.00    +0.023 C 
ATOM     19  C   UNL     1     -11.887   6.936  20.885  0.00  0.00    +0.019 C 
ATOM     20  C   UNL     1     -13.477   8.581  21.859  0.00  0.00    +0.019 C 
ATOM     21  C   UNL     1     -13.928   7.552  19.606  0.00  0.00    +0.019 C 
ENDBRANCH  17  15
ENDBRANCH  12  13
ENDBRANCH   9  12
ENDBRANCH   7   9
BRANCH   7  14
ATOM     14  C   UNL     1     -17.051   3.327  27.014  0.00  0.00    +0.117 C 
BRANCH  14  18
ATOM     18  C   UNL     1     -16.349   2.764  28.220  0.00  0.00    -0.033 A 
ATOM     22  C   UNL     1     -15.392   3.527  28.890  0.00  0.00    +0.008 A 
ATOM     23  C   UNL     1     -16.652   1.479  28.667  0.00  0.00    +0.008 A 
ATOM     24  C   UNL     1     -14.741   3.006  30.008  0.00  0.00    +0.046 A 
ATOM     25  C   UNL     1     -16.002   0.956  29.785  0.00  0.00    +0.046 A 
ATOM     26  C   UNL     1     -15.046   1.720  30.455  0.00  0.00    +0.130 A 
BRANCH  26   6
ATOM      6  O   UNL     1     -14.411   1.211  31.546  0.00  0.00    -0.406 OA
BRANCH   6  27
ATOM      1  F   UNL     1     -14.557   0.938  33.782  0.00  0.00    -0.133 F 
ATOM      2  F   UNL     1     -13.601   2.753  33.029  0.00  0.00    -0.133 F 
ATOM      3  F   UNL     1     -15.788   2.488  32.853  0.00  0.00    -0.133 F 
ATOM     27  C   UNL     1     -14.592   1.865  32.798  0.00  0.00    +0.575 C 
ENDBRANCH   6  27
ENDBRANCH  26   6
ENDBRANCH  14  18
ENDBRANCH   7  14
TORSDOF 8
ENDMDL
MODEL 9
REMARK VINA RESULT:      -5.4     18.378     20.253
REMARK  Name = 56775455
REMARK  11 active torsions:
REMARK  status: ('A' for Active; 'I' for Inactive)
REMARK    1  A    between atoms: O_6  and  C_26
REMARK    2  A    between atoms: O_6  and  C_27
REMARK    3  A    between atoms: N_7  and  C_9
REMARK    4  A    between atoms: N_7  and  C_14
REMARK    5  A    between atoms: C_9  and  C_12
REMARK    6  A    between atoms: C_12  and  C_13
REMARK    7  A    between atoms: C_14  and  C_18
REMARK    8  A    between atoms: C_15  and  C_17
REMARK    9  A    between atoms: C_15  and  C_19
REMARK   10  A    between atoms: C_15  and  C_20
REMARK   11  A    between atoms: C_15  and  C_21
REMARK                            x       y       z     vdW  Elec       q    Type
REMARK                         _______ _______ _______ _____ _____    ______ ____
ROOT
ATOM      7  N   UNL     1      -8.087 -10.638  19.579  0.00  0.00    -0.302 NA
ATOM     28  H   UNL     1      -7.748  -9.894  18.970  0.00  0.00    +0.123 HD
ENDROOT
BRANCH   7   9
ATOM      4  O   UNL     1     -10.634 -12.060  20.638  0.00  0.00    -0.376 OA
ATOM      9  C   UNL     1      -9.323 -11.274  19.147  0.00  0.00    +0.072 C 
ATOM     10  C   UNL     1      -9.496 -12.580  19.914  0.00  0.00    +0.184 C 
ATOM     11  C   UNL     1     -10.468 -10.765  20.016  0.00  0.00    +0.184 C 
BRANCH   9  12
ATOM     12  C   UNL     1      -9.492 -11.280  17.622  0.00  0.00    +0.085 C 
BRANCH  12  13
ATOM      5  O   UNL     1      -9.869  -7.836  16.758  0.00  0.00    -0.359 OA
ATOM      8  N   UNL     1      -9.172  -8.887  17.342  0.00  0.00    -0.083 NA
ATOM     13  C   UNL     1      -9.932  -9.965  17.131  0.00  0.00    +0.086 A 
ATOM     16  C   UNL     1     -11.109  -9.658  16.426  0.00  0.00    +0.071 A 
ATOM     17  C   UNL     1     -11.020  -8.307  16.215  0.00  0.00    +0.143 A 
BRANCH  17  15
ATOM     15  C   UNL     1     -11.925  -7.276  15.522  0.00  0.00    +0.023 C 
ATOM     19  C   UNL     1     -13.379  -7.265  16.047  0.00  0.00    +0.019 C 
ATOM     20  C   UNL     1     -11.991  -7.578  14.008  0.00  0.00    +0.019 C 
ATOM     21  C   UNL     1     -11.353  -5.858  15.732  0.00  0.00    +0.019 C 
ENDBRANCH  17  15
ENDBRANCH  12  13
ENDBRANCH   9  12
ENDBRANCH   7   9
BRANCH   7  14
ATOM     14  C   UNL     1      -7.045 -11.648  19.753  0.00  0.00    +0.117 C 
BRANCH  14  18
ATOM     18  C   UNL     1      -5.854 -11.381  18.875  0.00  0.00    -0.033 A 
ATOM     22  C   UNL     1      -5.979 -10.551  17.760  0.00  0.00    +0.008 A 
ATOM     23  C   UNL     1      -4.622 -11.964  19.173  0.00  0.00    +0.008 A 
ATOM     24  C   UNL     1      -4.875 -10.303  16.946  0.00  0.00    +0.046 A 
ATOM     25  C   UNL     1      -3.517 -11.716  18.359  0.00  0.00    +0.046 A 
ATOM     26  C   UNL     1      -3.643 -10.885  17.245  0.00  0.00    +0.130 A 
BRANCH  26   6
ATOM      6  O   UNL     1      -2.565 -10.643  16.451  0.00  0.00    -0.406 OA
BRANCH   6  27
ATOM      1  F   UNL     1      -1.216 -11.631  14.934  0.00  0.00    -0.133 F 
ATOM      2  F   UNL     1      -3.236 -12.425  15.183  0.00  0.00    -0.133 F 
ATOM      3  F   UNL     1      -2.917 -10.473  14.197  0.00  0.00    -0.133 F 
ATOM     27  C   UNL     1      -2.501 -11.293  15.185  0.00  0.00    +0.575 C 
ENDBRANCH   6  27
ENDBRANCH  26   6
ENDBRANCH  14  18
ENDBRANCH   7  14
TORSDOF 8
ENDMDL
MODEL 10
REMARK VINA RESULT:      -5.4     36.352     38.436
REMARK  Name = 56775455
REMARK  11 active torsions:
REMARK  status: ('A' for Active; 'I' for Inactive)
REMARK    1  A    between atoms: O_6  and  C_26
REMARK    2  A    between atoms: O_6  and  C_27
REMARK    3  A    between atoms: N_7  and  C_9
REMARK    4  A    between atoms: N_7  and  C_14
REMARK    5  A    between atoms: C_9  and  C_12
REMARK    6  A    between atoms: C_12  and  C_13
REMARK    7  A    between atoms: C_14  and  C_18
REMARK    8  A    between atoms: C_15  and  C_17
REMARK    9  A    between atoms: C_15  and  C_19
REMARK   10  A    between atoms: C_15  and  C_20
REMARK   11  A    between atoms: C_15  and  C_21
REMARK                            x       y       z     vdW  Elec       q    Type
REMARK                         _______ _______ _______ _____ _____    ______ ____
ROOT
ATOM      7  N   UNL     1      12.430   4.329   2.467  0.00  0.00    -0.302 NA
ATOM     28  H   UNL     1      12.929   3.497   2.780  0.00  0.00    +0.123 HD
ENDROOT
BRANCH   7   9
ATOM      4  O   UNL     1      12.780   3.436  -0.485  0.00  0.00    -0.376 OA
ATOM      9  C   UNL     1      12.807   4.813   1.146  0.00  0.00    +0.072 C 
ATOM     10  C   UNL     1      13.760   3.808   0.510  0.00  0.00    +0.184 C 
ATOM     11  C   UNL     1      11.795   4.300   0.127  0.00  0.00    +0.184 C 
BRANCH   9  12
ATOM     12  C   UNL     1      13.182   6.301   1.139  0.00  0.00    +0.085 C 
BRANCH  12  13
ATOM      5  O   UNL     1      15.254   6.897   3.987  0.00  0.00    -0.359 OA
ATOM      8  N   UNL     1      15.023   6.361   2.725  0.00  0.00    -0.083 NA
ATOM     13  C   UNL     1      13.768   6.707   2.426  0.00  0.00    +0.086 A 
ATOM     16  C   UNL     1      13.162   7.454   3.451  0.00  0.00    +0.071 A 
ATOM     17  C   UNL     1      14.138   7.546   4.408  0.00  0.00    +0.143 A 
BRANCH  17  15
ATOM     15  C   UNL     1      14.211   8.205   5.795  0.00  0.00    +0.023 C 
ATOM     19  C   UNL     1      15.608   8.764   6.150  0.00  0.00    +0.019 C 
ATOM     20  C   UNL     1      13.845   7.172   6.882  0.00  0.00    +0.019 C 
ATOM     21  C   UNL     1      13.218   9.386   5.862  0.00  0.00    +0.019 C 
ENDBRANCH  17  15
ENDBRANCH  12  13
ENDBRANCH   9  12
ENDBRANCH   7   9
BRANCH   7  14
ATOM     14  C   UNL     1      10.989   4.087   2.511  0.00  0.00    +0.117 C 
BRANCH  14  18
ATOM     18  C   UNL     1      10.319   4.900   3.586  0.00  0.00    -0.033 A 
ATOM     22  C   UNL     1      10.137   4.360   4.860  0.00  0.00    +0.008 A 
ATOM     23  C   UNL     1       9.878   6.194   3.310  0.00  0.00    +0.008 A 
ATOM     24  C   UNL     1       9.516   5.113   5.855  0.00  0.00    +0.046 A 
ATOM     25  C   UNL     1       9.257   6.948   4.305  0.00  0.00    +0.046 A 
ATOM     26  C   UNL     1       9.076   6.407   5.578  0.00  0.00    +0.130 A 
BRANCH  26   6
ATOM      6  O   UNL     1       8.470   7.142   6.550  0.00  0.00    -0.406 OA
BRANCH   6  27
ATOM      1  F   UNL     1       8.820   8.608   8.231  0.00  0.00    -0.133 F 
ATOM      2  F   UNL     1       8.913   6.474   8.692  0.00  0.00    -0.133 F 
ATOM      3  F   UNL     1      10.522   7.434   7.519  0.00  0.00    -0.133 F 
ATOM     27  C   UNL     1       9.192   7.400   7.750  0.00  0.00    +0.575 C 
ENDBRANCH   6  27
ENDBRANCH  26   6
ENDBRANCH  14  18
ENDBRANCH   7  14
TORSDOF 8
ENDMDL
