MODEL 1
REMARK VINA RESULT:      -6.8      0.000      0.000
REMARK  Name = 45783499
REMARK  9 active torsions:
REMARK  status: ('A' for Active; 'I' for Inactive)
REMARK    1  A    between atoms: O_2  and  C_26
REMARK    2  A    between atoms: O_2  and  C_27
REMARK    3  A    between atoms: N_3  and  C_14
REMARK    4  A    between atoms: N_9  and  C_24
REMARK    5  A    between atoms: N_9  and  C_25
REMARK    6  A    between atoms: C_10  and  C_15
REMARK    7  A    between atoms: C_14  and  C_16
REMARK    8  A    between atoms: C_17  and  C_19
REMARK    9  A    between atoms: C_25  and  C_26
REMARK                            x       y       z     vdW  Elec       q    Type
REMARK                         _______ _______ _______ _____ _____    ______ ____
ROOT
ATOM      1  O   UNL     1      16.195   5.895  18.327  0.00  0.00    -0.336 OA
ATOM      4  N   UNL     1      16.749   6.855  20.273  0.00  0.00    -0.190 NA
ATOM      7  N   UNL     1      17.494   5.463  18.617  0.00  0.00    -0.056 NA
ATOM     15  C   UNL     1      15.831   6.710  19.351  0.00  0.00    +0.245 A 
ATOM     17  C   UNL     1      17.751   6.071  19.780  0.00  0.00    +0.204 A 
ENDROOT
BRANCH  17  19
ATOM      8  N   UNL     1      20.505   6.674  22.204  0.00  0.00    -0.240 NA
ATOM     19  C   UNL     1      18.998   5.918  20.472  0.00  0.00    +0.041 A 
ATOM     21  C   UNL     1      19.894   4.914  20.119  0.00  0.00    +0.016 A 
ATOM     22  C   UNL     1      19.347   6.764  21.512  0.00  0.00    +0.124 A 
ATOM     23  C   UNL     1      21.096   4.790  20.808  0.00  0.00    +0.044 A 
ATOM     24  C   UNL     1      21.352   5.687  21.833  0.00  0.00    +0.119 A 
BRANCH  24   9
ATOM      9  N   UNL     1      22.579   5.546  22.526  0.00  0.00    -0.327 N 
ATOM     29  H   UNL     1      22.872   6.335  23.090  0.00  0.00    +0.148 HD
BRANCH   9  25
ATOM     25  C   UNL     1      23.379   4.368  22.445  0.00  0.00    +0.131 C 
BRANCH  25  26
ATOM     26  C   UNL     1      24.798   4.730  22.041  0.00  0.00    +0.178 C 
BRANCH  26   2
ATOM      2  O   UNL     1      25.269   3.796  21.077  0.00  0.00    -0.381 OA
ATOM     27  C   UNL     1      24.756   4.079  19.783  0.00  0.00    +0.194 C 
ENDBRANCH  26   2
ENDBRANCH  25  26
ENDBRANCH   9  25
ENDBRANCH  24   9
ENDBRANCH  17  19
BRANCH  15  10
ATOM      3  N   UNL     1      14.307   8.528  20.106  0.00  0.00    -0.284 NA
ATOM     10  C   UNL     1      14.445   7.316  19.273  0.00  0.00    +0.146 C 
ATOM     11  C   UNL     1      14.077   7.775  17.850  0.00  0.00    +0.030 C 
ATOM     12  C   UNL     1      13.688   9.240  17.993  0.00  0.00    +0.017 C 
ATOM     13  C   UNL     1      13.301   9.365  19.453  0.00  0.00    +0.085 C 
BRANCH   3  14
ATOM     14  C   UNL     1      13.963   8.237  21.492  0.00  0.00    +0.159 C 
BRANCH  14  16
ATOM      5  N   UNL     1      12.462   6.234  21.363  0.00  0.00    -0.347 N 
ATOM      6  N   UNL     1      11.480   8.142  21.933  0.00  0.00    -0.239 NA
ATOM     16  C   UNL     1      12.617   7.571  21.607  0.00  0.00    +0.121 A 
ATOM     18  C   UNL     1      11.141   5.935  21.547  0.00  0.00    +0.104 A 
ATOM     20  C   UNL     1      10.556   7.129  21.899  0.00  0.00    +0.130 A 
ATOM     28  H   UNL     1      13.190   5.586  21.094  0.00  0.00    +0.167 HD
ENDBRANCH  14  16
ENDBRANCH   3  14
ENDBRANCH  15  10
TORSDOF 8
ENDMDL
MODEL 2
REMARK VINA RESULT:      -6.6      1.807      3.529
REMARK  Name = 45783499
REMARK  9 active torsions:
REMARK  status: ('A' for Active; 'I' for Inactive)
REMARK    1  A    between atoms: O_2  and  C_26
REMARK    2  A    between atoms: O_2  and  C_27
REMARK    3  A    between atoms: N_3  and  C_14
REMARK    4  A    between atoms: N_9  and  C_24
REMARK    5  A    between atoms: N_9  and  C_25
REMARK    6  A    between atoms: C_10  and  C_15
REMARK    7  A    between atoms: C_14  and  C_16
REMARK    8  A    between atoms: C_17  and  C_19
REMARK    9  A    between atoms: C_25  and  C_26
REMARK                            x       y       z     vdW  Elec       q    Type
REMARK                         _______ _______ _______ _____ _____    ______ ____
ROOT
ATOM      1  O   UNL     1      14.412   6.709  19.609  0.00  0.00    -0.336 OA
ATOM      4  N   UNL     1      15.629   7.637  21.245  0.00  0.00    -0.190 NA
ATOM      7  N   UNL     1      15.715   6.221  19.450  0.00  0.00    -0.056 NA
ATOM     15  C   UNL     1      14.448   7.534  20.687  0.00  0.00    +0.245 A 
ATOM     17  C   UNL     1      16.373   6.812  20.451  0.00  0.00    +0.204 A 
ENDROOT
BRANCH  17  19
ATOM      8  N   UNL     1      19.783   5.352  20.198  0.00  0.00    -0.240 NA
ATOM     19  C   UNL     1      17.773   6.603  20.685  0.00  0.00    +0.041 A 
ATOM     21  C   UNL     1      18.476   7.400  21.582  0.00  0.00    +0.016 A 
ATOM     22  C   UNL     1      18.466   5.601  20.025  0.00  0.00    +0.124 A 
ATOM     23  C   UNL     1      19.833   7.173  21.788  0.00  0.00    +0.044 A 
ATOM     24  C   UNL     1      20.434   6.146  21.079  0.00  0.00    +0.119 A 
BRANCH  24   9
ATOM      9  N   UNL     1      21.816   5.929  21.298  0.00  0.00    -0.327 N 
ATOM     29  H   UNL     1      22.231   6.416  22.084  0.00  0.00    +0.148 HD
BRANCH   9  25
ATOM     25  C   UNL     1      22.604   5.080  20.465  0.00  0.00    +0.131 C 
BRANCH  25  26
ATOM     26  C   UNL     1      23.132   3.905  21.271  0.00  0.00    +0.178 C 
BRANCH  26   2
ATOM      2  O   UNL     1      22.075   3.343  22.038  0.00  0.00    -0.381 OA
ATOM     27  C   UNL     1      22.544   2.830  23.276  0.00  0.00    +0.194 C 
ENDBRANCH  26   2
ENDBRANCH  25  26
ENDBRANCH   9  25
ENDBRANCH  24   9
ENDBRANCH  17  19
BRANCH  15  10
ATOM      3  N   UNL     1      12.307   8.530  19.902  0.00  0.00    -0.284 NA
ATOM     10  C   UNL     1      13.144   8.198  21.074  0.00  0.00    +0.146 C 
ATOM     11  C   UNL     1      12.253   7.294  21.947  0.00  0.00    +0.030 C 
ATOM     12  C   UNL     1      10.919   7.227  21.216  0.00  0.00    +0.017 C 
ATOM     13  C   UNL     1      10.918   8.475  20.358  0.00  0.00    +0.085 C 
BRANCH   3  14
ATOM     14  C   UNL     1      12.638   9.818  19.306  0.00  0.00    +0.159 C 
BRANCH  14  16
ATOM      5  N   UNL     1      13.410   8.432  17.368  0.00  0.00    -0.347 N 
ATOM      6  N   UNL     1      13.536  10.632  17.093  0.00  0.00    -0.239 NA
ATOM     16  C   UNL     1      13.197   9.666  17.917  0.00  0.00    +0.121 A 
ATOM     18  C   UNL     1      13.918   8.625  16.113  0.00  0.00    +0.104 A 
ATOM     20  C   UNL     1      13.985   9.990  15.967  0.00  0.00    +0.130 A 
ATOM     28  H   UNL     1      13.229   7.540  17.808  0.00  0.00    +0.167 HD
ENDBRANCH  14  16
ENDBRANCH   3  14
ENDBRANCH  15  10
TORSDOF 8
ENDMDL
MODEL 3
REMARK VINA RESULT:      -6.2     26.520     30.570
REMARK  Name = 45783499
REMARK  9 active torsions:
REMARK  status: ('A' for Active; 'I' for Inactive)
REMARK    1  A    between atoms: O_2  and  C_26
REMARK    2  A    between atoms: O_2  and  C_27
REMARK    3  A    between atoms: N_3  and  C_14
REMARK    4  A    between atoms: N_9  and  C_24
REMARK    5  A    between atoms: N_9  and  C_25
REMARK    6  A    between atoms: C_10  and  C_15
REMARK    7  A    between atoms: C_14  and  C_16
REMARK    8  A    between atoms: C_17  and  C_19
REMARK    9  A    between atoms: C_25  and  C_26
REMARK                            x       y       z     vdW  Elec       q    Type
REMARK                         _______ _______ _______ _____ _____    ______ ____
ROOT
ATOM      1  O   UNL     1      -4.981 -11.563  16.980  0.00  0.00    -0.336 OA
ATOM      4  N   UNL     1      -5.571 -10.128  15.365  0.00  0.00    -0.190 NA
ATOM      7  N   UNL     1      -6.279 -11.139  17.291  0.00  0.00    -0.056 NA
ATOM     15  C   UNL     1      -4.640 -10.921  15.832  0.00  0.00    +0.245 A 
ATOM     17  C   UNL     1      -6.557 -10.296  16.292  0.00  0.00    +0.204 A 
ENDROOT
BRANCH  17  19
ATOM      8  N   UNL     1      -9.719  -8.968  14.854  0.00  0.00    -0.240 NA
ATOM     19  C   UNL     1      -7.810  -9.604  16.194  0.00  0.00    +0.041 A 
ATOM     21  C   UNL     1      -8.336  -8.915  17.283  0.00  0.00    +0.016 A 
ATOM     22  C   UNL     1      -8.534  -9.599  15.013  0.00  0.00    +0.124 A 
ATOM     23  C   UNL     1      -9.552  -8.253  17.157  0.00  0.00    +0.044 A 
ATOM     24  C   UNL     1     -10.198  -8.309  15.933  0.00  0.00    +0.119 A 
BRANCH  24   9
ATOM      9  N   UNL     1     -11.437  -7.631  15.822  0.00  0.00    -0.327 N 
ATOM     29  H   UNL     1     -12.268  -8.210  15.802  0.00  0.00    +0.148 HD
BRANCH   9  25
ATOM     25  C   UNL     1     -11.532  -6.210  15.735  0.00  0.00    +0.131 C 
BRANCH  25  26
ATOM     26  C   UNL     1     -12.745  -5.820  14.906  0.00  0.00    +0.178 C 
BRANCH  26   2
ATOM      2  O   UNL     1     -12.414  -5.881  13.525  0.00  0.00    -0.381 OA
ATOM     27  C   UNL     1     -12.207  -4.584  12.981  0.00  0.00    +0.194 C 
ENDBRANCH  26   2
ENDBRANCH  25  26
ENDBRANCH   9  25
ENDBRANCH  24   9
ENDBRANCH  17  19
BRANCH  15  10
ATOM      3  N   UNL     1      -2.959 -10.430  14.065  0.00  0.00    -0.284 NA
ATOM     10  C   UNL     1      -3.262 -11.214  15.279  0.00  0.00    +0.146 C 
ATOM     11  C   UNL     1      -2.136 -10.856  16.267  0.00  0.00    +0.030 C 
ATOM     12  C   UNL     1      -1.218  -9.914  15.499  0.00  0.00    +0.017 C 
ATOM     13  C   UNL     1      -1.509 -10.238  14.047  0.00  0.00    +0.085 C 
BRANCH   3  14
ATOM     14  C   UNL     1      -3.444 -11.055  12.841  0.00  0.00    +0.159 C 
BRANCH  14  16
ATOM      5  N   UNL     1      -5.499  -9.713  12.340  0.00  0.00    -0.347 N 
ATOM      6  N   UNL     1      -3.840  -9.523  10.876  0.00  0.00    -0.239 NA
ATOM     16  C   UNL     1      -4.232 -10.093  11.993  0.00  0.00    +0.121 A 
ATOM     18  C   UNL     1      -5.942  -8.844  11.381  0.00  0.00    +0.104 A 
ATOM     20  C   UNL     1      -4.900  -8.742  10.490  0.00  0.00    +0.130 A 
ATOM     28  H   UNL     1      -6.015 -10.019  13.153  0.00  0.00    +0.167 HD
ENDBRANCH  14  16
ENDBRANCH   3  14
ENDBRANCH  15  10
TORSDOF 8
ENDMDL
MODEL 4
REMARK VINA RESULT:      -6.1      1.948      2.543
REMARK  Name = 45783499
REMARK  9 active torsions:
REMARK  status: ('A' for Active; 'I' for Inactive)
REMARK    1  A    between atoms: O_2  and  C_26
REMARK    2  A    between atoms: O_2  and  C_27
REMARK    3  A    between atoms: N_3  and  C_14
REMARK    4  A    between atoms: N_9  and  C_24
REMARK    5  A    between atoms: N_9  and  C_25
REMARK    6  A    between atoms: C_10  and  C_15
REMARK    7  A    between atoms: C_14  and  C_16
REMARK    8  A    between atoms: C_17  and  C_19
REMARK    9  A    between atoms: C_25  and  C_26
REMARK                            x       y       z     vdW  Elec       q    Type
REMARK                         _______ _______ _______ _____ _____    ______ ____
ROOT
ATOM      1  O   UNL     1      13.860   6.585  20.096  0.00  0.00    -0.336 OA
ATOM      4  N   UNL     1      15.628   7.380  18.973  0.00  0.00    -0.190 NA
ATOM      7  N   UNL     1      14.979   6.322  20.894  0.00  0.00    -0.056 NA
ATOM     15  C   UNL     1      14.330   7.210  18.984  0.00  0.00    +0.245 A 
ATOM     17  C   UNL     1      15.982   6.820  20.165  0.00  0.00    +0.204 A 
ENDROOT
BRANCH  17  19
ATOM      8  N   UNL     1      19.526   5.731  20.455  0.00  0.00    -0.240 NA
ATOM     19  C   UNL     1      17.349   6.772  20.599  0.00  0.00    +0.041 A 
ATOM     21  C   UNL     1      17.833   7.671  21.544  0.00  0.00    +0.016 A 
ATOM     22  C   UNL     1      18.228   5.829  20.090  0.00  0.00    +0.124 A 
ATOM     23  C   UNL     1      19.163   7.599  21.946  0.00  0.00    +0.044 A 
ATOM     24  C   UNL     1      19.960   6.620  21.377  0.00  0.00    +0.119 A 
BRANCH  24   9
ATOM      9  N   UNL     1      21.312   6.562  21.794  0.00  0.00    -0.327 N 
ATOM     29  H   UNL     1      21.615   7.275  22.447  0.00  0.00    +0.148 HD
BRANCH   9  25
ATOM     25  C   UNL     1      22.220   5.565  21.327  0.00  0.00    +0.131 C 
BRANCH  25  26
ATOM     26  C   UNL     1      23.327   5.352  22.346  0.00  0.00    +0.178 C 
BRANCH  26   2
ATOM      2  O   UNL     1      23.055   4.180  23.104  0.00  0.00    -0.381 OA
ATOM     27  C   UNL     1      23.961   3.132  22.788  0.00  0.00    +0.194 C 
ENDBRANCH  26   2
ENDBRANCH  25  26
ENDBRANCH   9  25
ENDBRANCH  24   9
ENDBRANCH  17  19
BRANCH  15  10
ATOM      3  N   UNL     1      12.464   8.743  18.383  0.00  0.00    -0.284 NA
ATOM     10  C   UNL     1      13.301   7.607  17.947  0.00  0.00    +0.146 C 
ATOM     11  C   UNL     1      13.939   8.076  16.625  0.00  0.00    +0.030 C 
ATOM     12  C   UNL     1      13.354   9.459  16.371  0.00  0.00    +0.017 C 
ATOM     13  C   UNL     1      12.065   9.454  17.169  0.00  0.00    +0.085 C 
BRANCH   3  14
ATOM     14  C   UNL     1      11.315   8.336  19.182  0.00  0.00    +0.159 C 
BRANCH  14  16
ATOM      5  N   UNL     1      10.543   8.438  21.564  0.00  0.00    -0.347 N 
ATOM      6  N   UNL     1      12.197   9.818  21.024  0.00  0.00    -0.239 NA
ATOM     16  C   UNL     1      11.381   8.888  20.581  0.00  0.00    +0.121 A 
ATOM     18  C   UNL     1      10.845   9.125  22.706  0.00  0.00    +0.104 A 
ATOM     20  C   UNL     1      11.869   9.969  22.348  0.00  0.00    +0.130 A 
ATOM     28  H   UNL     1       9.828   7.729  21.464  0.00  0.00    +0.167 HD
ENDBRANCH  14  16
ENDBRANCH   3  14
ENDBRANCH  15  10
TORSDOF 8
ENDMDL
MODEL 5
REMARK VINA RESULT:      -6.1      2.407      2.950
REMARK  Name = 45783499
REMARK  9 active torsions:
REMARK  status: ('A' for Active; 'I' for Inactive)
REMARK    1  A    between atoms: O_2  and  C_26
REMARK    2  A    between atoms: O_2  and  C_27
REMARK    3  A    between atoms: N_3  and  C_14
REMARK    4  A    between atoms: N_9  and  C_24
REMARK    5  A    between atoms: N_9  and  C_25
REMARK    6  A    between atoms: C_10  and  C_15
REMARK    7  A    between atoms: C_14  and  C_16
REMARK    8  A    between atoms: C_17  and  C_19
REMARK    9  A    between atoms: C_25  and  C_26
REMARK                            x       y       z     vdW  Elec       q    Type
REMARK                         _______ _______ _______ _____ _____    ______ ____
ROOT
ATOM      1  O   UNL     1      13.942   6.616  20.130  0.00  0.00    -0.336 OA
ATOM      4  N   UNL     1      15.667   7.441  18.962  0.00  0.00    -0.190 NA
ATOM      7  N   UNL     1      15.081   6.404  20.915  0.00  0.00    -0.056 NA
ATOM     15  C   UNL     1      14.375   7.231  18.998  0.00  0.00    +0.245 A 
ATOM     17  C   UNL     1      16.057   6.917  20.160  0.00  0.00    +0.204 A 
ENDROOT
BRANCH  17  19
ATOM      8  N   UNL     1      19.190   7.930  21.889  0.00  0.00    -0.240 NA
ATOM     19  C   UNL     1      17.431   6.920  20.573  0.00  0.00    +0.041 A 
ATOM     21  C   UNL     1      18.325   5.968  20.094  0.00  0.00    +0.016 A 
ATOM     22  C   UNL     1      17.909   7.871  21.460  0.00  0.00    +0.124 A 
ATOM     23  C   UNL     1      19.652   5.997  20.511  0.00  0.00    +0.044 A 
ATOM     24  C   UNL     1      20.030   6.989  21.401  0.00  0.00    +0.119 A 
BRANCH  24   9
ATOM      9  N   UNL     1      21.383   7.003  21.818  0.00  0.00    -0.327 N 
ATOM     29  H   UNL     1      21.549   7.089  22.814  0.00  0.00    +0.148 HD
BRANCH   9  25
ATOM     25  C   UNL     1      22.473   6.910  20.902  0.00  0.00    +0.131 C 
BRANCH  25  26
ATOM     26  C   UNL     1      22.634   8.219  20.148  0.00  0.00    +0.178 C 
BRANCH  26   2
ATOM      2  O   UNL     1      22.932   9.262  21.068  0.00  0.00    -0.381 OA
ATOM     27  C   UNL     1      24.280   9.196  21.511  0.00  0.00    +0.194 C 
ENDBRANCH  26   2
ENDBRANCH  25  26
ENDBRANCH   9  25
ENDBRANCH  24   9
ENDBRANCH  17  19
BRANCH  15  10
ATOM      3  N   UNL     1      12.462   8.701  18.390  0.00  0.00    -0.284 NA
ATOM     10  C   UNL     1      13.318   7.574  17.969  0.00  0.00    +0.146 C 
ATOM     11  C   UNL     1      13.921   8.022  16.624  0.00  0.00    +0.030 C 
ATOM     12  C   UNL     1      13.298   9.382  16.343  0.00  0.00    +0.017 C 
ATOM     13  C   UNL     1      12.024   9.368  17.164  0.00  0.00    +0.085 C 
BRANCH   3  14
ATOM     14  C   UNL     1      11.337   8.289  19.221  0.00  0.00    +0.159 C 
BRANCH  14  16
ATOM      5  N   UNL     1      11.983  10.206  20.699  0.00  0.00    -0.347 N 
ATOM      6  N   UNL     1      10.678   8.667  21.627  0.00  0.00    -0.239 NA
ATOM     16  C   UNL     1      11.309   9.028  20.533  0.00  0.00    +0.121 A 
ATOM     18  C   UNL     1      11.765  10.623  21.983  0.00  0.00    +0.104 A 
ATOM     20  C   UNL     1      10.957   9.658  22.535  0.00  0.00    +0.130 A 
ATOM     28  H   UNL     1      12.542  10.681  20.003  0.00  0.00    +0.167 HD
ENDBRANCH  14  16
ENDBRANCH   3  14
ENDBRANCH  15  10
TORSDOF 8
ENDMDL
MODEL 6
REMARK VINA RESULT:      -6.1     31.371     32.835
REMARK  Name = 45783499
REMARK  9 active torsions:
REMARK  status: ('A' for Active; 'I' for Inactive)
REMARK    1  A    between atoms: O_2  and  C_26
REMARK    2  A    between atoms: O_2  and  C_27
REMARK    3  A    between atoms: N_3  and  C_14
REMARK    4  A    between atoms: N_9  and  C_24
REMARK    5  A    between atoms: N_9  and  C_25
REMARK    6  A    between atoms: C_10  and  C_15
REMARK    7  A    between atoms: C_14  and  C_16
REMARK    8  A    between atoms: C_17  and  C_19
REMARK    9  A    between atoms: C_25  and  C_26
REMARK                            x       y       z     vdW  Elec       q    Type
REMARK                         _______ _______ _______ _____ _____    ______ ____
ROOT
ATOM      1  O   UNL     1     -12.795  -6.271  12.444  0.00  0.00    -0.336 OA
ATOM      4  N   UNL     1     -12.248  -5.346  14.410  0.00  0.00    -0.190 NA
ATOM      7  N   UNL     1     -12.309  -7.313  13.242  0.00  0.00    -0.056 NA
ATOM     15  C   UNL     1     -12.724  -5.148  13.207  0.00  0.00    +0.245 A 
ATOM     17  C   UNL     1     -12.008  -6.689  14.386  0.00  0.00    +0.204 A 
ENDROOT
BRANCH  17  19
ATOM      8  N   UNL     1     -11.824  -8.809  17.435  0.00  0.00    -0.240 NA
ATOM     19  C   UNL     1     -11.464  -7.379  15.520  0.00  0.00    +0.041 A 
ATOM     21  C   UNL     1     -10.107  -7.307  15.820  0.00  0.00    +0.016 A 
ATOM     22  C   UNL     1     -12.273  -8.136  16.352  0.00  0.00    +0.124 A 
ATOM     23  C   UNL     1      -9.609  -7.985  16.927  0.00  0.00    +0.044 A 
ATOM     24  C   UNL     1     -10.500  -8.715  17.695  0.00  0.00    +0.119 A 
BRANCH  24   9
ATOM      9  N   UNL     1      -9.977  -9.402  18.818  0.00  0.00    -0.327 N 
ATOM     29  H   UNL     1      -8.989  -9.276  19.006  0.00  0.00    +0.148 HD
BRANCH   9  25
ATOM     25  C   UNL     1     -10.778 -10.239  19.651  0.00  0.00    +0.131 C 
BRANCH  25  26
ATOM     26  C   UNL     1     -10.005 -11.493  20.025  0.00  0.00    +0.178 C 
BRANCH  26   2
ATOM      2  O   UNL     1      -8.610 -11.223  19.973  0.00  0.00    -0.381 OA
ATOM     27  C   UNL     1      -7.872 -12.369  19.575  0.00  0.00    +0.194 C 
ENDBRANCH  26   2
ENDBRANCH  25  26
ENDBRANCH   9  25
ENDBRANCH  24   9
ENDBRANCH  17  19
BRANCH  15  10
ATOM      3  N   UNL     1     -13.093  -3.894  11.089  0.00  0.00    -0.284 NA
ATOM     10  C   UNL     1     -13.199  -3.863  12.562  0.00  0.00    +0.146 C 
ATOM     11  C   UNL     1     -14.686  -3.572  12.841  0.00  0.00    +0.030 C 
ATOM     12  C   UNL     1     -15.320  -3.395  11.468  0.00  0.00    +0.017 C 
ATOM     13  C   UNL     1     -14.150  -3.021  10.580  0.00  0.00    +0.085 C 
BRANCH   3  14
ATOM     14  C   UNL     1     -11.777  -3.503  10.600  0.00  0.00    +0.159 C 
BRANCH  14  16
ATOM      5  N   UNL     1     -11.610  -5.867   9.789  0.00  0.00    -0.347 N 
ATOM      6  N   UNL     1     -10.139  -4.445   8.927  0.00  0.00    -0.239 NA
ATOM     16  C   UNL     1     -11.150  -4.580   9.756  0.00  0.00    +0.121 A 
ATOM     18  C   UNL     1     -10.844  -6.598   8.924  0.00  0.00    +0.104 A 
ATOM     20  C   UNL     1      -9.944  -5.698   8.404  0.00  0.00    +0.130 A 
ATOM     28  H   UNL     1     -12.375  -6.217  10.351  0.00  0.00    +0.167 HD
ENDBRANCH  14  16
ENDBRANCH   3  14
ENDBRANCH  15  10
TORSDOF 8
ENDMDL
MODEL 7
REMARK VINA RESULT:      -6.1     28.705     32.023
REMARK  Name = 45783499
REMARK  9 active torsions:
REMARK  status: ('A' for Active; 'I' for Inactive)
REMARK    1  A    between atoms: O_2  and  C_26
REMARK    2  A    between atoms: O_2  and  C_27
REMARK    3  A    between atoms: N_3  and  C_14
REMARK    4  A    between atoms: N_9  and  C_24
REMARK    5  A    between atoms: N_9  and  C_25
REMARK    6  A    between atoms: C_10  and  C_15
REMARK    7  A    between atoms: C_14  and  C_16
REMARK    8  A    between atoms: C_17  and  C_19
REMARK    9  A    between atoms: C_25  and  C_26
REMARK                            x       y       z     vdW  Elec       q    Type
REMARK                         _______ _______ _______ _____ _____    ______ ____
ROOT
ATOM      1  O   UNL     1      -7.111 -10.665  15.772  0.00  0.00    -0.336 OA
ATOM      4  N   UNL     1      -7.822  -8.972  17.053  0.00  0.00    -0.190 NA
ATOM      7  N   UNL     1      -8.308 -10.221  15.199  0.00  0.00    -0.056 NA
ATOM     15  C   UNL     1      -6.897  -9.877  16.858  0.00  0.00    +0.245 A 
ATOM     17  C   UNL     1      -8.666  -9.221  16.010  0.00  0.00    +0.204 A 
ENDROOT
BRANCH  17  19
ATOM      8  N   UNL     1     -11.865  -8.053  14.515  0.00  0.00    -0.240 NA
ATOM     19  C   UNL     1      -9.862  -8.453  15.808  0.00  0.00    +0.041 A 
ATOM     21  C   UNL     1     -10.190  -7.402  16.657  0.00  0.00    +0.016 A 
ATOM     22  C   UNL     1     -10.724  -8.736  14.761  0.00  0.00    +0.124 A 
ATOM     23  C   UNL     1     -11.355  -6.675  16.435  0.00  0.00    +0.044 A 
ATOM     24  C   UNL     1     -12.151  -7.037  15.361  0.00  0.00    +0.119 A 
BRANCH  24   9
ATOM      9  N   UNL     1     -13.335  -6.290  15.150  0.00  0.00    -0.327 N 
ATOM     29  H   UNL     1     -14.002  -6.273  15.913  0.00  0.00    +0.148 HD
BRANCH   9  25
ATOM     25  C   UNL     1     -13.600  -5.594  13.933  0.00  0.00    +0.131 C 
BRANCH  25  26
ATOM     26  C   UNL     1     -12.449  -4.657  13.608  0.00  0.00    +0.178 C 
BRANCH  26   2
ATOM      2  O   UNL     1     -12.950  -3.504  12.943  0.00  0.00    -0.381 OA
ATOM     27  C   UNL     1     -12.490  -3.435  11.601  0.00  0.00    +0.194 C 
ENDBRANCH  26   2
ENDBRANCH  25  26
ENDBRANCH   9  25
ENDBRANCH  24   9
ENDBRANCH  17  19
BRANCH  15  10
ATOM      3  N   UNL     1      -5.717 -11.443  18.389  0.00  0.00    -0.284 NA
ATOM     10  C   UNL     1      -5.646 -10.160  17.662  0.00  0.00    +0.146 C 
ATOM     11  C   UNL     1      -4.388 -10.279  16.781  0.00  0.00    +0.030 C 
ATOM     12  C   UNL     1      -3.787 -11.634  17.127  0.00  0.00    +0.017 C 
ATOM     13  C   UNL     1      -4.342 -11.928  18.506  0.00  0.00    +0.085 C 
BRANCH   3  14
ATOM     14  C   UNL     1      -6.371 -11.333  19.687  0.00  0.00    +0.159 C 
BRANCH  14  16
ATOM      5  N   UNL     1      -7.811 -13.367  19.437  0.00  0.00    -0.347 N 
ATOM      6  N   UNL     1      -8.875 -11.489  19.956  0.00  0.00    -0.239 NA
ATOM     16  C   UNL     1      -7.705 -12.030  19.703  0.00  0.00    +0.121 A 
ATOM     18  C   UNL     1      -9.135 -13.698  19.527  0.00  0.00    +0.104 A 
ATOM     20  C   UNL     1      -9.770 -12.523  19.849  0.00  0.00    +0.130 A 
ATOM     28  H   UNL     1      -7.052 -13.996  19.212  0.00  0.00    +0.167 HD
ENDBRANCH  14  16
ENDBRANCH   3  14
ENDBRANCH  15  10
TORSDOF 8
ENDMDL
MODEL 8
REMARK VINA RESULT:      -6.0     26.863     31.139
REMARK  Name = 45783499
REMARK  9 active torsions:
REMARK  status: ('A' for Active; 'I' for Inactive)
REMARK    1  A    between atoms: O_2  and  C_26
REMARK    2  A    between atoms: O_2  and  C_27
REMARK    3  A    between atoms: N_3  and  C_14
REMARK    4  A    between atoms: N_9  and  C_24
REMARK    5  A    between atoms: N_9  and  C_25
REMARK    6  A    between atoms: C_10  and  C_15
REMARK    7  A    between atoms: C_14  and  C_16
REMARK    8  A    between atoms: C_17  and  C_19
REMARK    9  A    between atoms: C_25  and  C_26
REMARK                            x       y       z     vdW  Elec       q    Type
REMARK                         _______ _______ _______ _____ _____    ______ ____
ROOT
ATOM      1  O   UNL     1      -5.535  -9.519  15.662  0.00  0.00    -0.336 OA
ATOM      4  N   UNL     1      -5.886 -11.205  17.093  0.00  0.00    -0.190 NA
ATOM      7  N   UNL     1      -6.736  -9.228  16.319  0.00  0.00    -0.056 NA
ATOM     15  C   UNL     1      -5.101 -10.699  16.177  0.00  0.00    +0.245 A 
ATOM     17  C   UNL     1      -6.876 -10.267  17.147  0.00  0.00    +0.204 A 
ENDROOT
BRANCH  17  19
ATOM      8  N   UNL     1      -8.915 -11.334  20.067  0.00  0.00    -0.240 NA
ATOM     19  C   UNL     1      -7.993 -10.400  18.038  0.00  0.00    +0.041 A 
ATOM     21  C   UNL     1      -9.200  -9.761  17.774  0.00  0.00    +0.016 A 
ATOM     22  C   UNL     1      -7.903 -11.169  19.188  0.00  0.00    +0.124 A 
ATOM     23  C   UNL     1     -10.265  -9.909  18.656  0.00  0.00    +0.044 A 
ATOM     24  C   UNL     1     -10.074 -10.699  19.778  0.00  0.00    +0.119 A 
BRANCH  24   9
ATOM      9  N   UNL     1     -11.167 -10.838  20.667  0.00  0.00    -0.327 N 
ATOM     29  H   UNL     1     -11.014 -11.417  21.484  0.00  0.00    +0.148 HD
BRANCH   9  25
ATOM     25  C   UNL     1     -12.428 -10.210  20.441  0.00  0.00    +0.131 C 
BRANCH  25  26
ATOM     26  C   UNL     1     -13.526 -10.973  21.163  0.00  0.00    +0.178 C 
BRANCH  26   2
ATOM      2  O   UNL     1     -13.053 -12.268  21.510  0.00  0.00    -0.381 OA
ATOM     27  C   UNL     1     -13.479 -12.647  22.812  0.00  0.00    +0.194 C 
ENDBRANCH  26   2
ENDBRANCH  25  26
ENDBRANCH   9  25
ENDBRANCH  24   9
ENDBRANCH  17  19
BRANCH  15  10
ATOM      3  N   UNL     1      -3.414 -10.596  14.350  0.00  0.00    -0.284 NA
ATOM     10  C   UNL     1      -3.799 -11.239  15.623  0.00  0.00    +0.146 C 
ATOM     11  C   UNL     1      -2.605 -10.991  16.563  0.00  0.00    +0.030 C 
ATOM     12  C   UNL     1      -1.576 -10.258  15.714  0.00  0.00    +0.017 C 
ATOM     13  C   UNL     1      -1.953 -10.632  14.295  0.00  0.00    +0.085 C 
BRANCH   3  14
ATOM     14  C   UNL     1      -4.022 -11.222  13.183  0.00  0.00    +0.159 C 
BRANCH  14  16
ATOM      5  N   UNL     1      -3.218 -10.160  11.061  0.00  0.00    -0.347 N 
ATOM      6  N   UNL     1      -5.162  -9.418  11.836  0.00  0.00    -0.239 NA
ATOM     16  C   UNL     1      -4.168 -10.253  12.040  0.00  0.00    +0.121 A 
ATOM     18  C   UNL     1      -3.633  -9.203  10.178  0.00  0.00    +0.104 A 
ATOM     20  C   UNL     1      -4.835  -8.761  10.677  0.00  0.00    +0.130 A 
ATOM     28  H   UNL     1      -2.362 -10.697  11.003  0.00  0.00    +0.167 HD
ENDBRANCH  14  16
ENDBRANCH   3  14
ENDBRANCH  15  10
TORSDOF 8
ENDMDL
MODEL 9
REMARK VINA RESULT:      -6.0     26.910     30.531
REMARK  Name = 45783499
REMARK  9 active torsions:
REMARK  status: ('A' for Active; 'I' for Inactive)
REMARK    1  A    between atoms: O_2  and  C_26
REMARK    2  A    between atoms: O_2  and  C_27
REMARK    3  A    between atoms: N_3  and  C_14
REMARK    4  A    between atoms: N_9  and  C_24
REMARK    5  A    between atoms: N_9  and  C_25
REMARK    6  A    between atoms: C_10  and  C_15
REMARK    7  A    between atoms: C_14  and  C_16
REMARK    8  A    between atoms: C_17  and  C_19
REMARK    9  A    between atoms: C_25  and  C_26
REMARK                            x       y       z     vdW  Elec       q    Type
REMARK                         _______ _______ _______ _____ _____    ______ ____
ROOT
ATOM      1  O   UNL     1      -8.994 -11.148  20.046  0.00  0.00    -0.336 OA
ATOM      4  N   UNL     1      -8.295 -10.245  18.119  0.00  0.00    -0.190 NA
ATOM      7  N   UNL     1      -7.634 -11.462  19.940  0.00  0.00    -0.056 NA
ATOM     15  C   UNL     1      -9.303 -10.431  18.934  0.00  0.00    +0.245 A 
ATOM     17  C   UNL     1      -7.293 -10.895  18.779  0.00  0.00    +0.204 A 
ENDROOT
BRANCH  17  19
ATOM      8  N   UNL     1      -4.386 -10.317  16.533  0.00  0.00    -0.240 NA
ATOM     19  C   UNL     1      -5.961 -10.962  18.250  0.00  0.00    +0.041 A 
ATOM     21  C   UNL     1      -4.971 -11.697  18.893  0.00  0.00    +0.016 A 
ATOM     22  C   UNL     1      -5.621 -10.295  17.084  0.00  0.00    +0.124 A 
ATOM     23  C   UNL     1      -3.689 -11.744  18.356  0.00  0.00    +0.044 A 
ATOM     24  C   UNL     1      -3.450 -11.043  17.185  0.00  0.00    +0.119 A 
BRANCH  24   9
ATOM      9  N   UNL     1      -2.139 -11.098  16.652  0.00  0.00    -0.327 N 
ATOM     29  H   UNL     1      -1.412 -11.436  17.272  0.00  0.00    +0.148 HD
BRANCH   9  25
ATOM     25  C   UNL     1      -1.833 -10.699  15.316  0.00  0.00    +0.131 C 
BRANCH  25  26
ATOM     26  C   UNL     1      -1.898 -11.899  14.387  0.00  0.00    +0.178 C 
BRANCH  26   2
ATOM      2  O   UNL     1      -3.153 -11.915  13.720  0.00  0.00    -0.381 OA
ATOM     27  C   UNL     1      -3.387 -10.700  13.021  0.00  0.00    +0.194 C 
ENDBRANCH  26   2
ENDBRANCH  25  26
ENDBRANCH   9  25
ENDBRANCH  24   9
ENDBRANCH  17  19
BRANCH  15  10
ATOM      3  N   UNL     1     -11.535 -10.820  17.906  0.00  0.00    -0.284 NA
ATOM     10  C   UNL     1     -10.737  -9.964  18.807  0.00  0.00    +0.146 C 
ATOM     11  C   UNL     1     -11.493  -9.998  20.149  0.00  0.00    +0.030 C 
ATOM     12  C   UNL     1     -12.731 -10.844  19.886  0.00  0.00    +0.017 C 
ATOM     13  C   UNL     1     -12.916 -10.751  18.385  0.00  0.00    +0.085 C 
BRANCH   3  14
ATOM     14  C   UNL     1     -11.422 -10.439  16.504  0.00  0.00    +0.159 C 
BRANCH  14  16
ATOM      5  N   UNL     1     -10.042  -8.410  16.002  0.00  0.00    -0.347 N 
ATOM      6  N   UNL     1     -12.175  -8.031  16.486  0.00  0.00    -0.239 NA
ATOM     16  C   UNL     1     -11.251  -8.952  16.338  0.00  0.00    +0.121 A 
ATOM     18  C   UNL     1     -10.207  -7.054  15.930  0.00  0.00    +0.104 A 
ATOM     20  C   UNL     1     -11.532  -6.846  16.232  0.00  0.00    +0.130 A 
ATOM     28  H   UNL     1      -9.182  -8.916  15.839  0.00  0.00    +0.167 HD
ENDBRANCH  14  16
ENDBRANCH   3  14
ENDBRANCH  15  10
TORSDOF 8
ENDMDL
MODEL 10
REMARK VINA RESULT:      -6.0     27.114     31.458
REMARK  Name = 45783499
REMARK  9 active torsions:
REMARK  status: ('A' for Active; 'I' for Inactive)
REMARK    1  A    between atoms: O_2  and  C_26
REMARK    2  A    between atoms: O_2  and  C_27
REMARK    3  A    between atoms: N_3  and  C_14
REMARK    4  A    between atoms: N_9  and  C_24
REMARK    5  A    between atoms: N_9  and  C_25
REMARK    6  A    between atoms: C_10  and  C_15
REMARK    7  A    between atoms: C_14  and  C_16
REMARK    8  A    between atoms: C_17  and  C_19
REMARK    9  A    between atoms: C_25  and  C_26
REMARK                            x       y       z     vdW  Elec       q    Type
REMARK                         _______ _______ _______ _____ _____    ______ ____
ROOT
ATOM      1  O   UNL     1      -9.378 -11.107  20.299  0.00  0.00    -0.336 OA
ATOM      4  N   UNL     1      -9.192 -10.788  18.090  0.00  0.00    -0.190 NA
ATOM      7  N   UNL     1      -8.008 -10.992  20.037  0.00  0.00    -0.056 NA
ATOM     15  C   UNL     1     -10.003 -10.976  19.100  0.00  0.00    +0.245 A 
ATOM     17  C   UNL     1      -7.978 -10.804  18.714  0.00  0.00    +0.204 A 
ENDROOT
BRANCH  17  19
ATOM      8  N   UNL     1      -5.600  -9.703  16.076  0.00  0.00    -0.240 NA
ATOM     19  C   UNL     1      -6.754 -10.633  17.986  0.00  0.00    +0.041 A 
ATOM     21  C   UNL     1      -5.565 -11.195  18.440  0.00  0.00    +0.016 A 
ATOM     22  C   UNL     1      -6.718  -9.903  16.809  0.00  0.00    +0.124 A 
ATOM     23  C   UNL     1      -4.394 -11.012  17.713  0.00  0.00    +0.044 A 
ATOM     24  C   UNL     1      -4.464 -10.266  16.548  0.00  0.00    +0.119 A 
BRANCH  24   9
ATOM      9  N   UNL     1      -3.263 -10.087  15.820  0.00  0.00    -0.327 N 
ATOM     29  H   UNL     1      -3.280  -9.393  15.081  0.00  0.00    +0.148 HD
BRANCH   9  25
ATOM     25  C   UNL     1      -2.079 -10.837  16.090  0.00  0.00    +0.131 C 
BRANCH  25  26
ATOM     26  C   UNL     1      -1.494 -11.370  14.793  0.00  0.00    +0.178 C 
BRANCH  26   2
ATOM      2  O   UNL     1      -2.469 -11.279  13.761  0.00  0.00    -0.381 OA
ATOM     27  C   UNL     1      -2.096 -12.045  12.624  0.00  0.00    +0.194 C 
ENDBRANCH  26   2
ENDBRANCH  25  26
ENDBRANCH   9  25
ENDBRANCH  24   9
ENDBRANCH  17  19
BRANCH  15  10
ATOM      3  N   UNL     1     -12.031 -11.761  20.309  0.00  0.00    -0.284 NA
ATOM     10  C   UNL     1     -11.515 -11.064  19.114  0.00  0.00    +0.146 C 
ATOM     11  C   UNL     1     -12.191  -9.680  19.145  0.00  0.00    +0.030 C 
ATOM     12  C   UNL     1     -13.113  -9.717  20.355  0.00  0.00    +0.017 C 
ATOM     13  C   UNL     1     -13.354 -11.196  20.577  0.00  0.00    +0.085 C 
BRANCH   3  14
ATOM     14  C   UNL     1     -12.076 -13.210  20.155  0.00  0.00    +0.159 C 
BRANCH  14  16
ATOM      5  N   UNL     1     -11.775 -14.110  22.473  0.00  0.00    -0.347 N 
ATOM      6  N   UNL     1     -10.057 -14.395  21.096  0.00  0.00    -0.239 NA
ATOM     16  C   UNL     1     -11.272 -13.911  21.218  0.00  0.00    +0.121 A 
ATOM     18  C   UNL     1     -10.818 -14.764  23.198  0.00  0.00    +0.104 A 
ATOM     20  C   UNL     1      -9.768 -14.930  22.327  0.00  0.00    +0.130 A 
ATOM     28  H   UNL     1     -12.686 -13.824  22.807  0.00  0.00    +0.167 HD
ENDBRANCH  14  16
ENDBRANCH   3  14
ENDBRANCH  15  10
TORSDOF 8
ENDMDL
