MODEL 1
REMARK VINA RESULT:      -6.7      0.000      0.000
REMARK  Name = 75536813
REMARK  7 active torsions:
REMARK  status: ('A' for Active; 'I' for Inactive)
REMARK    1  A    between atoms: O_2  and  C_9
REMARK    2  A    between atoms: N_4  and  C_7
REMARK    3  A    between atoms: N_4  and  C_8
REMARK    4  A    between atoms: N_5  and  C_23
REMARK    5  A    between atoms: N_6  and  C_15
REMARK    6  A    between atoms: C_10  and  C_15
REMARK    7  A    between atoms: C_14  and  C_22
REMARK                            x       y       z     vdW  Elec       q    Type
REMARK                         _______ _______ _______ _____ _____    ______ ____
ROOT
ATOM      1  O   UNL     1      11.383   6.932  20.542  0.00  0.00    -0.371 OA
ATOM      7  C   UNL     1      13.757   7.014  20.576  0.00  0.00    +0.111 C 
ATOM      9  C   UNL     1      13.210   8.177  21.383  0.00  0.00    +0.164 C 
ATOM     10  C   UNL     1      11.803   7.683  21.693  0.00  0.00    +0.165 C 
ATOM     11  C   UNL     1      12.543   6.626  19.748  0.00  0.00    +0.181 C 
ENDROOT
BRANCH   9   2
ATOM      2  O   UNL     1      13.955   8.424  22.559  0.00  0.00    -0.388 OA
ATOM     26  H   UNL     1      13.522   9.143  23.049  0.00  0.00    +0.210 HD
ENDBRANCH   9   2
BRANCH   7   4
ATOM      4  N   UNL     1      14.910   7.360  19.760  0.00  0.00    -0.306 NA
ATOM     24  H   UNL     1      15.047   8.371  19.757  0.00  0.00    +0.123 HD
BRANCH   4   8
ATOM      5  N   UNL     1      19.030   6.463  20.288  0.00  0.00    -0.305 NA
ATOM      8  C   UNL     1      16.113   6.695  20.253  0.00  0.00    +0.056 C 
ATOM     12  C   UNL     1      16.896   6.055  19.103  0.00  0.00    +0.034 C 
ATOM     13  C   UNL     1      17.004   7.694  20.998  0.00  0.00    +0.034 C 
ATOM     16  C   UNL     1      18.212   5.452  19.603  0.00  0.00    +0.085 C 
ATOM     17  C   UNL     1      18.316   7.038  21.436  0.00  0.00    +0.085 C 
ATOM     23  C   UNL     1      20.304   5.885  20.715  0.00  0.00    +0.104 C 
ENDBRANCH   4   8
ENDBRANCH   7   4
BRANCH  10  15
ATOM     15  C   UNL     1      10.818   8.806  21.961  0.00  0.00    +0.138 C 
BRANCH  15   6
ATOM      3  O   UNL     1      11.207  11.666  21.648  0.00  0.00    -0.276 OA
ATOM      6  N   UNL     1      11.329   9.728  22.934  0.00  0.00    -0.313 N 
ATOM     22  C   UNL     1      11.483  11.089  22.696  0.00  0.00    +0.216 C 
ATOM     25  H   UNL     1      11.587   9.354  23.843  0.00  0.00    +0.149 HD
BRANCH  22  14
ATOM     14  C   UNL     1      12.013  11.826  23.888  0.00  0.00    +0.075 C 
ATOM     18  C   UNL     1      12.002  13.335  23.637  0.00  0.00    +0.013 C 
ATOM     19  C   UNL     1      11.112  11.587  25.105  0.00  0.00    +0.013 C 
ATOM     20  C   UNL     1      10.747  13.832  24.339  0.00  0.00    +0.001 C 
ATOM     21  C   UNL     1      10.687  12.971  25.586  0.00  0.00    +0.001 C 
ENDBRANCH  22  14
ENDBRANCH  15   6
ENDBRANCH  10  15
TORSDOF 6
ENDMDL
MODEL 2
REMARK VINA RESULT:      -6.3     26.089     28.469
REMARK  Name = 75536813
REMARK  7 active torsions:
REMARK  status: ('A' for Active; 'I' for Inactive)
REMARK    1  A    between atoms: O_2  and  C_9
REMARK    2  A    between atoms: N_4  and  C_7
REMARK    3  A    between atoms: N_4  and  C_8
REMARK    4  A    between atoms: N_5  and  C_23
REMARK    5  A    between atoms: N_6  and  C_15
REMARK    6  A    between atoms: C_10  and  C_15
REMARK    7  A    between atoms: C_14  and  C_22
REMARK                            x       y       z     vdW  Elec       q    Type
REMARK                         _______ _______ _______ _____ _____    ______ ____
ROOT
ATOM      1  O   UNL     1      -1.104 -11.356  15.189  0.00  0.00    -0.371 OA
ATOM      7  C   UNL     1      -3.286 -10.943  16.033  0.00  0.00    +0.111 C 
ATOM      9  C   UNL     1      -3.399 -11.630  14.684  0.00  0.00    +0.164 C 
ATOM     10  C   UNL     1      -2.021 -12.270  14.565  0.00  0.00    +0.165 C 
ATOM     11  C   UNL     1      -1.857 -10.427  15.987  0.00  0.00    +0.181 C 
ENDROOT
BRANCH   9   2
ATOM      2  O   UNL     1      -4.434 -12.594  14.647  0.00  0.00    -0.388 OA
ATOM     26  H   UNL     1      -4.323 -13.129  13.843  0.00  0.00    +0.210 HD
ENDBRANCH   9   2
BRANCH   7   4
ATOM      4  N   UNL     1      -4.263  -9.885  16.231  0.00  0.00    -0.306 NA
ATOM     24  H   UNL     1      -4.804  -9.740  15.379  0.00  0.00    +0.123 HD
BRANCH   4   8
ATOM      5  N   UNL     1      -6.861 -12.142  18.725  0.00  0.00    -0.305 NA
ATOM      8  C   UNL     1      -5.158 -10.206  17.340  0.00  0.00    +0.056 C 
ATOM     12  C   UNL     1      -6.552 -10.582  16.828  0.00  0.00    +0.034 C 
ATOM     13  C   UNL     1      -4.580 -11.355  18.172  0.00  0.00    +0.034 C 
ATOM     16  C   UNL     1      -7.459 -11.024  17.980  0.00  0.00    +0.085 C 
ATOM     17  C   UNL     1      -5.551 -11.772  19.279  0.00  0.00    +0.085 C 
ATOM     23  C   UNL     1      -7.762 -12.586  19.789  0.00  0.00    +0.104 C 
ENDBRANCH   4   8
ENDBRANCH   7   4
BRANCH  10  15
ATOM     15  C   UNL     1      -1.599 -12.521  13.129  0.00  0.00    +0.138 C 
BRANCH  15   6
ATOM      3  O   UNL     1      -1.559  -9.999  11.692  0.00  0.00    -0.276 OA
ATOM      6  N   UNL     1      -2.578 -12.030  12.203  0.00  0.00    -0.313 N 
ATOM     22  C   UNL     1      -2.477 -10.803  11.557  0.00  0.00    +0.216 C 
ATOM     25  H   UNL     1      -3.383 -12.621  12.015  0.00  0.00    +0.149 HD
BRANCH  22  14
ATOM     14  C   UNL     1      -3.622 -10.547  10.625  0.00  0.00    +0.075 C 
ATOM     18  C   UNL     1      -4.953 -10.598  11.379  0.00  0.00    +0.013 C 
ATOM     19  C   UNL     1      -3.520  -9.138  10.030  0.00  0.00    +0.013 C 
ATOM     20  C   UNL     1      -5.304  -9.140  11.636  0.00  0.00    +0.001 C 
ATOM     21  C   UNL     1      -4.836  -8.446  10.370  0.00  0.00    +0.001 C 
ENDBRANCH  22  14
ENDBRANCH  15   6
ENDBRANCH  10  15
TORSDOF 6
ENDMDL
MODEL 3
REMARK VINA RESULT:      -6.2      1.725      7.831
REMARK  Name = 75536813
REMARK  7 active torsions:
REMARK  status: ('A' for Active; 'I' for Inactive)
REMARK    1  A    between atoms: O_2  and  C_9
REMARK    2  A    between atoms: N_4  and  C_7
REMARK    3  A    between atoms: N_4  and  C_8
REMARK    4  A    between atoms: N_5  and  C_23
REMARK    5  A    between atoms: N_6  and  C_15
REMARK    6  A    between atoms: C_10  and  C_15
REMARK    7  A    between atoms: C_14  and  C_22
REMARK                            x       y       z     vdW  Elec       q    Type
REMARK                         _______ _______ _______ _____ _____    ______ ____
ROOT
ATOM      1  O   UNL     1      10.677   7.673  21.103  0.00  0.00    -0.371 OA
ATOM      7  C   UNL     1      11.532   9.648  22.109  0.00  0.00    +0.111 C 
ATOM      9  C   UNL     1      12.586   9.068  21.183  0.00  0.00    +0.164 C 
ATOM     10  C   UNL     1      11.730   8.195  20.275  0.00  0.00    +0.165 C 
ATOM     11  C   UNL     1      10.618   8.450  22.312  0.00  0.00    +0.181 C 
ENDROOT
BRANCH   9   2
ATOM      2  O   UNL     1      13.282  10.062  20.457  0.00  0.00    -0.388 OA
ATOM     26  H   UNL     1      14.204   9.772  20.351  0.00  0.00    +0.210 HD
ENDBRANCH   9   2
BRANCH   7   4
ATOM      4  N   UNL     1      12.072  10.165  23.356  0.00  0.00    -0.306 NA
ATOM     24  H   UNL     1      13.078  10.007  23.396  0.00  0.00    +0.123 HD
BRANCH   4   8
ATOM      5  N   UNL     1       9.839  13.772  23.615  0.00  0.00    -0.305 NA
ATOM      8  C   UNL     1      11.786  11.591  23.494  0.00  0.00    +0.056 C 
ATOM     12  C   UNL     1      11.088  12.134  22.243  0.00  0.00    +0.034 C 
ATOM     13  C   UNL     1      10.915  11.841  24.728  0.00  0.00    +0.034 C 
ATOM     16  C   UNL     1      10.691  13.600  22.429  0.00  0.00    +0.085 C 
ATOM     17  C   UNL     1      10.523  13.317  24.833  0.00  0.00    +0.085 C 
ATOM     23  C   UNL     1       9.426  15.169  23.750  0.00  0.00    +0.104 C 
ENDBRANCH   4   8
ENDBRANCH   7   4
BRANCH  10  15
ATOM     15  C   UNL     1      12.500   7.050  19.642  0.00  0.00    +0.138 C 
BRANCH  15   6
ATOM      3  O   UNL     1      14.855   6.059  21.021  0.00  0.00    -0.276 OA
ATOM      6  N   UNL     1      13.867   7.411  19.401  0.00  0.00    -0.313 N 
ATOM     22  C   UNL     1      14.937   6.883  20.114  0.00  0.00    +0.216 C 
ATOM     25  H   UNL     1      14.050   8.088  18.666  0.00  0.00    +0.149 HD
BRANCH  22  14
ATOM     14  C   UNL     1      16.259   7.412  19.644  0.00  0.00    +0.075 C 
ATOM     18  C   UNL     1      16.715   8.580  20.520  0.00  0.00    +0.013 C 
ATOM     19  C   UNL     1      17.340   6.332  19.771  0.00  0.00    +0.013 C 
ATOM     20  C   UNL     1      17.713   7.964  21.491  0.00  0.00    +0.001 C 
ATOM     21  C   UNL     1      18.438   6.943  20.635  0.00  0.00    +0.001 C 
ENDBRANCH  22  14
ENDBRANCH  15   6
ENDBRANCH  10  15
TORSDOF 6
ENDMDL
MODEL 4
REMARK VINA RESULT:      -6.1      4.194      6.549
REMARK  Name = 75536813
REMARK  7 active torsions:
REMARK  status: ('A' for Active; 'I' for Inactive)
REMARK    1  A    between atoms: O_2  and  C_9
REMARK    2  A    between atoms: N_4  and  C_7
REMARK    3  A    between atoms: N_4  and  C_8
REMARK    4  A    between atoms: N_5  and  C_23
REMARK    5  A    between atoms: N_6  and  C_15
REMARK    6  A    between atoms: C_10  and  C_15
REMARK    7  A    between atoms: C_14  and  C_22
REMARK                            x       y       z     vdW  Elec       q    Type
REMARK                         _______ _______ _______ _____ _____    ______ ____
ROOT
ATOM      1  O   UNL     1      18.050   7.086  21.500  0.00  0.00    -0.371 OA
ATOM      7  C   UNL     1      19.492   5.851  20.071  0.00  0.00    +0.111 C 
ATOM      9  C   UNL     1      18.051   5.543  19.707  0.00  0.00    +0.164 C 
ATOM     10  C   UNL     1      17.334   6.748  20.301  0.00  0.00    +0.165 C 
ATOM     11  C   UNL     1      19.331   6.432  21.466  0.00  0.00    +0.181 C 
ENDROOT
BRANCH   9   2
ATOM      2  O   UNL     1      17.849   5.443  18.311  0.00  0.00    -0.388 OA
ATOM     26  H   UNL     1      18.662   5.090  17.910  0.00  0.00    +0.210 HD
ENDBRANCH   9   2
BRANCH   7   4
ATOM      4  N   UNL     1      20.363   4.688  20.039  0.00  0.00    -0.306 NA
ATOM     24  H   UNL     1      20.790   4.593  19.118  0.00  0.00    +0.123 HD
BRANCH   4   8
ATOM      5  N   UNL     1      24.070   4.071  22.024  0.00  0.00    -0.305 NA
ATOM      8  C   UNL     1      21.403   4.791  21.061  0.00  0.00    +0.056 C 
ATOM     12  C   UNL     1      21.709   3.420  21.671  0.00  0.00    +0.034 C 
ATOM     13  C   UNL     1      22.677   5.393  20.462  0.00  0.00    +0.034 C 
ATOM     16  C   UNL     1      22.872   3.508  22.663  0.00  0.00    +0.085 C 
ATOM     17  C   UNL     1      23.809   5.416  21.493  0.00  0.00    +0.085 C 
ATOM     23  C   UNL     1      25.187   4.102  22.970  0.00  0.00    +0.104 C 
ENDBRANCH   4   8
ENDBRANCH   7   4
BRANCH  10  15
ATOM     15  C   UNL     1      15.877   6.477  20.632  0.00  0.00    +0.138 C 
BRANCH  15   6
ATOM      3  O   UNL     1      12.994   6.805  20.684  0.00  0.00    -0.276 OA
ATOM      6  N   UNL     1      15.020   6.821  19.535  0.00  0.00    -0.313 N 
ATOM     22  C   UNL     1      13.641   6.956  19.652  0.00  0.00    +0.216 C 
ATOM     25  H   UNL     1      15.455   6.971  18.629  0.00  0.00    +0.149 HD
BRANCH  22  14
ATOM     14  C   UNL     1      12.989   7.345  18.359  0.00  0.00    +0.075 C 
ATOM     18  C   UNL     1      12.125   8.593  18.545  0.00  0.00    +0.013 C 
ATOM     19  C   UNL     1      14.051   7.709  17.315  0.00  0.00    +0.013 C 
ATOM     20  C   UNL     1      12.990   9.738  18.037  0.00  0.00    +0.001 C 
ATOM     21  C   UNL     1      13.712   9.122  16.853  0.00  0.00    +0.001 C 
ENDBRANCH  22  14
ENDBRANCH  15   6
ENDBRANCH  10  15
TORSDOF 6
ENDMDL
MODEL 5
REMARK VINA RESULT:      -6.0     28.052     30.614
REMARK  Name = 75536813
REMARK  7 active torsions:
REMARK  status: ('A' for Active; 'I' for Inactive)
REMARK    1  A    between atoms: O_2  and  C_9
REMARK    2  A    between atoms: N_4  and  C_7
REMARK    3  A    between atoms: N_4  and  C_8
REMARK    4  A    between atoms: N_5  and  C_23
REMARK    5  A    between atoms: N_6  and  C_15
REMARK    6  A    between atoms: C_10  and  C_15
REMARK    7  A    between atoms: C_14  and  C_22
REMARK                            x       y       z     vdW  Elec       q    Type
REMARK                         _______ _______ _______ _____ _____    ______ ____
ROOT
ATOM      1  O   UNL     1     -17.072   1.301  25.397  0.00  0.00    -0.371 OA
ATOM      7  C   UNL     1     -16.006   3.422  25.295  0.00  0.00    +0.111 C 
ATOM      9  C   UNL     1     -16.257   3.064  26.748  0.00  0.00    +0.164 C 
ATOM     10  C   UNL     1     -16.421   1.552  26.654  0.00  0.00    +0.165 C 
ATOM     11  C   UNL     1     -16.967   2.483  24.584  0.00  0.00    +0.181 C 
ENDROOT
BRANCH   9   2
ATOM      2  O   UNL     1     -15.183   3.426  27.594  0.00  0.00    -0.388 OA
ATOM     26  H   UNL     1     -15.239   4.382  27.765  0.00  0.00    +0.210 HD
ENDBRANCH   9   2
BRANCH   7   4
ATOM      4  N   UNL     1     -16.252   4.822  24.988  0.00  0.00    -0.306 NA
ATOM     24  H   UNL     1     -15.812   5.418  25.688  0.00  0.00    +0.123 HD
BRANCH   4   8
ATOM      5  N   UNL     1     -13.905   6.685  21.975  0.00  0.00    -0.305 NA
ATOM      8  C   UNL     1     -15.747   5.158  23.659  0.00  0.00    +0.056 C 
ATOM     12  C   UNL     1     -15.962   6.643  23.351  0.00  0.00    +0.034 C 
ATOM     13  C   UNL     1     -14.258   4.813  23.555  0.00  0.00    +0.034 C 
ATOM     16  C   UNL     1     -15.336   7.020  22.006  0.00  0.00    +0.085 C 
ATOM     17  C   UNL     1     -13.688   5.250  22.203  0.00  0.00    +0.085 C 
ATOM     23  C   UNL     1     -13.311   7.098  20.703  0.00  0.00    +0.104 C 
ENDBRANCH   4   8
ENDBRANCH   7   4
BRANCH  10  15
ATOM     15  C   UNL     1     -17.246   0.966  27.785  0.00  0.00    +0.138 C 
BRANCH  15   6
ATOM      3  O   UNL     1     -15.008  -0.186  29.231  0.00  0.00    -0.276 OA
ATOM      6  N   UNL     1     -16.737   1.367  29.064  0.00  0.00    -0.313 N 
ATOM     22  C   UNL     1     -15.655   0.754  29.686  0.00  0.00    +0.216 C 
ATOM     25  H   UNL     1     -17.200   2.142  29.531  0.00  0.00    +0.149 HD
BRANCH  22  14
ATOM     14  C   UNL     1     -15.315   1.384  31.003  0.00  0.00    +0.075 C 
ATOM     18  C   UNL     1     -13.798   1.488  31.175  0.00  0.00    +0.013 C 
ATOM     19  C   UNL     1     -15.854   2.817  31.063  0.00  0.00    +0.013 C 
ATOM     20  C   UNL     1     -13.469   2.928  30.809  0.00  0.00    +0.001 C 
ATOM     21  C   UNL     1     -14.649   3.702  31.368  0.00  0.00    +0.001 C 
ENDBRANCH  22  14
ENDBRANCH  15   6
ENDBRANCH  10  15
TORSDOF 6
ENDMDL
MODEL 6
REMARK VINA RESULT:      -6.0      4.109      6.032
REMARK  Name = 75536813
REMARK  7 active torsions:
REMARK  status: ('A' for Active; 'I' for Inactive)
REMARK    1  A    between atoms: O_2  and  C_9
REMARK    2  A    between atoms: N_4  and  C_7
REMARK    3  A    between atoms: N_4  and  C_8
REMARK    4  A    between atoms: N_5  and  C_23
REMARK    5  A    between atoms: N_6  and  C_15
REMARK    6  A    between atoms: C_10  and  C_15
REMARK    7  A    between atoms: C_14  and  C_22
REMARK                            x       y       z     vdW  Elec       q    Type
REMARK                         _______ _______ _______ _____ _____    ______ ____
ROOT
ATOM      1  O   UNL     1      16.619   6.187  19.934  0.00  0.00    -0.371 OA
ATOM      7  C   UNL     1      18.862   6.419  20.680  0.00  0.00    +0.111 C 
ATOM      9  C   UNL     1      18.061   7.623  21.139  0.00  0.00    +0.164 C 
ATOM     10  C   UNL     1      16.641   7.078  21.061  0.00  0.00    +0.165 C 
ATOM     11  C   UNL     1      17.975   5.872  19.573  0.00  0.00    +0.181 C 
ENDROOT
BRANCH   9   2
ATOM      2  O   UNL     1      18.398   8.036  22.450  0.00  0.00    -0.388 OA
ATOM     26  H   UNL     1      18.821   8.909  22.395  0.00  0.00    +0.210 HD
ENDBRANCH   9   2
BRANCH   7   4
ATOM      4  N   UNL     1      20.201   6.749  20.220  0.00  0.00    -0.306 NA
ATOM     24  H   UNL     1      20.403   7.732  20.402  0.00  0.00    +0.123 HD
BRANCH   4   8
ATOM      5  N   UNL     1      21.843   3.785  22.785  0.00  0.00    -0.305 NA
ATOM      8  C   UNL     1      21.198   5.906  20.875  0.00  0.00    +0.056 C 
ATOM     12  C   UNL     1      21.208   6.144  22.388  0.00  0.00    +0.034 C 
ATOM     13  C   UNL     1      20.921   4.429  20.580  0.00  0.00    +0.034 C 
ATOM     16  C   UNL     1      22.174   5.185  23.088  0.00  0.00    +0.085 C 
ATOM     17  C   UNL     1      21.896   3.526  21.340  0.00  0.00    +0.085 C 
ATOM     23  C   UNL     1      22.742   2.880  23.501  0.00  0.00    +0.104 C 
ENDBRANCH   4   8
ENDBRANCH   7   4
BRANCH  10  15
ATOM     15  C   UNL     1      15.592   8.160  20.882  0.00  0.00    +0.138 C 
BRANCH  15   6
ATOM      3  O   UNL     1      12.850   7.244  20.609  0.00  0.00    -0.276 OA
ATOM      6  N   UNL     1      14.852   7.974  19.667  0.00  0.00    -0.313 N 
ATOM     22  C   UNL     1      13.536   7.529  19.631  0.00  0.00    +0.216 C 
ATOM     25  H   UNL     1      15.326   8.184  18.794  0.00  0.00    +0.149 HD
BRANCH  22  14
ATOM     14  C   UNL     1      12.994   7.446  18.236  0.00  0.00    +0.075 C 
ATOM     18  C   UNL     1      11.948   8.537  17.998  0.00  0.00    +0.013 C 
ATOM     19  C   UNL     1      14.111   7.693  17.215  0.00  0.00    +0.013 C 
ATOM     20  C   UNL     1      12.698   9.634  17.257  0.00  0.00    +0.001 C 
ATOM     21  C   UNL     1      13.635   8.856  16.351  0.00  0.00    +0.001 C 
ENDBRANCH  22  14
ENDBRANCH  15   6
ENDBRANCH  10  15
TORSDOF 6
ENDMDL
MODEL 7
REMARK VINA RESULT:      -5.9      3.188      5.431
REMARK  Name = 75536813
REMARK  7 active torsions:
REMARK  status: ('A' for Active; 'I' for Inactive)
REMARK    1  A    between atoms: O_2  and  C_9
REMARK    2  A    between atoms: N_4  and  C_7
REMARK    3  A    between atoms: N_4  and  C_8
REMARK    4  A    between atoms: N_5  and  C_23
REMARK    5  A    between atoms: N_6  and  C_15
REMARK    6  A    between atoms: C_10  and  C_15
REMARK    7  A    between atoms: C_14  and  C_22
REMARK                            x       y       z     vdW  Elec       q    Type
REMARK                         _______ _______ _______ _____ _____    ______ ____
ROOT
ATOM      1  O   UNL     1      16.852   8.342  20.535  0.00  0.00    -0.371 OA
ATOM      7  C   UNL     1      18.840   7.267  21.266  0.00  0.00    +0.111 C 
ATOM      9  C   UNL     1      17.945   6.245  20.590  0.00  0.00    +0.164 C 
ATOM     10  C   UNL     1      17.045   7.149  19.757  0.00  0.00    +0.165 C 
ATOM     11  C   UNL     1      17.849   8.379  21.570  0.00  0.00    +0.181 C 
ENDROOT
BRANCH   9   2
ATOM      2  O   UNL     1      18.667   5.333  19.785  0.00  0.00    -0.388 OA
ATOM     26  H   UNL     1      18.117   4.543  19.650  0.00  0.00    +0.210 HD
ENDBRANCH   9   2
BRANCH   7   4
ATOM      4  N   UNL     1      19.506   6.762  22.456  0.00  0.00    -0.306 NA
ATOM     24  H   UNL     1      19.142   5.841  22.699  0.00  0.00    +0.123 HD
BRANCH   4   8
ATOM      5  N   UNL     1      23.225   5.789  20.643  0.00  0.00    -0.305 NA
ATOM      8  C   UNL     1      20.951   6.688  22.250  0.00  0.00    +0.056 C 
ATOM     12  C   UNL     1      21.432   5.234  22.256  0.00  0.00    +0.034 C 
ATOM     13  C   UNL     1      21.333   7.359  20.927  0.00  0.00    +0.034 C 
ATOM     16  C   UNL     1      22.926   5.149  21.932  0.00  0.00    +0.085 C 
ATOM     17  C   UNL     1      22.830   7.204  20.647  0.00  0.00    +0.085 C 
ATOM     23  C   UNL     1      24.647   5.655  20.324  0.00  0.00    +0.104 C 
ENDBRANCH   4   8
ENDBRANCH   7   4
BRANCH  10  15
ATOM     15  C   UNL     1      15.700   6.523  19.434  0.00  0.00    +0.138 C 
BRANCH  15   6
ATOM      3  O   UNL     1      12.825   6.872  19.226  0.00  0.00    -0.276 OA
ATOM      6  N   UNL     1      14.765   6.712  20.506  0.00  0.00    -0.313 N 
ATOM     22  C   UNL     1      13.398   6.872  20.312  0.00  0.00    +0.216 C 
ATOM     25  H   UNL     1      15.134   6.726  21.452  0.00  0.00    +0.149 HD
BRANCH  22  14
ATOM     14  C   UNL     1      12.648   7.027  21.601  0.00  0.00    +0.075 C 
ATOM     18  C   UNL     1      12.381   8.504  21.896  0.00  0.00    +0.013 C 
ATOM     19  C   UNL     1      11.275   6.354  21.502  0.00  0.00    +0.013 C 
ATOM     20  C   UNL     1      10.944   8.731  21.449  0.00  0.00    +0.001 C 
ATOM     21  C   UNL     1      10.255   7.436  21.841  0.00  0.00    +0.001 C 
ENDBRANCH  22  14
ENDBRANCH  15   6
ENDBRANCH  10  15
TORSDOF 6
ENDMDL
MODEL 8
REMARK VINA RESULT:      -5.9     29.880     31.439
REMARK  Name = 75536813
REMARK  7 active torsions:
REMARK  status: ('A' for Active; 'I' for Inactive)
REMARK    1  A    between atoms: O_2  and  C_9
REMARK    2  A    between atoms: N_4  and  C_7
REMARK    3  A    between atoms: N_4  and  C_8
REMARK    4  A    between atoms: N_5  and  C_23
REMARK    5  A    between atoms: N_6  and  C_15
REMARK    6  A    between atoms: C_10  and  C_15
REMARK    7  A    between atoms: C_14  and  C_22
REMARK                            x       y       z     vdW  Elec       q    Type
REMARK                         _______ _______ _______ _____ _____    ______ ____
ROOT
ATOM      1  O   UNL     1     -16.395   0.213  29.224  0.00  0.00    -0.371 OA
ATOM      7  C   UNL     1     -16.649   2.136  27.853  0.00  0.00    +0.111 C 
ATOM      9  C   UNL     1     -15.791   2.493  29.053  0.00  0.00    +0.164 C 
ATOM     10  C   UNL     1     -15.309   1.116  29.489  0.00  0.00    +0.165 C 
ATOM     11  C   UNL     1     -17.321   0.860  28.334  0.00  0.00    +0.181 C 
ENDROOT
BRANCH   9   2
ATOM      2  O   UNL     1     -14.715   3.349  28.719  0.00  0.00    -0.388 OA
ATOM     26  H   UNL     1     -15.024   3.981  28.049  0.00  0.00    +0.210 HD
ENDBRANCH   9   2
BRANCH   7   4
ATOM      4  N   UNL     1     -17.601   3.173  27.487  0.00  0.00    -0.306 NA
ATOM     24  H   UNL     1     -17.496   3.979  28.102  0.00  0.00    +0.123 HD
BRANCH   4   8
ATOM      5  N   UNL     1     -15.734   4.774  24.021  0.00  0.00    -0.305 NA
ATOM      8  C   UNL     1     -17.416   3.580  26.096  0.00  0.00    +0.056 C 
ATOM     12  C   UNL     1     -17.198   5.092  25.991  0.00  0.00    +0.034 C 
ATOM     13  C   UNL     1     -16.227   2.836  25.480  0.00  0.00    +0.034 C 
ATOM     16  C   UNL     1     -16.896   5.504  24.548  0.00  0.00    +0.085 C 
ATOM     17  C   UNL     1     -15.957   3.322  24.054  0.00  0.00    +0.085 C 
ATOM     23  C   UNL     1     -15.427   5.216  22.661  0.00  0.00    +0.104 C 
ENDBRANCH   4   8
ENDBRANCH   7   4
BRANCH  10  15
ATOM     15  C   UNL     1     -14.933   1.049  30.958  0.00  0.00    +0.138 C 
BRANCH  15   6
ATOM      3  O   UNL     1     -14.612   1.637  33.783  0.00  0.00    -0.276 OA
ATOM      6  N   UNL     1     -15.248   2.274  31.634  0.00  0.00    -0.313 N 
ATOM     22  C   UNL     1     -15.061   2.468  32.998  0.00  0.00    +0.216 C 
ATOM     25  H   UNL     1     -15.625   3.034  31.075  0.00  0.00    +0.149 HD
BRANCH  22  14
ATOM     14  C   UNL     1     -15.448   3.847  33.442  0.00  0.00    +0.075 C 
ATOM     18  C   UNL     1     -14.215   4.635  33.888  0.00  0.00    +0.013 C 
ATOM     19  C   UNL     1     -16.058   4.630  32.274  0.00  0.00    +0.013 C 
ATOM     20  C   UNL     1     -13.864   5.508  32.692  0.00  0.00    +0.001 C 
ATOM     21  C   UNL     1     -15.223   5.899  32.143  0.00  0.00    +0.001 C 
ENDBRANCH  22  14
ENDBRANCH  15   6
ENDBRANCH  10  15
TORSDOF 6
ENDMDL
MODEL 9
REMARK VINA RESULT:      -5.8     27.328     28.799
REMARK  Name = 75536813
REMARK  7 active torsions:
REMARK  status: ('A' for Active; 'I' for Inactive)
REMARK    1  A    between atoms: O_2  and  C_9
REMARK    2  A    between atoms: N_4  and  C_7
REMARK    3  A    between atoms: N_4  and  C_8
REMARK    4  A    between atoms: N_5  and  C_23
REMARK    5  A    between atoms: N_6  and  C_15
REMARK    6  A    between atoms: C_10  and  C_15
REMARK    7  A    between atoms: C_14  and  C_22
REMARK                            x       y       z     vdW  Elec       q    Type
REMARK                         _______ _______ _______ _____ _____    ______ ____
ROOT
ATOM      1  O   UNL     1      -3.389 -14.122  12.735  0.00  0.00    -0.371 OA
ATOM      7  C   UNL     1      -2.192 -12.072  12.835  0.00  0.00    +0.111 C 
ATOM      9  C   UNL     1      -2.767 -12.376  14.206  0.00  0.00    +0.164 C 
ATOM     10  C   UNL     1      -3.004 -13.877  14.098  0.00  0.00    +0.165 C 
ATOM     11  C   UNL     1      -3.039 -12.971  11.948  0.00  0.00    +0.181 C 
ENDROOT
BRANCH   9   2
ATOM      2  O   UNL     1      -1.875 -12.056  15.256  0.00  0.00    -0.388 OA
ATOM     26  H   UNL     1      -0.971 -12.056  14.898  0.00  0.00    +0.210 HD
ENDBRANCH   9   2
BRANCH   7   4
ATOM      4  N   UNL     1      -2.277 -10.669  12.464  0.00  0.00    -0.306 NA
ATOM     24  H   UNL     1      -1.389 -10.353  12.077  0.00  0.00    +0.123 HD
BRANCH   4   8
ATOM      5  N   UNL     1      -5.219  -8.635  10.168  0.00  0.00    -0.305 NA
ATOM      8  C   UNL     1      -3.349 -10.453  11.495  0.00  0.00    +0.056 C 
ATOM     12  C   UNL     1      -4.616  -9.939  12.183  0.00  0.00    +0.034 C 
ATOM     13  C   UNL     1      -2.898  -9.459  10.420  0.00  0.00    +0.034 C 
ATOM     16  C   UNL     1      -5.703  -9.609  11.157  0.00  0.00    +0.085 C 
ATOM     17  C   UNL     1      -4.041  -9.144   9.451  0.00  0.00    +0.085 C 
ATOM     23  C   UNL     1      -6.284  -8.291   9.226  0.00  0.00    +0.104 C 
ENDBRANCH   4   8
ENDBRANCH   7   4
BRANCH  10  15
ATOM     15  C   UNL     1      -4.085 -14.383  15.036  0.00  0.00    +0.138 C 
BRANCH  15   6
ATOM      3  O   UNL     1      -6.231 -14.238  16.986  0.00  0.00    -0.276 OA
ATOM      6  N   UNL     1      -4.095 -13.647  16.267  0.00  0.00    -0.313 N 
ATOM     22  C   UNL     1      -5.173 -13.634  17.145  0.00  0.00    +0.216 C 
ATOM     25  H   UNL     1      -3.264 -13.111  16.499  0.00  0.00    +0.149 HD
BRANCH  22  14
ATOM     14  C   UNL     1      -4.912 -12.805  18.366  0.00  0.00    +0.075 C 
ATOM     18  C   UNL     1      -4.095 -11.562  18.008  0.00  0.00    +0.013 C 
ATOM     19  C   UNL     1      -6.231 -12.297  18.957  0.00  0.00    +0.013 C 
ATOM     20  C   UNL     1      -5.122 -10.444  17.909  0.00  0.00    +0.001 C 
ATOM     21  C   UNL     1      -6.102 -10.778  19.019  0.00  0.00    +0.001 C 
ENDBRANCH  22  14
ENDBRANCH  15   6
ENDBRANCH  10  15
TORSDOF 6
ENDMDL
MODEL 10
REMARK VINA RESULT:      -5.8     26.754     28.897
REMARK  Name = 75536813
REMARK  7 active torsions:
REMARK  status: ('A' for Active; 'I' for Inactive)
REMARK    1  A    between atoms: O_2  and  C_9
REMARK    2  A    between atoms: N_4  and  C_7
REMARK    3  A    between atoms: N_4  and  C_8
REMARK    4  A    between atoms: N_5  and  C_23
REMARK    5  A    between atoms: N_6  and  C_15
REMARK    6  A    between atoms: C_10  and  C_15
REMARK    7  A    between atoms: C_14  and  C_22
REMARK                            x       y       z     vdW  Elec       q    Type
REMARK                         _______ _______ _______ _____ _____    ______ ____
ROOT
ATOM      1  O   UNL     1      -7.010 -13.000  18.371  0.00  0.00    -0.371 OA
ATOM      7  C   UNL     1      -5.449 -11.214  18.233  0.00  0.00    +0.111 C 
ATOM      9  C   UNL     1      -6.674 -10.742  18.994  0.00  0.00    +0.164 C 
ATOM     10  C   UNL     1      -7.274 -12.071  19.436  0.00  0.00    +0.165 C 
ATOM     11  C   UNL     1      -5.993 -12.442  17.521  0.00  0.00    +0.181 C 
ENDROOT
BRANCH   9   2
ATOM      2  O   UNL     1      -6.348  -9.918  20.096  0.00  0.00    -0.388 OA
ATOM     26  H   UNL     1      -6.713 -10.324  20.900  0.00  0.00    +0.210 HD
ENDBRANCH   9   2
BRANCH   7   4
ATOM      4  N   UNL     1      -4.913 -10.221  17.316  0.00  0.00    -0.306 NA
ATOM     24  H   UNL     1      -4.247  -9.619  17.799  0.00  0.00    +0.123 HD
BRANCH   4   8
ATOM      5  N   UNL     1      -2.599 -10.660  13.779  0.00  0.00    -0.305 NA
ATOM      8  C   UNL     1      -4.267 -10.863  16.174  0.00  0.00    +0.056 C 
ATOM     12  C   UNL     1      -4.798 -10.298  14.854  0.00  0.00    +0.034 C 
ATOM     13  C   UNL     1      -2.749 -10.676  16.249  0.00  0.00    +0.034 C 
ATOM     16  C   UNL     1      -4.046 -10.891  13.660  0.00  0.00    +0.085 C 
ATOM     17  C   UNL     1      -2.063 -11.257  15.010  0.00  0.00    +0.085 C 
ATOM     23  C   UNL     1      -1.899 -11.187  12.607  0.00  0.00    +0.104 C 
ENDBRANCH   4   8
ENDBRANCH   7   4
BRANCH  10  15
ATOM     15  C   UNL     1      -8.768 -11.998  19.694  0.00  0.00    +0.138 C 
BRANCH  15   6
ATOM      3  O   UNL     1     -10.333 -11.255  17.365  0.00  0.00    -0.276 OA
ATOM      6  N   UNL     1      -9.291 -10.702  19.373  0.00  0.00    -0.313 N 
ATOM     22  C   UNL     1     -10.034 -10.435  18.229  0.00  0.00    +0.216 C 
ATOM     25  H   UNL     1      -9.103  -9.946  20.026  0.00  0.00    +0.149 HD
BRANCH  22  14
ATOM     14  C   UNL     1     -10.478  -9.006  18.150  0.00  0.00    +0.075 C 
ATOM     18  C   UNL     1      -9.478  -8.175  17.342  0.00  0.00    +0.013 C 
ATOM     19  C   UNL     1     -11.816  -8.904  17.410  0.00  0.00    +0.013 C 
ATOM     20  C   UNL     1     -10.098  -8.069  15.957  0.00  0.00    +0.001 C 
ATOM     21  C   UNL     1     -11.581  -7.938  16.254  0.00  0.00    +0.001 C 
ENDBRANCH  22  14
ENDBRANCH  15   6
ENDBRANCH  10  15
TORSDOF 6
ENDMDL
