MODEL 1
REMARK VINA RESULT:      -6.7      0.000      0.000
REMARK  Name = 40777345
REMARK  6 active torsions:
REMARK  status: ('A' for Active; 'I' for Inactive)
REMARK    1  A    between atoms: C_7  and  C_12
REMARK    2  A    between atoms: C_8  and  C_11
REMARK    3  A    between atoms: C_11  and  C_21
REMARK    4  A    between atoms: C_12  and  C_22
REMARK    5  A    between atoms: C_14  and  C_17
REMARK    6  A    between atoms: C_17  and  C_23
REMARK                            x       y       z     vdW  Elec       q    Type
REMARK                         _______ _______ _______ _____ _____    ______ ____
ROOT
ATOM      4  N   UNL     1      -5.889 -14.047  17.662  0.00  0.00    -0.316 NA
ATOM      7  C   UNL     1      -6.397 -11.341  16.599  0.00  0.00    +0.004 C 
ATOM      8  C   UNL     1      -4.971 -11.918  16.771  0.00  0.00    +0.012 C 
ATOM      9  C   UNL     1      -7.394 -12.502  16.456  0.00  0.00    +0.019 C 
ATOM     10  C   UNL     1      -4.917 -12.976  17.887  0.00  0.00    +0.085 C 
ATOM     13  C   UNL     1      -7.254 -13.532  17.577  0.00  0.00    +0.081 C 
ATOM     29  H   UNL     1      -5.830 -14.722  18.425  0.00  0.00    +0.122 HD
ENDROOT
BRANCH   8  11
ATOM     11  C   UNL     1      -3.911 -10.840  17.002  0.00  0.00    +0.064 C 
BRANCH  11  21
ATOM      1  O   UNL     1      -1.236 -10.346  14.643  0.00  0.00    -0.359 OA
ATOM      6  N   UNL     1      -1.728 -10.470  15.937  0.00  0.00    -0.083 NA
ATOM     21  C   UNL     1      -3.042 -10.660  15.791  0.00  0.00    +0.084 A 
ATOM     23  C   UNL     1      -2.261 -10.464  13.761  0.00  0.00    +0.138 A 
ATOM     24  C   UNL     1      -3.433 -10.666  14.441  0.00  0.00    +0.071 A 
BRANCH  23  17
ATOM     17  C   UNL     1      -1.916 -10.358  12.339  0.00  0.00    +0.080 C 
BRANCH  17  14
ATOM     14  C   UNL     1      -3.140 -10.324  11.425  0.00  0.00    -0.004 C 
ATOM     15  C   UNL     1      -2.964  -9.270  10.323  0.00  0.00    +0.004 C 
ATOM     16  C   UNL     1      -3.404 -11.709  10.819  0.00  0.00    +0.004 C 
ATOM     18  C   UNL     1      -4.153  -9.254   9.364  0.00  0.00    +0.000 C 
ATOM     19  C   UNL     1      -4.590 -11.690   9.860  0.00  0.00    +0.000 C 
ATOM     20  C   UNL     1      -4.416 -10.635   8.771  0.00  0.00    +0.000 C 
ENDBRANCH  17  14
ENDBRANCH  23  17
ENDBRANCH  11  21
ENDBRANCH   8  11
BRANCH   7  12
ATOM     12  C   UNL     1      -6.823 -10.389  17.721  0.00  0.00    +0.100 C 
BRANCH  12  22
ATOM      2  O   UNL     1      -8.276  -9.034  16.428  0.00  0.00    -0.276 OA
ATOM      3  O   UNL     1     -11.488 -11.308  19.421  0.00  0.00    -0.377 OA
ATOM      5  N   UNL     1      -9.218 -10.117  18.252  0.00  0.00    -0.297 N 
ATOM     22  C   UNL     1      -8.166  -9.781  17.403  0.00  0.00    +0.216 C 
ATOM     25  C   UNL     1     -10.555  -9.575  18.011  0.00  0.00    +0.136 C 
ATOM     26  C   UNL     1      -9.097 -10.897  19.488  0.00  0.00    +0.136 C 
ATOM     27  C   UNL     1     -11.604 -10.669  18.148  0.00  0.00    +0.179 C 
ATOM     28  C   UNL     1     -10.210 -11.935  19.568  0.00  0.00    +0.179 C 
ENDBRANCH  12  22
ENDBRANCH   7  12
TORSDOF 6
ENDMDL
MODEL 2
REMARK VINA RESULT:      -6.7     26.987     29.536
REMARK  Name = 40777345
REMARK  6 active torsions:
REMARK  status: ('A' for Active; 'I' for Inactive)
REMARK    1  A    between atoms: C_7  and  C_12
REMARK    2  A    between atoms: C_8  and  C_11
REMARK    3  A    between atoms: C_11  and  C_21
REMARK    4  A    between atoms: C_12  and  C_22
REMARK    5  A    between atoms: C_14  and  C_17
REMARK    6  A    between atoms: C_17  and  C_23
REMARK                            x       y       z     vdW  Elec       q    Type
REMARK                         _______ _______ _______ _____ _____    ______ ____
ROOT
ATOM      4  N   UNL     1      12.237   6.204  21.194  0.00  0.00    -0.316 NA
ATOM      7  C   UNL     1      12.417   8.832  19.865  0.00  0.00    +0.004 C 
ATOM      8  C   UNL     1      13.151   7.576  19.337  0.00  0.00    +0.012 C 
ATOM      9  C   UNL     1      11.202   8.391  20.696  0.00  0.00    +0.019 C 
ATOM     10  C   UNL     1      13.451   6.577  20.467  0.00  0.00    +0.085 C 
ATOM     13  C   UNL     1      11.570   7.369  21.771  0.00  0.00    +0.081 C 
ATOM     29  H   UNL     1      12.477   5.549  21.938  0.00  0.00    +0.122 HD
ENDROOT
BRANCH   8  11
ATOM     11  C   UNL     1      14.426   7.909  18.560  0.00  0.00    +0.064 C 
BRANCH  11  21
ATOM      1  O   UNL     1      17.189   5.819  19.541  0.00  0.00    -0.359 OA
ATOM      6  N   UNL     1      16.082   6.103  18.751  0.00  0.00    -0.083 NA
ATOM     21  C   UNL     1      15.632   7.280  19.196  0.00  0.00    +0.084 A 
ATOM     23  C   UNL     1      17.374   6.826  20.433  0.00  0.00    +0.138 A 
ATOM     24  C   UNL     1      16.409   7.782  20.254  0.00  0.00    +0.071 A 
BRANCH  23  17
ATOM     17  C   UNL     1      18.509   6.687  21.352  0.00  0.00    +0.080 C 
BRANCH  17  14
ATOM     14  C   UNL     1      19.857   6.621  20.636  0.00  0.00    -0.004 C 
ATOM     15  C   UNL     1      20.703   7.860  20.958  0.00  0.00    +0.004 C 
ATOM     16  C   UNL     1      20.608   5.335  21.010  0.00  0.00    +0.004 C 
ATOM     18  C   UNL     1      22.077   7.792  20.296  0.00  0.00    +0.000 C 
ATOM     19  C   UNL     1      21.982   5.271  20.349  0.00  0.00    +0.000 C 
ATOM     20  C   UNL     1      22.817   6.509  20.664  0.00  0.00    +0.000 C 
ENDBRANCH  17  14
ENDBRANCH  23  17
ENDBRANCH  11  21
ENDBRANCH   8  11
BRANCH   7  12
ATOM     12  C   UNL     1      13.311   9.785  20.667  0.00  0.00    +0.100 C 
BRANCH  12  22
ATOM      2  O   UNL     1      12.972  11.730  19.354  0.00  0.00    -0.276 OA
ATOM      3  O   UNL     1      10.597  12.949  23.515  0.00  0.00    -0.377 OA
ATOM      5  N   UNL     1      12.329  11.857  21.581  0.00  0.00    -0.297 N 
ATOM     22  C   UNL     1      12.859  11.210  20.467  0.00  0.00    +0.216 C 
ATOM     25  C   UNL     1      11.863  13.239  21.472  0.00  0.00    +0.136 C 
ATOM     26  C   UNL     1      12.296  11.315  22.943  0.00  0.00    +0.136 C 
ATOM     27  C   UNL     1      10.516  13.400  22.161  0.00  0.00    +0.179 C 
ATOM     28  C   UNL     1      10.932  11.560  23.576  0.00  0.00    +0.179 C 
ENDBRANCH  12  22
ENDBRANCH   7  12
TORSDOF 6
ENDMDL
MODEL 3
REMARK VINA RESULT:      -6.5     26.805     29.191
REMARK  Name = 40777345
REMARK  6 active torsions:
REMARK  status: ('A' for Active; 'I' for Inactive)
REMARK    1  A    between atoms: C_7  and  C_12
REMARK    2  A    between atoms: C_8  and  C_11
REMARK    3  A    between atoms: C_11  and  C_21
REMARK    4  A    between atoms: C_12  and  C_22
REMARK    5  A    between atoms: C_14  and  C_17
REMARK    6  A    between atoms: C_17  and  C_23
REMARK                            x       y       z     vdW  Elec       q    Type
REMARK                         _______ _______ _______ _____ _____    ______ ____
ROOT
ATOM      4  N   UNL     1      11.982   6.192  20.335  0.00  0.00    -0.316 NA
ATOM      7  C   UNL     1      12.110   9.081  19.748  0.00  0.00    +0.004 C 
ATOM      8  C   UNL     1      12.895   8.026  18.932  0.00  0.00    +0.012 C 
ATOM      9  C   UNL     1      10.890   8.407  20.396  0.00  0.00    +0.019 C 
ATOM     10  C   UNL     1      13.201   6.773  19.769  0.00  0.00    +0.085 C 
ATOM     13  C   UNL     1      11.266   7.148  21.176  0.00  0.00    +0.081 C 
ATOM     29  H   UNL     1      12.226   5.371  20.889  0.00  0.00    +0.122 HD
ENDROOT
BRANCH   8  11
ATOM     11  C   UNL     1      14.177   8.582  18.309  0.00  0.00    +0.064 C 
BRANCH  11  21
ATOM      1  O   UNL     1      12.956   9.759  15.134  0.00  0.00    -0.359 OA
ATOM      6  N   UNL     1      12.971   8.851  16.186  0.00  0.00    -0.083 NA
ATOM     21  C   UNL     1      13.890   9.321  17.035  0.00  0.00    +0.084 A 
ATOM     23  C   UNL     1      13.860  10.742  15.377  0.00  0.00    +0.138 A 
ATOM     24  C   UNL     1      14.482  10.510  16.575  0.00  0.00    +0.071 A 
BRANCH  23  17
ATOM     17  C   UNL     1      13.975  11.793  14.359  0.00  0.00    +0.080 C 
BRANCH  17  14
ATOM     14  C   UNL     1      15.401  11.978  13.845  0.00  0.00    -0.004 C 
ATOM     15  C   UNL     1      15.420  12.052  12.312  0.00  0.00    +0.004 C 
ATOM     16  C   UNL     1      16.042  13.230  14.460  0.00  0.00    +0.004 C 
ATOM     18  C   UNL     1      16.830  12.290  11.777  0.00  0.00    +0.000 C 
ATOM     19  C   UNL     1      17.450  13.467  13.921  0.00  0.00    +0.000 C 
ATOM     20  C   UNL     1      17.466  13.531  12.397  0.00  0.00    +0.000 C 
ENDBRANCH  17  14
ENDBRANCH  23  17
ENDBRANCH  11  21
ENDBRANCH   8  11
BRANCH   7  12
ATOM     12  C   UNL     1      12.953   9.812  20.798  0.00  0.00    +0.100 C 
BRANCH  12  22
ATOM      2  O   UNL     1      12.822  11.917  19.717  0.00  0.00    -0.276 OA
ATOM      3  O   UNL     1      10.591  12.900  24.019  0.00  0.00    -0.377 OA
ATOM      5  N   UNL     1      12.196  11.858  21.952  0.00  0.00    -0.297 N 
ATOM     22  C   UNL     1      12.655  11.289  20.766  0.00  0.00    +0.216 C 
ATOM     25  C   UNL     1      11.880  13.285  22.005  0.00  0.00    +0.136 C 
ATOM     26  C   UNL     1      12.108  11.171  23.245  0.00  0.00    +0.136 C 
ATOM     27  C   UNL     1      10.558  13.508  22.726  0.00  0.00    +0.179 C 
ATOM     28  C   UNL     1      10.777  11.485  23.918  0.00  0.00    +0.179 C 
ENDBRANCH  12  22
ENDBRANCH   7  12
TORSDOF 6
ENDMDL
MODEL 4
REMARK VINA RESULT:      -6.1      1.750      2.307
REMARK  Name = 40777345
REMARK  6 active torsions:
REMARK  status: ('A' for Active; 'I' for Inactive)
REMARK    1  A    between atoms: C_7  and  C_12
REMARK    2  A    between atoms: C_8  and  C_11
REMARK    3  A    between atoms: C_11  and  C_21
REMARK    4  A    between atoms: C_12  and  C_22
REMARK    5  A    between atoms: C_14  and  C_17
REMARK    6  A    between atoms: C_17  and  C_23
REMARK                            x       y       z     vdW  Elec       q    Type
REMARK                         _______ _______ _______ _____ _____    ______ ____
ROOT
ATOM      4  N   UNL     1      -7.158 -12.978  18.986  0.00  0.00    -0.316 NA
ATOM      7  C   UNL     1      -6.914 -11.343  16.541  0.00  0.00    +0.004 C 
ATOM      8  C   UNL     1      -5.696 -11.726  17.417  0.00  0.00    +0.012 C 
ATOM      9  C   UNL     1      -8.029 -12.380  16.752  0.00  0.00    +0.019 C 
ATOM     10  C   UNL     1      -6.103 -11.970  18.880  0.00  0.00    +0.085 C 
ATOM     13  C   UNL     1      -8.350 -12.598  18.230  0.00  0.00    +0.081 C 
ATOM     29  H   UNL     1      -7.407 -13.105  19.967  0.00  0.00    +0.122 HD
ENDROOT
BRANCH   8  11
ATOM     11  C   UNL     1      -4.557 -10.708  17.338  0.00  0.00    +0.064 C 
BRANCH  11  21
ATOM      1  O   UNL     1      -1.593 -11.232  15.363  0.00  0.00    -0.359 OA
ATOM      6  N   UNL     1      -2.273 -10.664  16.433  0.00  0.00    -0.083 NA
ATOM     21  C   UNL     1      -3.525 -11.120  16.329  0.00  0.00    +0.084 A 
ATOM     23  C   UNL     1      -2.449 -12.008  14.649  0.00  0.00    +0.138 A 
ATOM     24  C   UNL     1      -3.692 -11.971  15.223  0.00  0.00    +0.071 A 
BRANCH  23  17
ATOM     17  C   UNL     1      -1.892 -12.688  13.474  0.00  0.00    +0.080 C 
BRANCH  17  14
ATOM     14  C   UNL     1      -2.138 -11.934  12.170  0.00  0.00    -0.004 C 
ATOM     15  C   UNL     1      -3.549 -12.217  11.637  0.00  0.00    +0.004 C 
ATOM     16  C   UNL     1      -1.920 -10.427  12.365  0.00  0.00    +0.004 C 
ATOM     18  C   UNL     1      -3.839 -11.432  10.361  0.00  0.00    +0.000 C 
ATOM     19  C   UNL     1      -2.213  -9.644  11.088  0.00  0.00    +0.000 C 
ATOM     20  C   UNL     1      -3.613  -9.935  10.557  0.00  0.00    +0.000 C 
ENDBRANCH  17  14
ENDBRANCH  23  17
ENDBRANCH  11  21
ENDBRANCH   8  11
BRANCH   7  12
ATOM     12  C   UNL     1      -7.434  -9.922  16.785  0.00  0.00    +0.100 C 
BRANCH  12  22
ATOM      2  O   UNL     1      -8.019  -9.732  14.495  0.00  0.00    -0.276 OA
ATOM      3  O   UNL     1     -12.227  -8.338  16.687  0.00  0.00    -0.377 OA
ATOM      5  N   UNL     1      -9.544  -8.887  16.030  0.00  0.00    -0.297 N 
ATOM     22  C   UNL     1      -8.351  -9.508  15.662  0.00  0.00    +0.216 C 
ATOM     25  C   UNL     1     -10.492  -8.457  15.002  0.00  0.00    +0.136 C 
ATOM     26  C   UNL     1      -9.911  -8.492  17.393  0.00  0.00    +0.136 C 
ATOM     27  C   UNL     1     -11.909  -8.851  15.391  0.00  0.00    +0.179 C 
ATOM     28  C   UNL     1     -11.356  -8.880  17.683  0.00  0.00    +0.179 C 
ENDBRANCH  12  22
ENDBRANCH   7  12
TORSDOF 6
ENDMDL
MODEL 5
REMARK VINA RESULT:      -6.1      2.416      3.343
REMARK  Name = 40777345
REMARK  6 active torsions:
REMARK  status: ('A' for Active; 'I' for Inactive)
REMARK    1  A    between atoms: C_7  and  C_12
REMARK    2  A    between atoms: C_8  and  C_11
REMARK    3  A    between atoms: C_11  and  C_21
REMARK    4  A    between atoms: C_12  and  C_22
REMARK    5  A    between atoms: C_14  and  C_17
REMARK    6  A    between atoms: C_17  and  C_23
REMARK                            x       y       z     vdW  Elec       q    Type
REMARK                         _______ _______ _______ _____ _____    ______ ____
ROOT
ATOM      4  N   UNL     1      -7.570 -11.504  19.955  0.00  0.00    -0.316 NA
ATOM      7  C   UNL     1      -8.744 -11.050  17.286  0.00  0.00    +0.004 C 
ATOM      8  C   UNL     1      -7.279 -10.687  17.627  0.00  0.00    +0.012 C 
ATOM      9  C   UNL     1      -9.221 -12.158  18.238  0.00  0.00    +0.019 C 
ATOM     10  C   UNL     1      -7.102 -10.392  19.126  0.00  0.00    +0.085 C 
ATOM     13  C   UNL     1      -8.977 -11.811  19.706  0.00  0.00    +0.081 C 
ATOM     29  H   UNL     1      -7.445 -11.268  20.939  0.00  0.00    +0.122 HD
ENDROOT
BRANCH   8  11
ATOM     11  C   UNL     1      -6.735  -9.533  16.784  0.00  0.00    +0.064 C 
BRANCH  11  21
ATOM      1  O   UNL     1      -3.587 -10.660  15.450  0.00  0.00    -0.359 OA
ATOM      6  N   UNL     1      -4.418 -10.301  16.504  0.00  0.00    -0.083 NA
ATOM     21  C   UNL     1      -5.581  -9.975  15.933  0.00  0.00    +0.084 A 
ATOM     23  C   UNL     1      -4.267 -10.541  14.281  0.00  0.00    +0.138 A 
ATOM     24  C   UNL     1      -5.542 -10.108  14.534  0.00  0.00    +0.071 A 
BRANCH  23  17
ATOM     17  C   UNL     1      -3.534 -10.883  13.058  0.00  0.00    +0.080 C 
BRANCH  17  14
ATOM     14  C   UNL     1      -4.160 -10.291  11.797  0.00  0.00    -0.004 C 
ATOM     15  C   UNL     1      -3.082  -9.671  10.896  0.00  0.00    +0.004 C 
ATOM     16  C   UNL     1      -4.960 -11.356  11.036  0.00  0.00    +0.004 C 
ATOM     18  C   UNL     1      -3.677  -9.119   9.603  0.00  0.00    +0.000 C 
ATOM     19  C   UNL     1      -5.552 -10.803   9.743  0.00  0.00    +0.000 C 
ATOM     20  C   UNL     1      -4.479 -10.180   8.854  0.00  0.00    +0.000 C 
ENDBRANCH  17  14
ENDBRANCH  23  17
ENDBRANCH  11  21
ENDBRANCH   8  11
BRANCH   7  12
ATOM     12  C   UNL     1      -9.704  -9.856  17.312  0.00  0.00    +0.100 C 
BRANCH  12  22
ATOM      2  O   UNL     1     -10.808 -10.766  15.422  0.00  0.00    -0.276 OA
ATOM      3  O   UNL     1     -11.688  -5.937  14.821  0.00  0.00    -0.377 OA
ATOM      5  N   UNL     1     -10.616  -8.453  15.497  0.00  0.00    -0.297 N 
ATOM     22  C   UNL     1     -10.425  -9.742  15.992  0.00  0.00    +0.216 C 
ATOM     25  C   UNL     1     -11.311  -8.254  14.226  0.00  0.00    +0.136 C 
ATOM     26  C   UNL     1     -10.065  -7.227  16.083  0.00  0.00    +0.136 C 
ATOM     27  C   UNL     1     -12.325  -7.125  14.346  0.00  0.00    +0.179 C 
ATOM     28  C   UNL     1     -11.130  -6.137  16.123  0.00  0.00    +0.179 C 
ENDBRANCH  12  22
ENDBRANCH   7  12
TORSDOF 6
ENDMDL
MODEL 6
REMARK VINA RESULT:      -6.1     22.687     26.729
REMARK  Name = 40777345
REMARK  6 active torsions:
REMARK  status: ('A' for Active; 'I' for Inactive)
REMARK    1  A    between atoms: C_7  and  C_12
REMARK    2  A    between atoms: C_8  and  C_11
REMARK    3  A    between atoms: C_11  and  C_21
REMARK    4  A    between atoms: C_12  and  C_22
REMARK    5  A    between atoms: C_14  and  C_17
REMARK    6  A    between atoms: C_17  and  C_23
REMARK                            x       y       z     vdW  Elec       q    Type
REMARK                         _______ _______ _______ _____ _____    ______ ____
ROOT
ATOM      4  N   UNL     1     -12.926   9.896  30.609  0.00  0.00    -0.316 NA
ATOM      7  C   UNL     1     -12.286   8.391  33.065  0.00  0.00    +0.004 C 
ATOM      8  C   UNL     1     -13.573   8.142  32.243  0.00  0.00    +0.012 C 
ATOM      9  C   UNL     1     -11.213   8.998  32.146  0.00  0.00    +0.019 C 
ATOM     10  C   UNL     1     -14.003   9.397  31.465  0.00  0.00    +0.085 C 
ATOM     13  C   UNL     1     -11.725  10.216  31.378  0.00  0.00    +0.081 C 
ATOM     29  H   UNL     1     -13.244  10.732  30.118  0.00  0.00    +0.122 HD
ENDROOT
BRANCH   8  11
ATOM     11  C   UNL     1     -14.732   7.610  33.089  0.00  0.00    +0.064 C 
BRANCH  11  21
ATOM      1  O   UNL     1     -15.177   4.138  33.927  0.00  0.00    -0.359 OA
ATOM      6  N   UNL     1     -15.459   5.488  34.092  0.00  0.00    -0.083 NA
ATOM     21  C   UNL     1     -14.687   6.114  33.198  0.00  0.00    +0.084 A 
ATOM     23  C   UNL     1     -14.251   3.989  32.946  0.00  0.00    +0.138 A 
ATOM     24  C   UNL     1     -13.906   5.218  32.449  0.00  0.00    +0.071 A 
BRANCH  23  17
ATOM     17  C   UNL     1     -13.836   2.615  32.640  0.00  0.00    +0.080 C 
BRANCH  17  14
ATOM     14  C   UNL     1     -14.828   1.873  31.747  0.00  0.00    -0.004 C 
ATOM     15  C   UNL     1     -15.488   2.836  30.751  0.00  0.00    +0.004 C 
ATOM     16  C   UNL     1     -14.137   0.716  31.012  0.00  0.00    +0.004 C 
ATOM     18  C   UNL     1     -16.445   2.107  29.811  0.00  0.00    +0.000 C 
ATOM     19  C   UNL     1     -15.096  -0.009  30.072  0.00  0.00    +0.000 C 
ATOM     20  C   UNL     1     -15.756   0.953  29.089  0.00  0.00    +0.000 C 
ENDBRANCH  17  14
ENDBRANCH  23  17
ENDBRANCH  11  21
ENDBRANCH   8  11
BRANCH   7  12
ATOM     12  C   UNL     1     -12.499   9.264  34.307  0.00  0.00    +0.100 C 
BRANCH  12  22
ATOM      2  O   UNL     1     -12.631   7.653  36.041  0.00  0.00    -0.276 OA
ATOM      3  O   UNL     1      -7.991   9.276  36.581  0.00  0.00    -0.377 OA
ATOM      5  N   UNL     1     -10.736   8.995  36.013  0.00  0.00    -0.297 N 
ATOM     22  C   UNL     1     -11.970   8.561  35.531  0.00  0.00    +0.216 C 
ATOM     25  C   UNL     1     -10.149   8.363  37.194  0.00  0.00    +0.136 C 
ATOM     26  C   UNL     1      -9.986  10.150  35.511  0.00  0.00    +0.136 C 
ATOM     27  C   UNL     1      -8.671   8.078  36.963  0.00  0.00    +0.179 C 
ATOM     28  C   UNL     1      -8.513   9.795  35.354  0.00  0.00    +0.179 C 
ENDBRANCH  12  22
ENDBRANCH   7  12
TORSDOF 6
ENDMDL
MODEL 7
REMARK VINA RESULT:      -6.1      3.407      8.281
REMARK  Name = 40777345
REMARK  6 active torsions:
REMARK  status: ('A' for Active; 'I' for Inactive)
REMARK    1  A    between atoms: C_7  and  C_12
REMARK    2  A    between atoms: C_8  and  C_11
REMARK    3  A    between atoms: C_11  and  C_21
REMARK    4  A    between atoms: C_12  and  C_22
REMARK    5  A    between atoms: C_14  and  C_17
REMARK    6  A    between atoms: C_17  and  C_23
REMARK                            x       y       z     vdW  Elec       q    Type
REMARK                         _______ _______ _______ _____ _____    ______ ____
ROOT
ATOM      4  N   UNL     1      -8.805 -11.834  19.363  0.00  0.00    -0.316 NA
ATOM      7  C   UNL     1      -6.269 -10.689  18.380  0.00  0.00    +0.004 C 
ATOM      8  C   UNL     1      -7.651 -10.254  17.834  0.00  0.00    +0.012 C 
ATOM      9  C   UNL     1      -6.445 -11.249  19.801  0.00  0.00    +0.019 C 
ATOM     10  C   UNL     1      -8.697 -11.373  17.978  0.00  0.00    +0.085 C 
ATOM     13  C   UNL     1      -7.528 -12.325  19.874  0.00  0.00    +0.081 C 
ATOM     29  H   UNL     1      -9.499 -12.579  19.417  0.00  0.00    +0.122 HD
ENDROOT
BRANCH   8  11
ATOM     11  C   UNL     1      -7.594  -9.755  16.389  0.00  0.00    +0.064 C 
BRANCH  11  21
ATOM      1  O   UNL     1     -10.420  -8.117  14.875  0.00  0.00    -0.359 OA
ATOM      6  N   UNL     1      -9.356  -9.011  14.847  0.00  0.00    -0.083 NA
ATOM     21  C   UNL     1      -8.792  -8.915  16.054  0.00  0.00    +0.084 A 
ATOM     23  C   UNL     1     -10.466  -7.512  16.089  0.00  0.00    +0.138 A 
ATOM     24  C   UNL     1      -9.451  -7.985  16.878  0.00  0.00    +0.071 A 
BRANCH  23  17
ATOM     17  C   UNL     1     -11.537  -6.530  16.292  0.00  0.00    +0.080 C 
BRANCH  17  14
ATOM     14  C   UNL     1     -12.638  -6.616  15.237  0.00  0.00    -0.004 C 
ATOM     15  C   UNL     1     -14.015  -6.754  15.900  0.00  0.00    +0.004 C 
ATOM     16  C   UNL     1     -12.598  -5.393  14.309  0.00  0.00    +0.004 C 
ATOM     18  C   UNL     1     -15.138  -6.788  14.866  0.00  0.00    +0.000 C 
ATOM     19  C   UNL     1     -13.723  -5.429  13.279  0.00  0.00    +0.000 C 
ATOM     20  C   UNL     1     -15.090  -5.574  13.941  0.00  0.00    +0.000 C 
ENDBRANCH  17  14
ENDBRANCH  23  17
ENDBRANCH  11  21
ENDBRANCH   8  11
BRANCH   7  12
ATOM     12  C   UNL     1      -5.533 -11.692  17.485  0.00  0.00    +0.100 C 
BRANCH  12  22
ATOM      2  O   UNL     1      -3.416 -11.615  18.549  0.00  0.00    -0.276 OA
ATOM      3  O   UNL     1      -2.165 -10.742  13.845  0.00  0.00    -0.377 OA
ATOM      5  N   UNL     1      -3.485 -10.950  16.326  0.00  0.00    -0.297 N 
ATOM     22  C   UNL     1      -4.051 -11.417  17.510  0.00  0.00    +0.216 C 
ATOM     25  C   UNL     1      -2.052 -10.663  16.263  0.00  0.00    +0.136 C 
ATOM     26  C   UNL     1      -4.227 -10.584  15.115  0.00  0.00    +0.136 C 
ATOM     27  C   UNL     1      -1.452 -11.230  14.984  0.00  0.00    +0.179 C 
ATOM     28  C   UNL     1      -3.535 -11.151  13.881  0.00  0.00    +0.179 C 
ENDBRANCH  12  22
ENDBRANCH   7  12
TORSDOF 6
ENDMDL
MODEL 8
REMARK VINA RESULT:      -6.0     23.122     27.090
REMARK  Name = 40777345
REMARK  6 active torsions:
REMARK  status: ('A' for Active; 'I' for Inactive)
REMARK    1  A    between atoms: C_7  and  C_12
REMARK    2  A    between atoms: C_8  and  C_11
REMARK    3  A    between atoms: C_11  and  C_21
REMARK    4  A    between atoms: C_12  and  C_22
REMARK    5  A    between atoms: C_14  and  C_17
REMARK    6  A    between atoms: C_17  and  C_23
REMARK                            x       y       z     vdW  Elec       q    Type
REMARK                         _______ _______ _______ _____ _____    ______ ____
ROOT
ATOM      4  N   UNL     1     -13.784   9.541  30.898  0.00  0.00    -0.316 NA
ATOM      7  C   UNL     1     -11.669   8.733  32.790  0.00  0.00    +0.004 C 
ATOM      8  C   UNL     1     -13.105   8.158  32.846  0.00  0.00    +0.012 C 
ATOM      9  C   UNL     1     -11.379   9.221  31.362  0.00  0.00    +0.019 C 
ATOM     10  C   UNL     1     -14.134   9.142  32.262  0.00  0.00    +0.085 C 
ATOM     13  C   UNL     1     -12.463  10.161  30.835  0.00  0.00    +0.081 C 
ATOM     29  H   UNL     1     -14.482  10.198  30.549  0.00  0.00    +0.122 HD
ENDROOT
BRANCH   8  11
ATOM     11  C   UNL     1     -13.520   7.717  34.250  0.00  0.00    +0.064 C 
BRANCH  11  21
ATOM      1  O   UNL     1     -14.472   4.329  35.010  0.00  0.00    -0.359 OA
ATOM      6  N   UNL     1     -13.903   5.551  35.346  0.00  0.00    -0.083 NA
ATOM     21  C   UNL     1     -14.031   6.305  34.250  0.00  0.00    +0.084 A 
ATOM     23  C   UNL     1     -14.924   4.381  33.731  0.00  0.00    +0.138 A 
ATOM     24  C   UNL     1     -14.667   5.618  33.202  0.00  0.00    +0.071 A 
BRANCH  23  17
ATOM     17  C   UNL     1     -15.559   3.165  33.210  0.00  0.00    +0.080 C 
BRANCH  17  14
ATOM     14  C   UNL     1     -14.957   2.691  31.889  0.00  0.00    -0.004 C 
ATOM     15  C   UNL     1     -14.662   1.186  31.936  0.00  0.00    +0.004 C 
ATOM     16  C   UNL     1     -15.888   3.029  30.716  0.00  0.00    +0.004 C 
ATOM     18  C   UNL     1     -14.108   0.678  30.607  0.00  0.00    +0.000 C 
ATOM     19  C   UNL     1     -15.334   2.518  29.389  0.00  0.00    +0.000 C 
ATOM     20  C   UNL     1     -15.033   1.023  29.443  0.00  0.00    +0.000 C 
ENDBRANCH  17  14
ENDBRANCH  23  17
ENDBRANCH  11  21
ENDBRANCH   8  11
BRANCH   7  12
ATOM     12  C   UNL     1     -11.402   9.844  33.812  0.00  0.00    +0.100 C 
BRANCH  12  22
ATOM      2  O   UNL     1      -9.068  10.125  33.507  0.00  0.00    -0.276 OA
ATOM      3  O   UNL     1      -9.304   9.201  38.359  0.00  0.00    -0.377 OA
ATOM      5  N   UNL     1      -9.757   9.344  35.583  0.00  0.00    -0.297 N 
ATOM     22  C   UNL     1      -9.970   9.786  34.278  0.00  0.00    +0.216 C 
ATOM     25  C   UNL     1      -8.398   9.262  36.115  0.00  0.00    +0.136 C 
ATOM     26  C   UNL     1     -10.790   8.815  36.480  0.00  0.00    +0.136 C 
ATOM     27  C   UNL     1      -8.342   9.844  37.520  0.00  0.00    +0.179 C 
ATOM     28  C   UNL     1     -10.633   9.411  37.873  0.00  0.00    +0.179 C 
ENDBRANCH  12  22
ENDBRANCH   7  12
TORSDOF 6
ENDMDL
MODEL 9
REMARK VINA RESULT:      -6.0     22.647     26.789
REMARK  Name = 40777345
REMARK  6 active torsions:
REMARK  status: ('A' for Active; 'I' for Inactive)
REMARK    1  A    between atoms: C_7  and  C_12
REMARK    2  A    between atoms: C_8  and  C_11
REMARK    3  A    between atoms: C_11  and  C_21
REMARK    4  A    between atoms: C_12  and  C_22
REMARK    5  A    between atoms: C_14  and  C_17
REMARK    6  A    between atoms: C_17  and  C_23
REMARK                            x       y       z     vdW  Elec       q    Type
REMARK                         _______ _______ _______ _____ _____    ______ ____
ROOT
ATOM      4  N   UNL     1     -17.555   5.807  33.287  0.00  0.00    -0.316 NA
ATOM      7  C   UNL     1     -14.772   4.892  32.935  0.00  0.00    +0.004 C 
ATOM      8  C   UNL     1     -15.141   6.376  33.171  0.00  0.00    +0.012 C 
ATOM      9  C   UNL     1     -15.884   4.001  33.512  0.00  0.00    +0.019 C 
ATOM     10  C   UNL     1     -16.563   6.693  32.678  0.00  0.00    +0.085 C 
ATOM     13  C   UNL     1     -17.270   4.401  33.009  0.00  0.00    +0.081 C 
ATOM     29  H   UNL     1     -18.481   6.040  32.930  0.00  0.00    +0.122 HD
ENDROOT
BRANCH   8  11
ATOM     11  C   UNL     1     -14.131   7.349  32.560  0.00  0.00    +0.064 C 
BRANCH  11  21
ATOM      1  O   UNL     1     -11.625   9.113  34.450  0.00  0.00    -0.359 OA
ATOM      6  N   UNL     1     -12.307   8.834  33.272  0.00  0.00    -0.083 NA
ATOM     21  C   UNL     1     -13.201   7.897  33.603  0.00  0.00    +0.084 A 
ATOM     23  C   UNL     1     -12.123   8.342  35.450  0.00  0.00    +0.138 A 
ATOM     24  C   UNL     1     -13.129   7.550  34.963  0.00  0.00    +0.071 A 
BRANCH  23  17
ATOM     17  C   UNL     1     -11.512   8.510  36.774  0.00  0.00    +0.080 C 
BRANCH  17  14
ATOM     14  C   UNL     1     -10.125   9.145  36.719  0.00  0.00    -0.004 C 
ATOM     15  C   UNL     1     -10.025  10.317  37.705  0.00  0.00    +0.004 C 
ATOM     16  C   UNL     1      -9.037   8.100  37.001  0.00  0.00    +0.004 C 
ATOM     18  C   UNL     1      -8.629  10.935  37.707  0.00  0.00    +0.000 C 
ATOM     19  C   UNL     1      -7.643   8.721  37.005  0.00  0.00    +0.000 C 
ATOM     20  C   UNL     1      -7.551   9.891  37.980  0.00  0.00    +0.000 C 
ENDBRANCH  17  14
ENDBRANCH  23  17
ENDBRANCH  11  21
ENDBRANCH   8  11
BRANCH   7  12
ATOM     12  C   UNL     1     -14.497   4.543  31.468  0.00  0.00    +0.100 C 
BRANCH  12  22
ATOM      2  O   UNL     1     -12.878   2.950  32.149  0.00  0.00    -0.276 OA
ATOM      3  O   UNL     1     -15.607   0.274  29.011  0.00  0.00    -0.377 OA
ATOM      5  N   UNL     1     -14.271   2.331  30.397  0.00  0.00    -0.297 N 
ATOM     22  C   UNL     1     -13.804   3.207  31.375  0.00  0.00    +0.216 C 
ATOM     25  C   UNL     1     -13.657   1.013  30.243  0.00  0.00    +0.136 C 
ATOM     26  C   UNL     1     -15.280   2.650  29.382  0.00  0.00    +0.136 C 
ATOM     27  C   UNL     1     -14.729  -0.057  30.089  0.00  0.00    +0.179 C 
ATOM     28  C   UNL     1     -16.283   1.510  29.259  0.00  0.00    +0.179 C 
ENDBRANCH  12  22
ENDBRANCH   7  12
TORSDOF 6
ENDMDL
MODEL 10
REMARK VINA RESULT:      -6.0     24.625     29.685
REMARK  Name = 40777345
REMARK  6 active torsions:
REMARK  status: ('A' for Active; 'I' for Inactive)
REMARK    1  A    between atoms: C_7  and  C_12
REMARK    2  A    between atoms: C_8  and  C_11
REMARK    3  A    between atoms: C_11  and  C_21
REMARK    4  A    between atoms: C_12  and  C_22
REMARK    5  A    between atoms: C_14  and  C_17
REMARK    6  A    between atoms: C_17  and  C_23
REMARK                            x       y       z     vdW  Elec       q    Type
REMARK                         _______ _______ _______ _____ _____    ______ ____
ROOT
ATOM      4  N   UNL     1      10.470   3.891  -1.321  0.00  0.00    -0.316 NA
ATOM      7  C   UNL     1      13.368   3.500  -0.923  0.00  0.00    +0.004 C 
ATOM      8  C   UNL     1      12.408   3.874   0.232  0.00  0.00    +0.012 C 
ATOM      9  C   UNL     1      12.569   2.798  -2.032  0.00  0.00    +0.019 C 
ATOM     10  C   UNL     1      11.175   4.638  -0.278  0.00  0.00    +0.085 C 
ATOM     13  C   UNL     1      11.338   3.597  -2.459  0.00  0.00    +0.081 C 
ATOM     29  H   UNL     1       9.667   4.432  -1.640  0.00  0.00    +0.122 HD
ENDROOT
BRANCH   8  11
ATOM     11  C   UNL     1      13.095   4.652   1.356  0.00  0.00    +0.064 C 
BRANCH  11  21
ATOM      1  O   UNL     1      11.129   6.206   3.941  0.00  0.00    -0.359 OA
ATOM      6  N   UNL     1      12.127   6.227   2.973  0.00  0.00    -0.083 NA
ATOM     21  C   UNL     1      12.130   4.997   2.452  0.00  0.00    +0.084 A 
ATOM     23  C   UNL     1      10.564   4.972   3.974  0.00  0.00    +0.138 A 
ATOM     24  C   UNL     1      11.165   4.165   3.045  0.00  0.00    +0.071 A 
BRANCH  23  17
ATOM     17  C   UNL     1       9.484   4.772   4.947  0.00  0.00    +0.080 C 
BRANCH  17  14
ATOM     14  C   UNL     1       9.772   5.410   6.304  0.00  0.00    -0.004 C 
ATOM     15  C   UNL     1       8.758   6.521   6.609  0.00  0.00    +0.004 C 
ATOM     16  C   UNL     1       9.771   4.350   7.414  0.00  0.00    +0.004 C 
ATOM     18  C   UNL     1       8.993   7.138   7.985  0.00  0.00    +0.000 C 
ATOM     19  C   UNL     1      10.004   4.970   8.789  0.00  0.00    +0.000 C 
ATOM     20  C   UNL     1       8.999   6.079   9.084  0.00  0.00    +0.000 C 
ENDBRANCH  17  14
ENDBRANCH  23  17
ENDBRANCH  11  21
ENDBRANCH   8  11
BRANCH   7  12
ATOM     12  C   UNL     1      14.158   4.687  -1.485  0.00  0.00    +0.100 C 
BRANCH  12  22
ATOM      2  O   UNL     1      16.076   3.789  -0.422  0.00  0.00    -0.276 OA
ATOM      3  O   UNL     1      17.951   5.180  -4.781  0.00  0.00    -0.377 OA
ATOM      5  N   UNL     1      16.429   4.906  -2.427  0.00  0.00    -0.297 N 
ATOM     22  C   UNL     1      15.638   4.417  -1.389  0.00  0.00    +0.216 C 
ATOM     25  C   UNL     1      17.874   4.684  -2.412  0.00  0.00    +0.136 C 
ATOM     26  C   UNL     1      15.960   5.763  -3.521  0.00  0.00    +0.136 C 
ATOM     27  C   UNL     1      18.356   4.238  -3.786  0.00  0.00    +0.179 C 
ATOM     28  C   UNL     1      16.525   5.276  -4.850  0.00  0.00    +0.179 C 
ENDBRANCH  12  22
ENDBRANCH   7  12
TORSDOF 6
ENDMDL
