MODEL 1
REMARK VINA RESULT:      -7.2      0.000      0.000
REMARK  Name = 40587791
REMARK  7 active torsions:
REMARK  status: ('A' for Active; 'I' for Inactive)
REMARK    1  A    between atoms: N_2  and  C_11
REMARK    2  A    between atoms: N_4  and  C_26
REMARK    3  A    between atoms: N_4  and  C_30
REMARK    4  A    between atoms: N_4  and  C_31
REMARK    5  A    between atoms: C_11  and  C_12
REMARK    6  A    between atoms: C_21  and  C_23
REMARK    7  A    between atoms: C_24  and  C_26
REMARK                            x       y       z     vdW  Elec       q    Type
REMARK                         _______ _______ _______ _____ _____    ______ ____
ROOT
ATOM      1  O   UNL     1      12.262   7.731   2.844  0.00  0.00    -0.267 OA
ATOM      2  N   UNL     1      13.211   4.377  -0.763  0.00  0.00    -0.301 NA
ATOM      3  N   UNL     1      12.776   5.558   2.168  0.00  0.00    -0.311 N 
ATOM      5  C   UNL     1      14.949   4.968   0.944  0.00  0.00    +0.024 C 
ATOM      6  C   UNL     1      13.319   3.210   1.443  0.00  0.00    +0.050 C 
ATOM      7  C   UNL     1      14.782   3.609   1.612  0.00  0.00    +0.017 C 
ATOM      8  C   UNL     1      14.577   4.871  -0.551  0.00  0.00    +0.089 C 
ATOM      9  C   UNL     1      12.984   3.105  -0.063  0.00  0.00    +0.094 C 
ATOM     10  C   UNL     1      14.098   5.998   1.698  0.00  0.00    +0.130 C 
ATOM     13  C   UNL     1      12.405   4.213   2.121  0.00  0.00    +0.026 A 
ATOM     19  C   UNL     1      11.240   3.817   2.657  0.00  0.00    +0.022 A 
ATOM     20  C   UNL     1      11.953   6.541   2.755  0.00  0.00    +0.259 A 
ATOM     21  C   UNL     1      10.638   6.072   3.315  0.00  0.00    +0.047 A 
ATOM     22  C   UNL     1      10.343   4.765   3.257  0.00  0.00    +0.015 A 
ENDROOT
BRANCH  21  23
ATOM     23  C   UNL     1       9.681   7.020   3.912  0.00  0.00    -0.008 A 
ATOM     24  C   UNL     1       9.638   7.237   5.290  0.00  0.00    -0.026 A 
ATOM     25  C   UNL     1       8.805   7.706   3.071  0.00  0.00    +0.009 A 
ATOM     27  C   UNL     1       8.721   8.141   5.825  0.00  0.00    +0.005 A 
ATOM     28  C   UNL     1       7.888   8.610   3.606  0.00  0.00    +0.001 A 
ATOM     29  C   UNL     1       7.845   8.827   4.983  0.00  0.00    +0.000 A 
BRANCH  24  26
ATOM     26  C   UNL     1      10.561   6.520   6.222  0.00  0.00    +0.119 C 
BRANCH  26   4
ATOM      4  N   UNL     1       9.838   5.714   7.205  0.00  0.00    -0.304 NA
ATOM     30  C   UNL     1      10.449   5.851   8.527  0.00  0.00    +0.104 C 
ATOM     31  C   UNL     1       9.813   4.310   6.797  0.00  0.00    +0.104 C 
ENDBRANCH  26   4
ENDBRANCH  24  26
ENDBRANCH  21  23
BRANCH   2  11
ATOM     11  C   UNL     1      12.916   4.249  -2.188  0.00  0.00    +0.088 C 
BRANCH  11  12
ATOM     12  C   UNL     1      11.441   3.923  -2.419  0.00  0.00    +0.003 C 
ATOM     14  C   UNL     1      10.678   5.168  -2.892  0.00  0.00    +0.005 C 
ATOM     15  C   UNL     1      11.292   2.775  -3.426  0.00  0.00    +0.005 C 
ATOM     16  C   UNL     1       9.212   4.854  -3.182  0.00  0.00    +0.000 C 
ATOM     17  C   UNL     1       9.824   2.465  -3.715  0.00  0.00    +0.000 C 
ATOM     18  C   UNL     1       9.068   3.706  -4.176  0.00  0.00    +0.000 C 
ENDBRANCH  11  12
ENDBRANCH   2  11
TORSDOF 5
ENDMDL
MODEL 2
REMARK VINA RESULT:      -7.1     23.608     26.171
REMARK  Name = 40587791
REMARK  7 active torsions:
REMARK  status: ('A' for Active; 'I' for Inactive)
REMARK    1  A    between atoms: N_2  and  C_11
REMARK    2  A    between atoms: N_4  and  C_26
REMARK    3  A    between atoms: N_4  and  C_30
REMARK    4  A    between atoms: N_4  and  C_31
REMARK    5  A    between atoms: C_11  and  C_12
REMARK    6  A    between atoms: C_21  and  C_23
REMARK    7  A    between atoms: C_24  and  C_26
REMARK                            x       y       z     vdW  Elec       q    Type
REMARK                         _______ _______ _______ _____ _____    ______ ____
ROOT
ATOM      1  O   UNL     1     -13.260  -6.484   9.158  0.00  0.00    -0.267 OA
ATOM      2  N   UNL     1      -8.552  -8.209   9.306  0.00  0.00    -0.301 NA
ATOM      3  N   UNL     1     -11.052  -6.445   8.405  0.00  0.00    -0.311 N 
ATOM      5  C   UNL     1      -9.952  -8.446   7.241  0.00  0.00    +0.024 C 
ATOM      6  C   UNL     1      -8.669  -6.391   7.596  0.00  0.00    +0.050 C 
ATOM      7  C   UNL     1      -9.120  -7.386   6.531  0.00  0.00    +0.017 C 
ATOM      8  C   UNL     1      -9.104  -9.148   8.322  0.00  0.00    +0.089 C 
ATOM      9  C   UNL     1      -7.809  -7.120   8.654  0.00  0.00    +0.094 C 
ATOM     10  C   UNL     1     -11.210  -7.783   7.816  0.00  0.00    +0.130 C 
ATOM     13  C   UNL     1      -9.865  -5.726   8.253  0.00  0.00    +0.026 A 
ATOM     19  C   UNL     1      -9.780  -4.464   8.701  0.00  0.00    +0.022 A 
ATOM     20  C   UNL     1     -12.185  -5.892   9.035  0.00  0.00    +0.259 A 
ATOM     21  C   UNL     1     -12.048  -4.488   9.559  0.00  0.00    +0.047 A 
ATOM     22  C   UNL     1     -10.888  -3.842   9.369  0.00  0.00    +0.015 A 
ENDROOT
BRANCH  21  23
ATOM     23  C   UNL     1     -13.155  -3.828  10.274  0.00  0.00    -0.008 A 
ATOM     24  C   UNL     1     -13.248  -3.872  11.665  0.00  0.00    -0.026 A 
ATOM     25  C   UNL     1     -14.121  -3.151   9.530  0.00  0.00    +0.009 A 
ATOM     27  C   UNL     1     -14.307  -3.237  12.313  0.00  0.00    +0.005 A 
ATOM     28  C   UNL     1     -15.181  -2.516  10.179  0.00  0.00    +0.001 A 
ATOM     29  C   UNL     1     -15.274  -2.559  11.570  0.00  0.00    +0.000 A 
BRANCH  24  26
ATOM     26  C   UNL     1     -12.230  -4.588  12.493  0.00  0.00    +0.119 C 
BRANCH  26   4
ATOM      4  N   UNL     1     -12.839  -5.569  13.392  0.00  0.00    -0.304 NA
ATOM     30  C   UNL     1     -12.046  -5.705  14.613  0.00  0.00    +0.104 C 
ATOM     31  C   UNL     1     -12.972  -6.862  12.722  0.00  0.00    +0.104 C 
ENDBRANCH  26   4
ENDBRANCH  24  26
ENDBRANCH  21  23
BRANCH   2  11
ATOM     11  C   UNL     1      -7.714  -8.903  10.280  0.00  0.00    +0.088 C 
BRANCH  11  12
ATOM     12  C   UNL     1      -6.314  -9.156   9.722  0.00  0.00    +0.003 C 
ATOM     14  C   UNL     1      -5.244  -8.571  10.653  0.00  0.00    +0.005 C 
ATOM     15  C   UNL     1      -6.083 -10.658   9.500  0.00  0.00    +0.005 C 
ATOM     16  C   UNL     1      -3.834  -8.858  10.143  0.00  0.00    +0.000 C 
ATOM     17  C   UNL     1      -4.671 -10.941   8.991  0.00  0.00    +0.000 C 
ATOM     18  C   UNL     1      -3.611 -10.350   9.915  0.00  0.00    +0.000 C 
ENDBRANCH  11  12
ENDBRANCH   2  11
TORSDOF 5
ENDMDL
MODEL 3
REMARK VINA RESULT:      -6.9     23.075     26.031
REMARK  Name = 40587791
REMARK  7 active torsions:
REMARK  status: ('A' for Active; 'I' for Inactive)
REMARK    1  A    between atoms: N_2  and  C_11
REMARK    2  A    between atoms: N_4  and  C_26
REMARK    3  A    between atoms: N_4  and  C_30
REMARK    4  A    between atoms: N_4  and  C_31
REMARK    5  A    between atoms: C_11  and  C_12
REMARK    6  A    between atoms: C_21  and  C_23
REMARK    7  A    between atoms: C_24  and  C_26
REMARK                            x       y       z     vdW  Elec       q    Type
REMARK                         _______ _______ _______ _____ _____    ______ ____
ROOT
ATOM      1  O   UNL     1      -6.111 -11.747  10.695  0.00  0.00    -0.267 OA
ATOM      2  N   UNL     1      -3.373 -10.981  14.827  0.00  0.00    -0.301 NA
ATOM      3  N   UNL     1      -4.046 -11.585  11.769  0.00  0.00    -0.311 N 
ATOM      5  C   UNL     1      -3.329 -13.186  13.636  0.00  0.00    +0.024 C 
ATOM      6  C   UNL     1      -1.815 -11.399  12.920  0.00  0.00    +0.050 C 
ATOM      7  C   UNL     1      -1.919 -12.907  13.132  0.00  0.00    +0.017 C 
ATOM      8  C   UNL     1      -3.577 -12.429  14.958  0.00  0.00    +0.089 C 
ATOM      9  C   UNL     1      -2.051 -10.672  14.263  0.00  0.00    +0.094 C 
ATOM     10  C   UNL     1      -4.331 -12.803  12.540  0.00  0.00    +0.130 C 
ATOM     13  C   UNL     1      -2.818 -10.932  11.880  0.00  0.00    +0.026 A 
ATOM     19  C   UNL     1      -2.535  -9.887  11.086  0.00  0.00    +0.022 A 
ATOM     20  C   UNL     1      -5.029 -11.175  10.845  0.00  0.00    +0.259 A 
ATOM     21  C   UNL     1      -4.698  -9.980   9.993  0.00  0.00    +0.047 A 
ATOM     22  C   UNL     1      -3.495  -9.404  10.134  0.00  0.00    +0.015 A 
ENDROOT
BRANCH  21  23
ATOM     23  C   UNL     1      -5.669  -9.439   9.025  0.00  0.00    -0.008 A 
ATOM     24  C   UNL     1      -5.738  -9.924   7.719  0.00  0.00    -0.026 A 
ATOM     25  C   UNL     1      -6.529  -8.422   9.439  0.00  0.00    +0.009 A 
ATOM     27  C   UNL     1      -6.668  -9.391   6.826  0.00  0.00    +0.005 A 
ATOM     28  C   UNL     1      -7.459  -7.889   8.546  0.00  0.00    +0.001 A 
ATOM     29  C   UNL     1      -7.528  -8.374   7.239  0.00  0.00    +0.000 A 
BRANCH  24  26
ATOM     26  C   UNL     1      -4.833 -11.013   7.242  0.00  0.00    +0.119 C 
BRANCH  26   4
ATOM      4  N   UNL     1      -5.408 -11.762   6.125  0.00  0.00    -0.304 NA
ATOM     30  C   UNL     1      -5.864 -13.078   6.572  0.00  0.00    +0.104 C 
ATOM     31  C   UNL     1      -4.433 -11.898   5.043  0.00  0.00    +0.104 C 
ENDBRANCH  26   4
ENDBRANCH  24  26
ENDBRANCH  21  23
BRANCH   2  11
ATOM     11  C   UNL     1      -3.565 -10.307  16.109  0.00  0.00    +0.088 C 
BRANCH  11  12
ATOM     12  C   UNL     1      -4.788 -10.856  16.843  0.00  0.00    +0.003 C 
ATOM     14  C   UNL     1      -4.457 -11.136  18.315  0.00  0.00    +0.005 C 
ATOM     15  C   UNL     1      -5.971  -9.884  16.724  0.00  0.00    +0.005 C 
ATOM     16  C   UNL     1      -5.680 -11.635  19.083  0.00  0.00    +0.000 C 
ATOM     17  C   UNL     1      -7.191 -10.385  17.494  0.00  0.00    +0.000 C 
ATOM     18  C   UNL     1      -6.856 -10.672  18.954  0.00  0.00    +0.000 C 
ENDBRANCH  11  12
ENDBRANCH   2  11
TORSDOF 5
ENDMDL
MODEL 4
REMARK VINA RESULT:      -6.7      1.369      2.626
REMARK  Name = 40587791
REMARK  7 active torsions:
REMARK  status: ('A' for Active; 'I' for Inactive)
REMARK    1  A    between atoms: N_2  and  C_11
REMARK    2  A    between atoms: N_4  and  C_26
REMARK    3  A    between atoms: N_4  and  C_30
REMARK    4  A    between atoms: N_4  and  C_31
REMARK    5  A    between atoms: C_11  and  C_12
REMARK    6  A    between atoms: C_21  and  C_23
REMARK    7  A    between atoms: C_24  and  C_26
REMARK                            x       y       z     vdW  Elec       q    Type
REMARK                         _______ _______ _______ _____ _____    ______ ____
ROOT
ATOM      1  O   UNL     1      12.406   7.287   3.687  0.00  0.00    -0.267 OA
ATOM      2  N   UNL     1      13.039   5.023  -0.744  0.00  0.00    -0.301 NA
ATOM      3  N   UNL     1      12.855   5.380   2.420  0.00  0.00    -0.311 N 
ATOM      5  C   UNL     1      14.916   5.175   0.911  0.00  0.00    +0.024 C 
ATOM      6  C   UNL     1      13.328   3.317   1.059  0.00  0.00    +0.050 C 
ATOM      7  C   UNL     1      14.801   3.686   1.208  0.00  0.00    +0.017 C 
ATOM      8  C   UNL     1      14.420   5.469  -0.521  0.00  0.00    +0.089 C 
ATOM      9  C   UNL     1      12.867   3.607  -0.389  0.00  0.00    +0.094 C 
ATOM     10  C   UNL     1      14.134   5.953   1.978  0.00  0.00    +0.130 C 
ATOM     13  C   UNL     1      12.476   4.088   2.050  0.00  0.00    +0.026 A 
ATOM     19  C   UNL     1      11.359   3.543   2.556  0.00  0.00    +0.022 A 
ATOM     20  C   UNL     1      12.087   6.157   3.312  0.00  0.00    +0.259 A 
ATOM     21  C   UNL     1      10.822   5.533   3.834  0.00  0.00    +0.047 A 
ATOM     22  C   UNL     1      10.519   4.282   3.456  0.00  0.00    +0.015 A 
ENDROOT
BRANCH  21  23
ATOM     23  C   UNL     1       9.922   6.271   4.736  0.00  0.00    -0.008 A 
ATOM     24  C   UNL     1       9.020   7.217   4.248  0.00  0.00    -0.026 A 
ATOM     25  C   UNL     1       9.984   6.008   6.105  0.00  0.00    +0.009 A 
ATOM     27  C   UNL     1       8.180   7.900   5.128  0.00  0.00    +0.005 A 
ATOM     28  C   UNL     1       9.144   6.691   6.985  0.00  0.00    +0.001 A 
ATOM     29  C   UNL     1       8.243   7.637   6.497  0.00  0.00    +0.000 A 
BRANCH  24  26
ATOM     26  C   UNL     1       8.926   7.524   2.788  0.00  0.00    +0.119 C 
BRANCH  26   4
ATOM      4  N   UNL     1       8.878   8.962   2.526  0.00  0.00    -0.304 NA
ATOM     30  C   UNL     1       7.786   9.279   1.606  0.00  0.00    +0.104 C 
ATOM     31  C   UNL     1      10.155   9.426   1.984  0.00  0.00    +0.104 C 
ENDBRANCH  26   4
ENDBRANCH  24  26
ENDBRANCH  21  23
BRANCH   2  11
ATOM     11  C   UNL     1      12.625   5.270  -2.123  0.00  0.00    +0.088 C 
BRANCH  11  12
ATOM     12  C   UNL     1      11.202   4.771  -2.370  0.00  0.00    +0.003 C 
ATOM     14  C   UNL     1      10.222   5.949  -2.459  0.00  0.00    +0.005 C 
ATOM     15  C   UNL     1      11.142   3.913  -3.641  0.00  0.00    +0.005 C 
ATOM     16  C   UNL     1       8.801   5.478  -2.758  0.00  0.00    +0.000 C 
ATOM     17  C   UNL     1       9.719   3.445  -3.939  0.00  0.00    +0.000 C 
ATOM     18  C   UNL     1       8.747   4.618  -4.017  0.00  0.00    +0.000 C 
ENDBRANCH  11  12
ENDBRANCH   2  11
TORSDOF 5
ENDMDL
MODEL 5
REMARK VINA RESULT:      -6.6     23.185     26.078
REMARK  Name = 40587791
REMARK  7 active torsions:
REMARK  status: ('A' for Active; 'I' for Inactive)
REMARK    1  A    between atoms: N_2  and  C_11
REMARK    2  A    between atoms: N_4  and  C_26
REMARK    3  A    between atoms: N_4  and  C_30
REMARK    4  A    between atoms: N_4  and  C_31
REMARK    5  A    between atoms: C_11  and  C_12
REMARK    6  A    between atoms: C_21  and  C_23
REMARK    7  A    between atoms: C_24  and  C_26
REMARK                            x       y       z     vdW  Elec       q    Type
REMARK                         _______ _______ _______ _____ _____    ______ ____
ROOT
ATOM      1  O   UNL     1      -5.414 -12.371  10.738  0.00  0.00    -0.267 OA
ATOM      2  N   UNL     1      -3.369 -11.001  15.108  0.00  0.00    -0.301 NA
ATOM      3  N   UNL     1      -3.549 -11.853  12.040  0.00  0.00    -0.311 N 
ATOM      5  C   UNL     1      -2.864 -13.234  14.087  0.00  0.00    +0.024 C 
ATOM      6  C   UNL     1      -1.534 -11.283  13.436  0.00  0.00    +0.050 C 
ATOM      7  C   UNL     1      -1.454 -12.777  13.738  0.00  0.00    +0.017 C 
ATOM      8  C   UNL     1      -3.384 -12.454  15.313  0.00  0.00    +0.089 C 
ATOM      9  C   UNL     1      -2.041 -10.530  14.688  0.00  0.00    +0.094 C 
ATOM     10  C   UNL     1      -3.760 -13.058  12.853  0.00  0.00    +0.130 C 
ATOM     13  C   UNL     1      -2.448 -11.021  12.254  0.00  0.00    +0.026 A 
ATOM     19  C   UNL     1      -2.213  -9.989  11.429  0.00  0.00    +0.022 A 
ATOM     20  C   UNL     1      -4.452 -11.639  10.978  0.00  0.00    +0.259 A 
ATOM     21  C   UNL     1      -4.182 -10.454  10.091  0.00  0.00    +0.047 A 
ATOM     22  C   UNL     1      -3.099  -9.701  10.336  0.00  0.00    +0.015 A 
ENDROOT
BRANCH  21  23
ATOM     23  C   UNL     1      -5.085 -10.111   8.979  0.00  0.00    -0.008 A 
ATOM     24  C   UNL     1      -6.210  -9.310   9.177  0.00  0.00    -0.026 A 
ATOM     25  C   UNL     1      -4.797 -10.607   7.707  0.00  0.00    +0.009 A 
ATOM     27  C   UNL     1      -7.046  -9.003   8.103  0.00  0.00    +0.005 A 
ATOM     28  C   UNL     1      -5.633 -10.300   6.633  0.00  0.00    +0.001 A 
ATOM     29  C   UNL     1      -6.758  -9.499   6.831  0.00  0.00    +0.000 A 
BRANCH  24  26
ATOM     26  C   UNL     1      -6.549  -8.762  10.525  0.00  0.00    +0.119 C 
BRANCH  26   4
ATOM      4  N   UNL     1      -7.336  -9.702  11.323  0.00  0.00    -0.304 NA
ATOM     30  C   UNL     1      -8.766  -9.477  11.116  0.00  0.00    +0.104 C 
ATOM     31  C   UNL     1      -6.998  -9.578  12.741  0.00  0.00    +0.104 C 
ENDBRANCH  26   4
ENDBRANCH  24  26
ENDBRANCH  21  23
BRANCH   2  11
ATOM     11  C   UNL     1      -3.817 -10.298  16.308  0.00  0.00    +0.088 C 
BRANCH  11  12
ATOM     12  C   UNL     1      -5.249 -10.688  16.673  0.00  0.00    +0.003 C 
ATOM     14  C   UNL     1      -5.345 -11.074  18.155  0.00  0.00    +0.005 C 
ATOM     15  C   UNL     1      -6.221  -9.547  16.341  0.00  0.00    +0.005 C 
ATOM     16  C   UNL     1      -6.778 -11.416  18.557  0.00  0.00    +0.000 C 
ATOM     17  C   UNL     1      -7.654  -9.892  16.746  0.00  0.00    +0.000 C 
ATOM     18  C   UNL     1      -7.743 -10.284  18.217  0.00  0.00    +0.000 C 
ENDBRANCH  11  12
ENDBRANCH   2  11
TORSDOF 5
ENDMDL
MODEL 6
REMARK VINA RESULT:      -6.6     32.661     35.806
REMARK  Name = 40587791
REMARK  7 active torsions:
REMARK  status: ('A' for Active; 'I' for Inactive)
REMARK    1  A    between atoms: N_2  and  C_11
REMARK    2  A    between atoms: N_4  and  C_26
REMARK    3  A    between atoms: N_4  and  C_30
REMARK    4  A    between atoms: N_4  and  C_31
REMARK    5  A    between atoms: C_11  and  C_12
REMARK    6  A    between atoms: C_21  and  C_23
REMARK    7  A    between atoms: C_24  and  C_26
REMARK                            x       y       z     vdW  Elec       q    Type
REMARK                         _______ _______ _______ _____ _____    ______ ____
ROOT
ATOM      1  O   UNL     1       8.916 -12.061  32.009  0.00  0.00    -0.267 OA
ATOM      2  N   UNL     1       6.725  -8.677  34.994  0.00  0.00    -0.301 NA
ATOM      3  N   UNL     1       8.327  -9.858  32.501  0.00  0.00    -0.311 N 
ATOM      5  C   UNL     1       9.196  -8.623  34.572  0.00  0.00    +0.024 C 
ATOM      6  C   UNL     1       7.684  -7.480  33.021  0.00  0.00    +0.050 C 
ATOM      7  C   UNL     1       9.042  -7.376  33.711  0.00  0.00    +0.017 C 
ATOM      8  C   UNL     1       8.057  -8.692  35.612  0.00  0.00    +0.089 C 
ATOM      9  C   UNL     1       6.566  -7.530  34.087  0.00  0.00    +0.094 C 
ATOM     10  C   UNL     1       9.235  -9.854  33.657  0.00  0.00    +0.130 C 
ATOM     13  C   UNL     1       7.624  -8.709  32.132  0.00  0.00    +0.026 A 
ATOM     19  C   UNL     1       6.888  -8.701  31.010  0.00  0.00    +0.022 A 
ATOM     20  C   UNL     1       8.283 -11.039  31.734  0.00  0.00    +0.259 A 
ATOM     21  C   UNL     1       7.422 -11.011  30.500  0.00  0.00    +0.047 A 
ATOM     22  C   UNL     1       6.784  -9.873  30.188  0.00  0.00    +0.015 A 
ENDROOT
BRANCH  21  23
ATOM     23  C   UNL     1       7.269 -12.204  29.648  0.00  0.00    -0.008 A 
ATOM     24  C   UNL     1       6.321 -13.185  29.938  0.00  0.00    -0.026 A 
ATOM     25  C   UNL     1       8.095 -12.340  28.533  0.00  0.00    +0.009 A 
ATOM     27  C   UNL     1       6.200 -14.303  29.113  0.00  0.00    +0.005 A 
ATOM     28  C   UNL     1       7.974 -13.457  27.707  0.00  0.00    +0.001 A 
ATOM     29  C   UNL     1       7.026 -14.439  27.997  0.00  0.00    +0.000 A 
BRANCH  24  26
ATOM     26  C   UNL     1       5.418 -13.073  31.125  0.00  0.00    +0.119 C 
BRANCH  26   4
ATOM      4  N   UNL     1       5.466 -14.264  31.972  0.00  0.00    -0.304 NA
ATOM     30  C   UNL     1       4.113 -14.727  32.280  0.00  0.00    +0.104 C 
ATOM     31  C   UNL     1       6.205 -13.987  33.204  0.00  0.00    +0.104 C 
ENDBRANCH  26   4
ENDBRANCH  24  26
ENDBRANCH  21  23
BRANCH   2  11
ATOM     11  C   UNL     1       5.676  -8.689  36.010  0.00  0.00    +0.088 C 
BRANCH  11  12
ATOM     12  C   UNL     1       4.442  -9.446  35.520  0.00  0.00    +0.003 C 
ATOM     14  C   UNL     1       4.807 -10.885  35.131  0.00  0.00    +0.005 C 
ATOM     15  C   UNL     1       3.340  -9.431  36.588  0.00  0.00    +0.005 C 
ATOM     16  C   UNL     1       3.580 -11.678  34.689  0.00  0.00    +0.000 C 
ATOM     17  C   UNL     1       2.114 -10.227  36.143  0.00  0.00    +0.000 C 
ATOM     18  C   UNL     1       2.482 -11.653  35.748  0.00  0.00    +0.000 C 
ENDBRANCH  11  12
ENDBRANCH   2  11
TORSDOF 5
ENDMDL
MODEL 7
REMARK VINA RESULT:      -6.6     23.224     26.049
REMARK  Name = 40587791
REMARK  7 active torsions:
REMARK  status: ('A' for Active; 'I' for Inactive)
REMARK    1  A    between atoms: N_2  and  C_11
REMARK    2  A    between atoms: N_4  and  C_26
REMARK    3  A    between atoms: N_4  and  C_30
REMARK    4  A    between atoms: N_4  and  C_31
REMARK    5  A    between atoms: C_11  and  C_12
REMARK    6  A    between atoms: C_21  and  C_23
REMARK    7  A    between atoms: C_24  and  C_26
REMARK                            x       y       z     vdW  Elec       q    Type
REMARK                         _______ _______ _______ _____ _____    ______ ____
ROOT
ATOM      1  O   UNL     1      -3.079 -10.384  15.947  0.00  0.00    -0.267 OA
ATOM      2  N   UNL     1      -4.560  -9.810  11.190  0.00  0.00    -0.301 NA
ATOM      3  N   UNL     1      -3.725 -11.282  13.893  0.00  0.00    -0.311 N 
ATOM      5  C   UNL     1      -2.381 -10.920  11.742  0.00  0.00    +0.024 C 
ATOM      6  C   UNL     1      -4.433 -12.256  11.683  0.00  0.00    +0.050 C 
ATOM      7  C   UNL     1      -2.947 -12.275  11.337  0.00  0.00    +0.017 C 
ATOM      8  C   UNL     1      -3.107  -9.794  10.976  0.00  0.00    +0.089 C 
ATOM      9  C   UNL     1      -5.134 -11.129  10.888  0.00  0.00    +0.094 C 
ATOM     10  C   UNL     1      -2.499 -10.770  13.264  0.00  0.00    +0.130 C 
ATOM     13  C   UNL     1      -4.636 -12.057  13.174  0.00  0.00    +0.026 A 
ATOM     19  C   UNL     1      -5.691 -12.608  13.795  0.00  0.00    +0.022 A 
ATOM     20  C   UNL     1      -3.879 -11.035  15.273  0.00  0.00    +0.259 A 
ATOM     21  C   UNL     1      -5.090 -11.636  15.934  0.00  0.00    +0.047 A 
ATOM     22  C   UNL     1      -5.921 -12.386  15.195  0.00  0.00    +0.015 A 
ENDROOT
BRANCH  21  23
ATOM     23  C   UNL     1      -5.373 -11.406  17.362  0.00  0.00    -0.008 A 
ATOM     24  C   UNL     1      -6.267 -10.417  17.774  0.00  0.00    -0.026 A 
ATOM     25  C   UNL     1      -4.726 -12.201  18.308  0.00  0.00    +0.009 A 
ATOM     27  C   UNL     1      -6.514 -10.224  19.134  0.00  0.00    +0.005 A 
ATOM     28  C   UNL     1      -4.974 -12.008  19.667  0.00  0.00    +0.001 A 
ATOM     29  C   UNL     1      -5.867 -11.019  20.080  0.00  0.00    +0.000 A 
BRANCH  24  26
ATOM     26  C   UNL     1      -6.977  -9.547  16.789  0.00  0.00    +0.119 C 
BRANCH  26   4
ATOM      4  N   UNL     1      -8.426  -9.754  16.811  0.00  0.00    -0.304 NA
ATOM     30  C   UNL     1      -8.886 -10.291  15.531  0.00  0.00    +0.104 C 
ATOM     31  C   UNL     1      -9.116  -8.501  17.119  0.00  0.00    +0.104 C 
ENDBRANCH  26   4
ENDBRANCH  24  26
ENDBRANCH  21  23
BRANCH   2  11
ATOM     11  C   UNL     1      -5.215  -8.764  10.408  0.00  0.00    +0.088 C 
BRANCH  11  12
ATOM     12  C   UNL     1      -5.977  -9.357   9.223  0.00  0.00    +0.003 C 
ATOM     14  C   UNL     1      -7.209  -8.506   8.889  0.00  0.00    +0.005 C 
ATOM     15  C   UNL     1      -5.057  -9.489   8.001  0.00  0.00    +0.005 C 
ATOM     16  C   UNL     1      -7.957  -9.049   7.674  0.00  0.00    +0.000 C 
ATOM     17  C   UNL     1      -5.809 -10.031   6.786  0.00  0.00    +0.000 C 
ATOM     18  C   UNL     1      -7.038  -9.188   6.464  0.00  0.00    +0.000 C 
ENDBRANCH  11  12
ENDBRANCH   2  11
TORSDOF 5
ENDMDL
MODEL 8
REMARK VINA RESULT:      -6.4     23.141     25.548
REMARK  Name = 40587791
REMARK  7 active torsions:
REMARK  status: ('A' for Active; 'I' for Inactive)
REMARK    1  A    between atoms: N_2  and  C_11
REMARK    2  A    between atoms: N_4  and  C_26
REMARK    3  A    between atoms: N_4  and  C_30
REMARK    4  A    between atoms: N_4  and  C_31
REMARK    5  A    between atoms: C_11  and  C_12
REMARK    6  A    between atoms: C_21  and  C_23
REMARK    7  A    between atoms: C_24  and  C_26
REMARK                            x       y       z     vdW  Elec       q    Type
REMARK                         _______ _______ _______ _____ _____    ______ ____
ROOT
ATOM      1  O   UNL     1      -6.679 -10.242  14.203  0.00  0.00    -0.267 OA
ATOM      2  N   UNL     1      -5.450 -11.036   9.405  0.00  0.00    -0.301 NA
ATOM      3  N   UNL     1      -5.335  -9.807  12.346  0.00  0.00    -0.311 N 
ATOM      5  C   UNL     1      -6.254  -8.792  10.181  0.00  0.00    +0.024 C 
ATOM      6  C   UNL     1      -3.874  -9.343  10.350  0.00  0.00    +0.050 C 
ATOM      7  C   UNL     1      -4.852  -8.216  10.030  0.00  0.00    +0.017 C 
ATOM      8  C   UNL     1      -6.446  -9.975   9.209  0.00  0.00    +0.089 C 
ATOM      9  C   UNL     1      -4.080 -10.504   9.350  0.00  0.00    +0.094 C 
ATOM     10  C   UNL     1      -6.471  -9.190  11.646  0.00  0.00    +0.130 C 
ATOM     13  C   UNL     1      -4.062  -9.831  11.775  0.00  0.00    +0.026 A 
ATOM     19  C   UNL     1      -3.017 -10.297  12.476  0.00  0.00    +0.022 A 
ATOM     20  C   UNL     1      -5.576 -10.277  13.653  0.00  0.00    +0.259 A 
ATOM     21  C   UNL     1      -4.393 -10.827  14.402  0.00  0.00    +0.047 A 
ATOM     22  C   UNL     1      -3.190 -10.808  13.807  0.00  0.00    +0.015 A 
ENDROOT
BRANCH  21  23
ATOM     23  C   UNL     1      -4.538 -11.385  15.758  0.00  0.00    -0.008 A 
ATOM     24  C   UNL     1      -4.727 -12.752  15.963  0.00  0.00    -0.026 A 
ATOM     25  C   UNL     1      -4.484 -10.516  16.848  0.00  0.00    +0.009 A 
ATOM     27  C   UNL     1      -4.862 -13.250  17.259  0.00  0.00    +0.005 A 
ATOM     28  C   UNL     1      -4.619 -11.014  18.144  0.00  0.00    +0.001 A 
ATOM     29  C   UNL     1      -4.808 -12.381  18.349  0.00  0.00    +0.000 A 
BRANCH  24  26
ATOM     26  C   UNL     1      -4.790 -13.712  14.819  0.00  0.00    +0.119 C 
BRANCH  26   4
ATOM      4  N   UNL     1      -3.720 -14.708  14.873  0.00  0.00    -0.304 NA
ATOM     30  C   UNL     1      -2.724 -14.445  13.835  0.00  0.00    +0.104 C 
ATOM     31  C   UNL     1      -4.268 -16.056  14.727  0.00  0.00    +0.104 C 
ENDBRANCH  26   4
ENDBRANCH  24  26
ENDBRANCH  21  23
BRANCH   2  11
ATOM     11  C   UNL     1      -5.633 -12.112   8.434  0.00  0.00    +0.088 C 
BRANCH  11  12
ATOM     12  C   UNL     1      -5.206 -11.670   7.035  0.00  0.00    +0.003 C 
ATOM     14  C   UNL     1      -4.074 -12.560   6.506  0.00  0.00    +0.005 C 
ATOM     15  C   UNL     1      -6.404 -11.681   6.075  0.00  0.00    +0.005 C 
ATOM     16  C   UNL     1      -3.667 -12.171   5.086  0.00  0.00    +0.000 C 
ATOM     17  C   UNL     1      -5.993 -11.293   4.656  0.00  0.00    +0.000 C 
ATOM     18  C   UNL     1      -4.861 -12.175   4.138  0.00  0.00    +0.000 C 
ENDBRANCH  11  12
ENDBRANCH   2  11
TORSDOF 5
ENDMDL
MODEL 9
REMARK VINA RESULT:      -6.4      2.302      7.571
REMARK  Name = 40587791
REMARK  7 active torsions:
REMARK  status: ('A' for Active; 'I' for Inactive)
REMARK    1  A    between atoms: N_2  and  C_11
REMARK    2  A    between atoms: N_4  and  C_26
REMARK    3  A    between atoms: N_4  and  C_30
REMARK    4  A    between atoms: N_4  and  C_31
REMARK    5  A    between atoms: C_11  and  C_12
REMARK    6  A    between atoms: C_21  and  C_23
REMARK    7  A    between atoms: C_24  and  C_26
REMARK                            x       y       z     vdW  Elec       q    Type
REMARK                         _______ _______ _______ _____ _____    ______ ____
ROOT
ATOM      1  O   UNL     1       9.860   7.546   1.336  0.00  0.00    -0.267 OA
ATOM      2  N   UNL     1      11.488   7.472   6.079  0.00  0.00    -0.301 NA
ATOM      3  N   UNL     1       9.842   6.630   3.481  0.00  0.00    -0.311 N 
ATOM      5  C   UNL     1       9.087   7.951   5.543  0.00  0.00    +0.024 C 
ATOM      6  C   UNL     1       9.826   5.630   5.791  0.00  0.00    +0.050 C 
ATOM      7  C   UNL     1       8.674   6.588   6.082  0.00  0.00    +0.017 C 
ATOM      8  C   UNL     1      10.382   8.424   6.237  0.00  0.00    +0.089 C 
ATOM      9  C   UNL     1      11.102   6.121   6.512  0.00  0.00    +0.094 C 
ATOM     10  C   UNL     1       9.235   7.856   4.019  0.00  0.00    +0.130 C 
ATOM     13  C   UNL     1      10.071   5.521   4.297  0.00  0.00    +0.026 A 
ATOM     19  C   UNL     1      10.521   4.374   3.764  0.00  0.00    +0.022 A 
ATOM     20  C   UNL     1      10.082   6.599   2.092  0.00  0.00    +0.259 A 
ATOM     21  C   UNL     1      10.620   5.311   1.529  0.00  0.00    +0.047 A 
ATOM     22  C   UNL     1      10.804   4.274   2.360  0.00  0.00    +0.015 A 
ENDROOT
BRANCH  21  23
ATOM     23  C   UNL     1      10.948   5.181   0.099  0.00  0.00    -0.008 A 
ATOM     24  C   UNL     1      12.263   5.284  -0.356  0.00  0.00    -0.026 A 
ATOM     25  C   UNL     1       9.912   4.950  -0.807  0.00  0.00    +0.009 A 
ATOM     27  C   UNL     1      12.542   5.156  -1.717  0.00  0.00    +0.005 A 
ATOM     28  C   UNL     1      10.192   4.822  -2.167  0.00  0.00    +0.001 A 
ATOM     29  C   UNL     1      11.506   4.926  -2.622  0.00  0.00    +0.000 A 
BRANCH  24  26
ATOM     26  C   UNL     1      13.397   5.530   0.586  0.00  0.00    +0.119 C 
BRANCH  26   4
ATOM      4  N   UNL     1      14.465   4.542   0.437  0.00  0.00    -0.304 NA
ATOM     30  C   UNL     1      14.505   3.653   1.597  0.00  0.00    +0.104 C 
ATOM     31  C   UNL     1      15.756   5.206   0.257  0.00  0.00    +0.104 C 
ENDBRANCH  26   4
ENDBRANCH  24  26
ENDBRANCH  21  23
BRANCH   2  11
ATOM     11  C   UNL     1      12.678   7.929   6.793  0.00  0.00    +0.088 C 
BRANCH  11  12
ATOM     12  C   UNL     1      13.951   7.578   6.025  0.00  0.00    +0.003 C 
ATOM     14  C   UNL     1      13.663   7.458   4.522  0.00  0.00    +0.005 C 
ATOM     15  C   UNL     1      15.048   8.620   6.290  0.00  0.00    +0.005 C 
ATOM     16  C   UNL     1      14.932   7.161   3.727  0.00  0.00    +0.000 C 
ATOM     17  C   UNL     1      16.315   8.320   5.491  0.00  0.00    +0.000 C 
ATOM     18  C   UNL     1      16.022   8.192   3.999  0.00  0.00    +0.000 C 
ENDBRANCH  11  12
ENDBRANCH   2  11
TORSDOF 5
ENDMDL
MODEL 10
REMARK VINA RESULT:      -6.4     24.836     28.170
REMARK  Name = 40587791
REMARK  7 active torsions:
REMARK  status: ('A' for Active; 'I' for Inactive)
REMARK    1  A    between atoms: N_2  and  C_11
REMARK    2  A    between atoms: N_4  and  C_26
REMARK    3  A    between atoms: N_4  and  C_30
REMARK    4  A    between atoms: N_4  and  C_31
REMARK    5  A    between atoms: C_11  and  C_12
REMARK    6  A    between atoms: C_21  and  C_23
REMARK    7  A    between atoms: C_24  and  C_26
REMARK                            x       y       z     vdW  Elec       q    Type
REMARK                         _______ _______ _______ _____ _____    ______ ____
ROOT
ATOM      1  O   UNL     1      -8.023  -8.832  17.233  0.00  0.00    -0.267 OA
ATOM      2  N   UNL     1      -4.854 -11.592  14.495  0.00  0.00    -0.301 NA
ATOM      3  N   UNL     1      -6.580 -10.652  17.006  0.00  0.00    -0.311 N 
ATOM      5  C   UNL     1      -4.074 -10.382  16.547  0.00  0.00    +0.024 C 
ATOM      6  C   UNL     1      -5.035 -12.624  16.763  0.00  0.00    +0.050 C 
ATOM      7  C   UNL     1      -3.945 -11.700  17.299  0.00  0.00    +0.017 C 
ATOM      8  C   UNL     1      -3.896 -10.618  15.032  0.00  0.00    +0.089 C 
ATOM      9  C   UNL     1      -4.819 -12.854  15.250  0.00  0.00    +0.094 C 
ATOM     10  C   UNL     1      -5.428  -9.747  16.890  0.00  0.00    +0.130 C 
ATOM     13  C   UNL     1      -6.411 -12.038  17.019  0.00  0.00    +0.026 A 
ATOM     19  C   UNL     1      -7.463 -12.843  17.239  0.00  0.00    +0.022 A 
ATOM     20  C   UNL     1      -7.840 -10.051  17.205  0.00  0.00    +0.259 A 
ATOM     21  C   UNL     1      -9.005 -10.980  17.413  0.00  0.00    +0.047 A 
ATOM     22  C   UNL     1      -8.778 -12.302  17.432  0.00  0.00    +0.015 A 
ENDROOT
BRANCH  21  23
ATOM     23  C   UNL     1     -10.374 -10.462  17.586  0.00  0.00    -0.008 A 
ATOM     24  C   UNL     1     -11.214 -10.252  16.493  0.00  0.00    -0.026 A 
ATOM     25  C   UNL     1     -10.823 -10.179  18.876  0.00  0.00    +0.009 A 
ATOM     27  C   UNL     1     -12.505  -9.760  16.690  0.00  0.00    +0.005 A 
ATOM     28  C   UNL     1     -12.114  -9.687  19.073  0.00  0.00    +0.001 A 
ATOM     29  C   UNL     1     -12.955  -9.478  17.979  0.00  0.00    +0.000 A 
BRANCH  24  26
ATOM     26  C   UNL     1     -10.766 -10.544  15.097  0.00  0.00    +0.119 C 
BRANCH  26   4
ATOM      4  N   UNL     1     -10.346  -9.336  14.386  0.00  0.00    -0.304 NA
ATOM     30  C   UNL     1     -11.282  -9.028  13.305  0.00  0.00    +0.104 C 
ATOM     31  C   UNL     1      -8.991  -9.498  13.860  0.00  0.00    +0.104 C 
ENDBRANCH  26   4
ENDBRANCH  24  26
ENDBRANCH  21  23
BRANCH   2  11
ATOM     11  C   UNL     1      -4.619 -11.828  13.072  0.00  0.00    +0.088 C 
BRANCH  11  12
ATOM     12  C   UNL     1      -4.272 -10.528  12.348  0.00  0.00    +0.003 C 
ATOM     14  C   UNL     1      -3.179 -10.767  11.297  0.00  0.00    +0.005 C 
ATOM     15  C   UNL     1      -5.524  -9.916  11.705  0.00  0.00    +0.005 C 
ATOM     16  C   UNL     1      -2.853  -9.492  10.523  0.00  0.00    +0.000 C 
ATOM     17  C   UNL     1      -5.194  -8.641  10.929  0.00  0.00    +0.000 C 
ATOM     18  C   UNL     1      -4.101  -8.882   9.893  0.00  0.00    +0.000 C 
ENDBRANCH  11  12
ENDBRANCH   2  11
TORSDOF 5
ENDMDL
