MODEL 1
REMARK VINA RESULT:      -6.0      0.000      0.000
REMARK  Name = 40779622
REMARK  9 active torsions:
REMARK  status: ('A' for Active; 'I' for Inactive)
REMARK    1  A    between atoms: S_1  and  N_6
REMARK    2  A    between atoms: S_1  and  C_19
REMARK    3  A    between atoms: N_5  and  C_14
REMARK    4  A    between atoms: N_5  and  C_16
REMARK    5  A    between atoms: N_5  and  C_17
REMARK    6  A    between atoms: N_6  and  C_15
REMARK    7  A    between atoms: C_8  and  C_14
REMARK    8  A    between atoms: C_9  and  C_15
REMARK    9  A    between atoms: C_16  and  C_18
REMARK                            x       y       z     vdW  Elec       q    Type
REMARK                         _______ _______ _______ _____ _____    ______ ____
ROOT
ATOM      4  N   UNL     1      12.068   9.077  19.909  0.00  0.00    -0.298 NA
ATOM      7  C   UNL     1      12.374   6.950  21.376  0.00  0.00    -0.003 C 
ATOM      8  C   UNL     1      13.346   8.068  21.815  0.00  0.00    +0.020 C 
ATOM      9  C   UNL     1      12.268   7.884  19.042  0.00  0.00    +0.072 C 
ATOM     10  C   UNL     1      12.601   6.634  19.886  0.00  0.00    +0.024 C 
ATOM     11  C   UNL     1      13.221   9.247  20.824  0.00  0.00    +0.089 C 
ATOM     12  C   UNL     1      10.948   7.518  21.509  0.00  0.00    +0.019 C 
ATOM     13  C   UNL     1      10.856   8.844  20.733  0.00  0.00    +0.085 C 
ENDROOT
BRANCH   8  14
ATOM     14  C   UNL     1      14.791   7.593  21.947  0.00  0.00    +0.089 C 
BRANCH  14   5
ATOM      5  N   UNL     1      15.625   8.289  20.952  0.00  0.00    -0.301 NA
ATOM     17  C   UNL     1      16.652   9.077  21.623  0.00  0.00    +0.105 C 
BRANCH   5  16
ATOM     16  C   UNL     1      16.225   7.322  20.038  0.00  0.00    +0.110 C 
BRANCH  16  18
ATOM     18  C   UNL     1      17.660   7.060  20.375  0.00  0.00    -0.019 C 
ATOM     22  C   UNL     1      18.330   5.966  19.992  0.00  0.00    +0.005 C 
ENDBRANCH  16  18
ENDBRANCH   5  16
ENDBRANCH  14   5
ENDBRANCH   8  14
BRANCH   9  15
ATOM     15  C   UNL     1      13.311   8.126  17.949  0.00  0.00    +0.124 C 
BRANCH  15   6
ATOM      6  N   UNL     1      12.969   9.359  17.219  0.00  0.00    -0.188 NA
ATOM     26  H   UNL     1      12.860  10.204  17.793  0.00  0.00    +0.148 HD
BRANCH   6   1
ATOM      1  S   UNL     1      13.437   9.548  15.593  0.00  0.00    +0.058 S 
ATOM      2  O   UNL     1      12.364  10.188  14.857  0.00  0.00    -0.153 OA
ATOM      3  O   UNL     1      14.007   8.302  15.115  0.00  0.00    -0.153 OA
BRANCH   1  19
ATOM     19  C   UNL     1      14.767  10.704  15.733  0.00  0.00    +0.105 A 
ATOM     20  C   UNL     1      15.679  10.849  14.688  0.00  0.00    +0.028 A 
ATOM     21  C   UNL     1      14.906  11.469  16.891  0.00  0.00    +0.028 A 
ATOM     23  C   UNL     1      16.730  11.758  14.800  0.00  0.00    +0.002 A 
ATOM     24  C   UNL     1      15.958  12.379  17.004  0.00  0.00    +0.002 A 
ATOM     25  C   UNL     1      16.870  12.523  15.958  0.00  0.00    +0.000 A 
ENDBRANCH   1  19
ENDBRANCH   6   1
ENDBRANCH  15   6
ENDBRANCH   9  15
TORSDOF 8
ENDMDL
MODEL 2
REMARK VINA RESULT:      -6.0      2.391      5.620
REMARK  Name = 40779622
REMARK  9 active torsions:
REMARK  status: ('A' for Active; 'I' for Inactive)
REMARK    1  A    between atoms: S_1  and  N_6
REMARK    2  A    between atoms: S_1  and  C_19
REMARK    3  A    between atoms: N_5  and  C_14
REMARK    4  A    between atoms: N_5  and  C_16
REMARK    5  A    between atoms: N_5  and  C_17
REMARK    6  A    between atoms: N_6  and  C_15
REMARK    7  A    between atoms: C_8  and  C_14
REMARK    8  A    between atoms: C_9  and  C_15
REMARK    9  A    between atoms: C_16  and  C_18
REMARK                            x       y       z     vdW  Elec       q    Type
REMARK                         _______ _______ _______ _____ _____    ______ ____
ROOT
ATOM      4  N   UNL     1      12.670   6.591  21.177  0.00  0.00    -0.298 NA
ATOM      7  C   UNL     1      11.002   8.553  20.800  0.00  0.00    -0.003 C 
ATOM      8  C   UNL     1      11.522   8.003  19.452  0.00  0.00    +0.020 C 
ATOM      9  C   UNL     1      13.082   7.773  21.983  0.00  0.00    +0.072 C 
ATOM     10  C   UNL     1      12.197   8.998  21.664  0.00  0.00    +0.024 C 
ATOM     11  C   UNL     1      12.610   6.944  19.739  0.00  0.00    +0.089 C 
ATOM     12  C   UNL     1      10.325   7.378  21.531  0.00  0.00    +0.019 C 
ATOM     13  C   UNL     1      11.307   6.196  21.612  0.00  0.00    +0.085 C 
ENDROOT
BRANCH   8  14
ATOM     14  C   UNL     1      12.030   9.094  18.513  0.00  0.00    +0.089 C 
BRANCH  14   5
ATOM      5  N   UNL     1      12.194   8.535  17.160  0.00  0.00    -0.301 NA
ATOM     17  C   UNL     1      11.057   8.905  16.325  0.00  0.00    +0.105 C 
BRANCH   5  16
ATOM     16  C   UNL     1      13.445   9.001  16.573  0.00  0.00    +0.110 C 
BRANCH  16  18
ATOM     18  C   UNL     1      13.696  10.444  16.883  0.00  0.00    -0.019 C 
ATOM     22  C   UNL     1      14.916  10.983  16.995  0.00  0.00    +0.005 C 
ENDBRANCH  16  18
ENDBRANCH   5  16
ENDBRANCH  14   5
ENDBRANCH   8  14
BRANCH   9  15
ATOM     15  C   UNL     1      14.571   8.092  21.830  0.00  0.00    +0.124 C 
BRANCH  15   6
ATOM      6  N   UNL     1      15.271   6.900  21.325  0.00  0.00    -0.188 NA
ATOM     26  H   UNL     1      14.838   5.996  21.551  0.00  0.00    +0.148 HD
BRANCH   6   1
ATOM      1  S   UNL     1      16.231   7.002  19.922  0.00  0.00    +0.058 S 
ATOM      2  O   UNL     1      15.967   8.260  19.251  0.00  0.00    -0.153 OA
ATOM      3  O   UNL     1      16.136   5.752  19.191  0.00  0.00    -0.153 OA
BRANCH   1  19
ATOM     19  C   UNL     1      17.860   7.078  20.604  0.00  0.00    +0.105 A 
ATOM     20  C   UNL     1      18.211   8.123  21.458  0.00  0.00    +0.028 A 
ATOM     21  C   UNL     1      18.796   6.093  20.286  0.00  0.00    +0.028 A 
ATOM     23  C   UNL     1      19.497   8.185  21.993  0.00  0.00    +0.002 A 
ATOM     24  C   UNL     1      20.083   6.155  20.821  0.00  0.00    +0.002 A 
ATOM     25  C   UNL     1      20.433   7.201  21.675  0.00  0.00    +0.000 A 
ENDBRANCH   1  19
ENDBRANCH   6   1
ENDBRANCH  15   6
ENDBRANCH   9  15
TORSDOF 8
ENDMDL
MODEL 3
REMARK VINA RESULT:      -5.9      2.086      3.952
REMARK  Name = 40779622
REMARK  9 active torsions:
REMARK  status: ('A' for Active; 'I' for Inactive)
REMARK    1  A    between atoms: S_1  and  N_6
REMARK    2  A    between atoms: S_1  and  C_19
REMARK    3  A    between atoms: N_5  and  C_14
REMARK    4  A    between atoms: N_5  and  C_16
REMARK    5  A    between atoms: N_5  and  C_17
REMARK    6  A    between atoms: N_6  and  C_15
REMARK    7  A    between atoms: C_8  and  C_14
REMARK    8  A    between atoms: C_9  and  C_15
REMARK    9  A    between atoms: C_16  and  C_18
REMARK                            x       y       z     vdW  Elec       q    Type
REMARK                         _______ _______ _______ _____ _____    ______ ____
ROOT
ATOM      4  N   UNL     1      11.464   7.383  19.911  0.00  0.00    -0.298 NA
ATOM      7  C   UNL     1      13.383   8.755  21.009  0.00  0.00    -0.003 C 
ATOM      8  C   UNL     1      12.011   9.417  21.271  0.00  0.00    +0.020 C 
ATOM      9  C   UNL     1      12.522   7.676  18.906  0.00  0.00    +0.072 C 
ATOM     10  C   UNL     1      13.600   8.615  19.491  0.00  0.00    +0.024 C 
ATOM     11  C   UNL     1      10.932   8.645  20.480  0.00  0.00    +0.089 C 
ATOM     12  C   UNL     1      13.311   7.331  21.592  0.00  0.00    +0.019 C 
ATOM     13  C   UNL     1      12.084   6.606  21.012  0.00  0.00    +0.085 C 
ENDROOT
BRANCH   8  14
ATOM     14  C   UNL     1      11.990  10.908  20.945  0.00  0.00    +0.089 C 
BRANCH  14   5
ATOM      5  N   UNL     1      12.328  11.677  22.155  0.00  0.00    -0.301 NA
ATOM     17  C   UNL     1      13.198  12.796  21.810  0.00  0.00    +0.105 C 
BRANCH   5  16
ATOM     16  C   UNL     1      11.110  12.146  22.807  0.00  0.00    +0.110 C 
BRANCH  16  18
ATOM     18  C   UNL     1      10.952  11.553  24.173  0.00  0.00    -0.019 C 
ATOM     22  C   UNL     1      10.897  12.275  25.299  0.00  0.00    +0.005 C 
ENDBRANCH  16  18
ENDBRANCH   5  16
ENDBRANCH  14   5
ENDBRANCH   8  14
BRANCH   9  15
ATOM     15  C   UNL     1      11.947   8.218  17.595  0.00  0.00    +0.124 C 
BRANCH  15   6
ATOM      6  N   UNL     1      12.659   9.453  17.229  0.00  0.00    -0.188 NA
ATOM     26  H   UNL     1      13.091   9.968  18.006  0.00  0.00    +0.148 HD
BRANCH   6   1
ATOM      1  S   UNL     1      13.340   9.621  15.677  0.00  0.00    +0.058 S 
ATOM      2  O   UNL     1      12.376  10.253  14.797  0.00  0.00    -0.153 OA
ATOM      3  O   UNL     1      13.964   8.368  15.295  0.00  0.00    -0.153 OA
BRANCH   1  19
ATOM     19  C   UNL     1      14.643  10.776  15.978  0.00  0.00    +0.105 A 
ATOM     20  C   UNL     1      14.745  11.406  17.218  0.00  0.00    +0.028 A 
ATOM     21  C   UNL     1      15.568  11.061  14.974  0.00  0.00    +0.028 A 
ATOM     23  C   UNL     1      15.771  12.320  17.454  0.00  0.00    +0.002 A 
ATOM     24  C   UNL     1      16.595  11.976  15.210  0.00  0.00    +0.002 A 
ATOM     25  C   UNL     1      16.696  12.605  16.451  0.00  0.00    +0.000 A 
ENDBRANCH   1  19
ENDBRANCH   6   1
ENDBRANCH  15   6
ENDBRANCH   9  15
TORSDOF 8
ENDMDL
MODEL 4
REMARK VINA RESULT:      -5.9      4.705      6.222
REMARK  Name = 40779622
REMARK  9 active torsions:
REMARK  status: ('A' for Active; 'I' for Inactive)
REMARK    1  A    between atoms: S_1  and  N_6
REMARK    2  A    between atoms: S_1  and  C_19
REMARK    3  A    between atoms: N_5  and  C_14
REMARK    4  A    between atoms: N_5  and  C_16
REMARK    5  A    between atoms: N_5  and  C_17
REMARK    6  A    between atoms: N_6  and  C_15
REMARK    7  A    between atoms: C_8  and  C_14
REMARK    8  A    between atoms: C_9  and  C_15
REMARK    9  A    between atoms: C_16  and  C_18
REMARK                            x       y       z     vdW  Elec       q    Type
REMARK                         _______ _______ _______ _____ _____    ______ ____
ROOT
ATOM      4  N   UNL     1      11.130   8.355  21.379  0.00  0.00    -0.298 NA
ATOM      7  C   UNL     1      13.059   9.445  20.015  0.00  0.00    -0.003 C 
ATOM      8  C   UNL     1      13.569   8.222  20.811  0.00  0.00    +0.020 C 
ATOM      9  C   UNL     1      11.198   9.814  21.668  0.00  0.00    +0.072 C 
ATOM     10  C   UNL     1      12.426  10.458  20.988  0.00  0.00    +0.024 C 
ATOM     11  C   UNL     1      12.422   7.705  21.708  0.00  0.00    +0.089 C 
ATOM     12  C   UNL     1      11.937   8.941  19.088  0.00  0.00    +0.019 C 
ATOM     13  C   UNL     1      10.887   8.189  19.925  0.00  0.00    +0.085 C 
ENDROOT
BRANCH   8  14
ATOM     14  C   UNL     1      14.830   8.512  21.620  0.00  0.00    +0.089 C 
BRANCH  14   5
ATOM      5  N   UNL     1      16.010   8.055  20.864  0.00  0.00    -0.301 NA
ATOM     17  C   UNL     1      17.230   8.410  21.580  0.00  0.00    +0.105 C 
BRANCH   5  16
ATOM     16  C   UNL     1      15.935   6.615  20.642  0.00  0.00    +0.110 C 
BRANCH  16  18
ATOM     18  C   UNL     1      16.383   6.246  19.263  0.00  0.00    -0.019 C 
ATOM     22  C   UNL     1      17.579   5.713  18.982  0.00  0.00    +0.005 C 
ENDBRANCH  16  18
ENDBRANCH   5  16
ENDBRANCH  14   5
ENDBRANCH   8  14
BRANCH   9  15
ATOM     15  C   UNL     1      11.156  10.114  23.168  0.00  0.00    +0.124 C 
BRANCH  15   6
ATOM      6  N   UNL     1      12.337  10.913  23.534  0.00  0.00    -0.188 NA
ATOM     26  H   UNL     1      13.136  10.852  22.892  0.00  0.00    +0.148 HD
BRANCH   6   1
ATOM      1  S   UNL     1      12.156  12.332  24.459  0.00  0.00    +0.058 S 
ATOM      2  O   UNL     1      13.443  12.989  24.583  0.00  0.00    -0.153 OA
ATOM      3  O   UNL     1      11.374  12.030  25.643  0.00  0.00    -0.153 OA
BRANCH   1  19
ATOM     19  C   UNL     1      11.138  13.321  23.406  0.00  0.00    +0.105 A 
ATOM     20  C   UNL     1      11.536  13.583  22.096  0.00  0.00    +0.028 A 
ATOM     21  C   UNL     1       9.937  13.843  23.887  0.00  0.00    +0.028 A 
ATOM     23  C   UNL     1      10.734  14.366  21.266  0.00  0.00    +0.002 A 
ATOM     24  C   UNL     1       9.135  14.627  23.058  0.00  0.00    +0.002 A 
ATOM     25  C   UNL     1       9.534  14.889  21.747  0.00  0.00    +0.000 A 
ENDBRANCH   1  19
ENDBRANCH   6   1
ENDBRANCH  15   6
ENDBRANCH   9  15
TORSDOF 8
ENDMDL
MODEL 5
REMARK VINA RESULT:      -5.8     26.863     28.359
REMARK  Name = 40779622
REMARK  9 active torsions:
REMARK  status: ('A' for Active; 'I' for Inactive)
REMARK    1  A    between atoms: S_1  and  N_6
REMARK    2  A    between atoms: S_1  and  C_19
REMARK    3  A    between atoms: N_5  and  C_14
REMARK    4  A    between atoms: N_5  and  C_16
REMARK    5  A    between atoms: N_5  and  C_17
REMARK    6  A    between atoms: N_6  and  C_15
REMARK    7  A    between atoms: C_8  and  C_14
REMARK    8  A    between atoms: C_9  and  C_15
REMARK    9  A    between atoms: C_16  and  C_18
REMARK                            x       y       z     vdW  Elec       q    Type
REMARK                         _______ _______ _______ _____ _____    ______ ____
ROOT
ATOM      4  N   UNL     1      -5.123 -12.831  16.739  0.00  0.00    -0.298 NA
ATOM      7  C   UNL     1      -5.082 -10.431  17.742  0.00  0.00    -0.003 C 
ATOM      8  C   UNL     1      -6.509 -10.815  17.287  0.00  0.00    +0.020 C 
ATOM      9  C   UNL     1      -4.065 -12.020  16.077  0.00  0.00    +0.072 C 
ATOM     10  C   UNL     1      -4.118 -10.550  16.547  0.00  0.00    +0.024 C 
ATOM     11  C   UNL     1      -6.446 -12.184  16.573  0.00  0.00    +0.089 C 
ATOM     12  C   UNL     1      -4.647 -11.478  18.784  0.00  0.00    +0.019 C 
ATOM     13  C   UNL     1      -4.815 -12.887  18.189  0.00  0.00    +0.085 C 
ENDROOT
BRANCH   8  14
ATOM     14  C   UNL     1      -7.169  -9.753  16.413  0.00  0.00    +0.089 C 
BRANCH  14   5
ATOM      5  N   UNL     1      -8.634  -9.875  16.519  0.00  0.00    -0.301 NA
ATOM     17  C   UNL     1      -9.023 -10.014  17.917  0.00  0.00    +0.105 C 
BRANCH   5  16
ATOM     16  C   UNL     1      -9.278  -8.716  15.911  0.00  0.00    +0.110 C 
BRANCH  16  18
ATOM     18  C   UNL     1      -9.866  -7.806  16.945  0.00  0.00    -0.019 C 
ATOM     22  C   UNL     1     -10.963  -7.064  16.750  0.00  0.00    +0.005 C 
ENDBRANCH  16  18
ENDBRANCH   5  16
ENDBRANCH  14   5
ENDBRANCH   8  14
BRANCH   9  15
ATOM     15  C   UNL     1      -4.113 -12.131  14.552  0.00  0.00    +0.124 C 
BRANCH  15   6
ATOM      6  N   UNL     1      -3.703 -10.847  13.960  0.00  0.00    -0.188 NA
ATOM     26  H   UNL     1      -3.626 -10.057  14.612  0.00  0.00    +0.148 HD
BRANCH   6   1
ATOM      1  S   UNL     1      -2.745 -10.821  12.551  0.00  0.00    +0.058 S 
ATOM      2  O   UNL     1      -2.605 -12.172  12.043  0.00  0.00    -0.153 OA
ATOM      3  O   UNL     1      -1.569 -10.007  12.793  0.00  0.00    -0.153 OA
BRANCH   1  19
ATOM     19  C   UNL     1      -3.775  -9.921  11.432  0.00  0.00    +0.105 A 
ATOM     20  C   UNL     1      -5.087  -9.609  11.788  0.00  0.00    +0.028 A 
ATOM     21  C   UNL     1      -3.276  -9.524  10.192  0.00  0.00    +0.028 A 
ATOM     23  C   UNL     1      -5.900  -8.901  10.903  0.00  0.00    +0.002 A 
ATOM     24  C   UNL     1      -4.090  -8.816   9.306  0.00  0.00    +0.002 A 
ATOM     25  C   UNL     1      -5.402  -8.505   9.663  0.00  0.00    +0.000 A 
ENDBRANCH   1  19
ENDBRANCH   6   1
ENDBRANCH  15   6
ENDBRANCH   9  15
TORSDOF 8
ENDMDL
MODEL 6
REMARK VINA RESULT:      -5.8     26.720     28.248
REMARK  Name = 40779622
REMARK  9 active torsions:
REMARK  status: ('A' for Active; 'I' for Inactive)
REMARK    1  A    between atoms: S_1  and  N_6
REMARK    2  A    between atoms: S_1  and  C_19
REMARK    3  A    between atoms: N_5  and  C_14
REMARK    4  A    between atoms: N_5  and  C_16
REMARK    5  A    between atoms: N_5  and  C_17
REMARK    6  A    between atoms: N_6  and  C_15
REMARK    7  A    between atoms: C_8  and  C_14
REMARK    8  A    between atoms: C_9  and  C_15
REMARK    9  A    between atoms: C_16  and  C_18
REMARK                            x       y       z     vdW  Elec       q    Type
REMARK                         _______ _______ _______ _____ _____    ______ ____
ROOT
ATOM      4  N   UNL     1      -5.131 -12.868  16.738  0.00  0.00    -0.298 NA
ATOM      7  C   UNL     1      -4.934 -10.394  17.521  0.00  0.00    -0.003 C 
ATOM      8  C   UNL     1      -6.326 -10.670  16.908  0.00  0.00    +0.020 C 
ATOM      9  C   UNL     1      -3.908 -12.246  16.163  0.00  0.00    +0.072 C 
ATOM     10  C   UNL     1      -3.845 -10.738  16.489  0.00  0.00    +0.024 C 
ATOM     11  C   UNL     1      -6.336 -12.104  16.333  0.00  0.00    +0.089 C 
ATOM     12  C   UNL     1      -4.765 -11.368  18.703  0.00  0.00    +0.019 C 
ATOM     13  C   UNL     1      -5.022 -12.806  18.217  0.00  0.00    +0.085 C 
ENDROOT
BRANCH   8  14
ATOM     14  C   UNL     1      -6.736  -9.639  15.859  0.00  0.00    +0.089 C 
BRANCH  14   5
ATOM      5  N   UNL     1      -8.068  -9.984  15.331  0.00  0.00    -0.301 NA
ATOM     17  C   UNL     1      -9.081  -9.121  15.927  0.00  0.00    +0.105 C 
BRANCH   5  16
ATOM     16  C   UNL     1      -8.076  -9.869  13.877  0.00  0.00    +0.110 C 
BRANCH  16  18
ATOM     18  C   UNL     1      -6.688  -9.793  13.322  0.00  0.00    -0.019 C 
ATOM     22  C   UNL     1      -6.351  -9.073  12.245  0.00  0.00    +0.005 C 
ENDBRANCH  16  18
ENDBRANCH   5  16
ENDBRANCH  14   5
ENDBRANCH   8  14
BRANCH   9  15
ATOM     15  C   UNL     1      -3.771 -12.509  14.661  0.00  0.00    +0.124 C 
BRANCH  15   6
ATOM      6  N   UNL     1      -3.549 -11.232  13.965  0.00  0.00    -0.188 NA
ATOM     26  H   UNL     1      -3.886 -10.392  14.451  0.00  0.00    +0.148 HD
BRANCH   6   1
ATOM      1  S   UNL     1      -2.247 -11.063  12.880  0.00  0.00    +0.058 S 
ATOM      2  O   UNL     1      -1.569 -12.338  12.744  0.00  0.00    -0.153 OA
ATOM      3  O   UNL     1      -1.495  -9.871  13.224  0.00  0.00    -0.153 OA
BRANCH   1  19
ATOM     19  C   UNL     1      -3.084 -10.725  11.361  0.00  0.00    +0.105 A 
ATOM     20  C   UNL     1      -3.849 -11.718  10.750  0.00  0.00    +0.028 A 
ATOM     21  C   UNL     1      -2.978  -9.465  10.772  0.00  0.00    +0.028 A 
ATOM     23  C   UNL     1      -4.507 -11.452   9.549  0.00  0.00    +0.002 A 
ATOM     24  C   UNL     1      -3.635  -9.199   9.570  0.00  0.00    +0.002 A 
ATOM     25  C   UNL     1      -4.400 -10.193   8.959  0.00  0.00    +0.000 A 
ENDBRANCH   1  19
ENDBRANCH   6   1
ENDBRANCH  15   6
ENDBRANCH   9  15
TORSDOF 8
ENDMDL
MODEL 7
REMARK VINA RESULT:      -5.7     26.282     28.520
REMARK  Name = 40779622
REMARK  9 active torsions:
REMARK  status: ('A' for Active; 'I' for Inactive)
REMARK    1  A    between atoms: S_1  and  N_6
REMARK    2  A    between atoms: S_1  and  C_19
REMARK    3  A    between atoms: N_5  and  C_14
REMARK    4  A    between atoms: N_5  and  C_16
REMARK    5  A    between atoms: N_5  and  C_17
REMARK    6  A    between atoms: N_6  and  C_15
REMARK    7  A    between atoms: C_8  and  C_14
REMARK    8  A    between atoms: C_9  and  C_15
REMARK    9  A    between atoms: C_16  and  C_18
REMARK                            x       y       z     vdW  Elec       q    Type
REMARK                         _______ _______ _______ _____ _____    ______ ____
ROOT
ATOM      4  N   UNL     1      -5.855 -12.273  16.761  0.00  0.00    -0.298 NA
ATOM      7  C   UNL     1      -6.828 -10.858  18.715  0.00  0.00    -0.003 C 
ATOM      8  C   UNL     1      -7.638 -10.638  17.417  0.00  0.00    +0.020 C 
ATOM      9  C   UNL     1      -4.775 -11.469  17.394  0.00  0.00    +0.072 C 
ATOM     10  C   UNL     1      -5.350 -10.508  18.458  0.00  0.00    +0.024 C 
ATOM     11  C   UNL     1      -6.934 -11.386  16.263  0.00  0.00    +0.089 C 
ATOM     12  C   UNL     1      -6.891 -12.364  19.032  0.00  0.00    +0.019 C 
ATOM     13  C   UNL     1      -6.431 -13.162  17.800  0.00  0.00    +0.085 C 
ENDROOT
BRANCH   8  14
ATOM     14  C   UNL     1      -7.854  -9.163  17.084  0.00  0.00    +0.089 C 
BRANCH  14   5
ATOM      5  N   UNL     1      -9.191  -8.750  17.546  0.00  0.00    -0.301 NA
ATOM     17  C   UNL     1      -9.767  -7.790  16.612  0.00  0.00    +0.105 C 
BRANCH   5  16
ATOM     16  C   UNL     1     -10.053  -9.918  17.691  0.00  0.00    +0.110 C 
BRANCH  16  18
ATOM     18  C   UNL     1     -10.779  -9.908  19.000  0.00  0.00    -0.019 C 
ATOM     22  C   UNL     1     -10.434 -10.660  20.052  0.00  0.00    +0.005 C 
ENDBRANCH  16  18
ENDBRANCH   5  16
ENDBRANCH  14   5
ENDBRANCH   8  14
BRANCH   9  15
ATOM     15  C   UNL     1      -3.918 -10.729  16.364  0.00  0.00    +0.124 C 
BRANCH  15   6
ATOM      6  N   UNL     1      -3.525 -11.667  15.300  0.00  0.00    -0.188 NA
ATOM     26  H   UNL     1      -4.295 -12.145  14.817  0.00  0.00    +0.148 HD
BRANCH   6   1
ATOM      1  S   UNL     1      -2.066 -11.436  14.451  0.00  0.00    +0.058 S 
ATOM      2  O   UNL     1      -1.498 -12.727  14.116  0.00  0.00    -0.153 OA
ATOM      3  O   UNL     1      -1.266 -10.445  15.146  0.00  0.00    -0.153 OA
BRANCH   1  19
ATOM     19  C   UNL     1      -2.635 -10.685  12.956  0.00  0.00    +0.105 A 
ATOM     20  C   UNL     1      -3.998 -10.653  12.665  0.00  0.00    +0.028 A 
ATOM     21  C   UNL     1      -1.718 -10.126  12.064  0.00  0.00    +0.028 A 
ATOM     23  C   UNL     1      -4.446 -10.062  11.483  0.00  0.00    +0.002 A 
ATOM     24  C   UNL     1      -2.166  -9.537  10.882  0.00  0.00    +0.002 A 
ATOM     25  C   UNL     1      -3.530  -9.505  10.592  0.00  0.00    +0.000 A 
ENDBRANCH   1  19
ENDBRANCH   6   1
ENDBRANCH  15   6
ENDBRANCH   9  15
TORSDOF 8
ENDMDL
MODEL 8
REMARK VINA RESULT:      -5.7      4.233      6.128
REMARK  Name = 40779622
REMARK  9 active torsions:
REMARK  status: ('A' for Active; 'I' for Inactive)
REMARK    1  A    between atoms: S_1  and  N_6
REMARK    2  A    between atoms: S_1  and  C_19
REMARK    3  A    between atoms: N_5  and  C_14
REMARK    4  A    between atoms: N_5  and  C_16
REMARK    5  A    between atoms: N_5  and  C_17
REMARK    6  A    between atoms: N_6  and  C_15
REMARK    7  A    between atoms: C_8  and  C_14
REMARK    8  A    between atoms: C_9  and  C_15
REMARK    9  A    between atoms: C_16  and  C_18
REMARK                            x       y       z     vdW  Elec       q    Type
REMARK                         _______ _______ _______ _____ _____    ______ ____
ROOT
ATOM      4  N   UNL     1      11.601   7.944  19.197  0.00  0.00    -0.298 NA
ATOM      7  C   UNL     1      13.487   9.472  18.261  0.00  0.00    -0.003 C 
ATOM      8  C   UNL     1      14.022   8.052  18.556  0.00  0.00    +0.020 C 
ATOM      9  C   UNL     1      11.673   9.205  19.983  0.00  0.00    +0.072 C 
ATOM     10  C   UNL     1      12.879  10.064  19.546  0.00  0.00    +0.024 C 
ATOM     11  C   UNL     1      12.903   7.236  19.239  0.00  0.00    +0.089 C 
ATOM     12  C   UNL     1      12.340   9.316  17.244  0.00  0.00    +0.019 C 
ATOM     13  C   UNL     1      11.317   8.302  17.785  0.00  0.00    +0.085 C 
ENDROOT
BRANCH   8  14
ATOM     14  C   UNL     1      15.306   8.052  19.383  0.00  0.00    +0.089 C 
BRANCH  14   5
ATOM      5  N   UNL     1      15.040   7.437  20.695  0.00  0.00    -0.301 NA
ATOM     17  C   UNL     1      15.857   6.241  20.862  0.00  0.00    +0.105 C 
BRANCH   5  16
ATOM     16  C   UNL     1      15.300   8.399  21.760  0.00  0.00    +0.110 C 
BRANCH  16  18
ATOM     18  C   UNL     1      16.196   9.506  21.298  0.00  0.00    -0.019 C 
ATOM     22  C   UNL     1      17.489   9.609  21.630  0.00  0.00    +0.005 C 
ENDBRANCH  16  18
ENDBRANCH   5  16
ENDBRANCH  14   5
ENDBRANCH   8  14
BRANCH   9  15
ATOM     15  C   UNL     1      11.673   8.951  21.493  0.00  0.00    +0.124 C 
BRANCH  15   6
ATOM      6  N   UNL     1      10.888  10.003  22.160  0.00  0.00    -0.188 NA
ATOM     26  H   UNL     1       9.875   9.839  22.215  0.00  0.00    +0.148 HD
BRANCH   6   1
ATOM      1  S   UNL     1      11.609  10.984  23.351  0.00  0.00    +0.058 S 
ATOM      2  O   UNL     1      13.037  11.059  23.109  0.00  0.00    -0.153 OA
ATOM      3  O   UNL     1      11.110  10.591  24.655  0.00  0.00    -0.153 OA
BRANCH   1  19
ATOM     19  C   UNL     1      10.909  12.566  22.986  0.00  0.00    +0.105 A 
ATOM     20  C   UNL     1      10.280  13.299  23.991  0.00  0.00    +0.028 A 
ATOM     21  C   UNL     1      10.984  13.079  21.691  0.00  0.00    +0.028 A 
ATOM     23  C   UNL     1       9.726  14.546  23.703  0.00  0.00    +0.002 A 
ATOM     24  C   UNL     1      10.429  14.326  21.402  0.00  0.00    +0.002 A 
ATOM     25  C   UNL     1       9.800  15.059  22.408  0.00  0.00    +0.000 A 
ENDBRANCH   1  19
ENDBRANCH   6   1
ENDBRANCH  15   6
ENDBRANCH   9  15
TORSDOF 8
ENDMDL
MODEL 9
REMARK VINA RESULT:      -5.6      2.965      5.826
REMARK  Name = 40779622
REMARK  9 active torsions:
REMARK  status: ('A' for Active; 'I' for Inactive)
REMARK    1  A    between atoms: S_1  and  N_6
REMARK    2  A    between atoms: S_1  and  C_19
REMARK    3  A    between atoms: N_5  and  C_14
REMARK    4  A    between atoms: N_5  and  C_16
REMARK    5  A    between atoms: N_5  and  C_17
REMARK    6  A    between atoms: N_6  and  C_15
REMARK    7  A    between atoms: C_8  and  C_14
REMARK    8  A    between atoms: C_9  and  C_15
REMARK    9  A    between atoms: C_16  and  C_18
REMARK                            x       y       z     vdW  Elec       q    Type
REMARK                         _______ _______ _______ _____ _____    ______ ____
ROOT
ATOM      4  N   UNL     1      15.358  11.762  20.063  0.00  0.00    -0.298 NA
ATOM      7  C   UNL     1      12.988  12.345  20.965  0.00  0.00    -0.003 C 
ATOM      8  C   UNL     1      13.733  11.403  21.938  0.00  0.00    +0.020 C 
ATOM      9  C   UNL     1      14.333  11.487  19.019  0.00  0.00    +0.072 C 
ATOM     10  C   UNL     1      12.906  11.682  19.577  0.00  0.00    +0.024 C 
ATOM     11  C   UNL     1      15.068  10.978  21.287  0.00  0.00    +0.089 C 
ATOM     12  C   UNL     1      13.854  13.610  20.815  0.00  0.00    +0.019 C 
ATOM     13  C   UNL     1      15.281  13.203  20.408  0.00  0.00    +0.085 C 
ENDROOT
BRANCH   8  14
ATOM     14  C   UNL     1      12.902  10.194  22.361  0.00  0.00    +0.089 C 
BRANCH  14   5
ATOM      5  N   UNL     1      11.544  10.638  22.721  0.00  0.00    -0.301 NA
ATOM     17  C   UNL     1      10.589   9.561  22.491  0.00  0.00    +0.105 C 
BRANCH   5  16
ATOM     16  C   UNL     1      11.513  11.074  24.113  0.00  0.00    +0.110 C 
BRANCH  16  18
ATOM     18  C   UNL     1      10.587  12.234  24.307  0.00  0.00    -0.019 C 
ATOM     22  C   UNL     1      10.595  13.333  23.543  0.00  0.00    +0.005 C 
ENDBRANCH  16  18
ENDBRANCH   5  16
ENDBRANCH  14   5
ENDBRANCH   8  14
BRANCH   9  15
ATOM     15  C   UNL     1      14.509  10.109  18.378  0.00  0.00    +0.124 C 
BRANCH  15   6
ATOM      6  N   UNL     1      13.269   9.334  18.548  0.00  0.00    -0.188 NA
ATOM     26  H   UNL     1      12.396   9.836  18.345  0.00  0.00    +0.148 HD
BRANCH   6   1
ATOM      1  S   UNL     1      13.285   7.642  18.359  0.00  0.00    +0.058 S 
ATOM      2  O   UNL     1      13.608   7.316  16.983  0.00  0.00    -0.153 OA
ATOM      3  O   UNL     1      12.098   7.084  18.980  0.00  0.00    -0.153 OA
BRANCH   1  19
ATOM     19  C   UNL     1      14.661   7.179  19.367  0.00  0.00    +0.105 A 
ATOM     20  C   UNL     1      15.816   6.666  18.778  0.00  0.00    +0.028 A 
ATOM     21  C   UNL     1      14.590   7.325  20.752  0.00  0.00    +0.028 A 
ATOM     23  C   UNL     1      16.901   6.299  19.574  0.00  0.00    +0.002 A 
ATOM     24  C   UNL     1      15.674   6.956  21.549  0.00  0.00    +0.002 A 
ATOM     25  C   UNL     1      16.830   6.443  20.959  0.00  0.00    +0.000 A 
ENDBRANCH   1  19
ENDBRANCH   6   1
ENDBRANCH  15   6
ENDBRANCH   9  15
TORSDOF 8
ENDMDL
MODEL 10
REMARK VINA RESULT:      -5.5     27.185     28.746
REMARK  Name = 40779622
REMARK  9 active torsions:
REMARK  status: ('A' for Active; 'I' for Inactive)
REMARK    1  A    between atoms: S_1  and  N_6
REMARK    2  A    between atoms: S_1  and  C_19
REMARK    3  A    between atoms: N_5  and  C_14
REMARK    4  A    between atoms: N_5  and  C_16
REMARK    5  A    between atoms: N_5  and  C_17
REMARK    6  A    between atoms: N_6  and  C_15
REMARK    7  A    between atoms: C_8  and  C_14
REMARK    8  A    between atoms: C_9  and  C_15
REMARK    9  A    between atoms: C_16  and  C_18
REMARK                            x       y       z     vdW  Elec       q    Type
REMARK                         _______ _______ _______ _____ _____    ______ ____
ROOT
ATOM      4  N   UNL     1      -4.607 -12.696  17.360  0.00  0.00    -0.298 NA
ATOM      7  C   UNL     1      -5.909 -10.699  18.404  0.00  0.00    -0.003 C 
ATOM      8  C   UNL     1      -6.879 -11.713  17.756  0.00  0.00    +0.020 C 
ATOM      9  C   UNL     1      -4.052 -11.408  16.861  0.00  0.00    +0.072 C 
ATOM     10  C   UNL     1      -4.900 -10.212  17.346  0.00  0.00    +0.024 C 
ATOM     11  C   UNL     1      -6.049 -12.796  17.032  0.00  0.00    +0.089 C 
ATOM     12  C   UNL     1      -5.110 -11.465  19.476  0.00  0.00    +0.019 C 
ATOM     13  C   UNL     1      -4.468 -12.710  18.837  0.00  0.00    +0.085 C 
ENDROOT
BRANCH   8  14
ATOM     14  C   UNL     1      -7.895 -11.061  16.821  0.00  0.00    +0.089 C 
BRANCH  14   5
ATOM      5  N   UNL     1      -8.598  -9.984  17.539  0.00  0.00    -0.301 NA
ATOM     17  C   UNL     1      -8.767  -8.828  16.666  0.00  0.00    +0.105 C 
BRANCH   5  16
ATOM     16  C   UNL     1      -9.888 -10.464  18.023  0.00  0.00    +0.110 C 
BRANCH  16  18
ATOM     18  C   UNL     1      -9.863 -10.722  19.497  0.00  0.00    -0.019 C 
ATOM     22  C   UNL     1     -10.562 -11.692  20.099  0.00  0.00    +0.005 C 
ENDBRANCH  16  18
ENDBRANCH   5  16
ENDBRANCH  14   5
ENDBRANCH   8  14
BRANCH   9  15
ATOM     15  C   UNL     1      -3.876 -11.400  15.341  0.00  0.00    +0.124 C 
BRANCH  15   6
ATOM      6  N   UNL     1      -4.609 -10.256  14.775  0.00  0.00    -0.188 NA
ATOM     26  H   UNL     1      -4.127  -9.349  14.819  0.00  0.00    +0.148 HD
BRANCH   6   1
ATOM      1  S   UNL     1      -5.750 -10.499  13.535  0.00  0.00    +0.058 S 
ATOM      2  O   UNL     1      -6.888  -9.626  13.753  0.00  0.00    -0.153 OA
ATOM      3  O   UNL     1      -5.951 -11.924  13.347  0.00  0.00    -0.153 OA
BRANCH   1  19
ATOM     19  C   UNL     1      -4.874  -9.911  12.117  0.00  0.00    +0.105 A 
ATOM     20  C   UNL     1      -5.465  -8.973  11.271  0.00  0.00    +0.028 A 
ATOM     21  C   UNL     1      -3.591 -10.386  11.844  0.00  0.00    +0.028 A 
ATOM     23  C   UNL     1      -4.774  -8.511  10.151  0.00  0.00    +0.002 A 
ATOM     24  C   UNL     1      -2.900  -9.925  10.723  0.00  0.00    +0.002 A 
ATOM     25  C   UNL     1      -3.492  -8.987   9.877  0.00  0.00    +0.000 A 
ENDBRANCH   1  19
ENDBRANCH   6   1
ENDBRANCH  15   6
ENDBRANCH   9  15
TORSDOF 8
ENDMDL
